MODEL 1
REMARK VINA RESULT:      -8.5      0.000      0.000
REMARK  Name = 
REMARK  10 active torsions:
REMARK  status: ('A' for Active; 'I' for Inactive)
REMARK    1  A    between atoms: C_1  and  C_2
REMARK    2  A    between atoms: N_4  and  C_5
REMARK    3  A    between atoms: C_11  and  C_12
REMARK    4  A    between atoms: C_12  and  C_13
REMARK    5  A    between atoms: C_17  and  C_18
REMARK    6  A    between atoms: C_25  and  C_26
REMARK    7  A    between atoms: C_27  and  C_28
REMARK    8  A    between atoms: N_30  and  C_31
REMARK    9  A    between atoms: C_31  and  C_32
REMARK   10  A    between atoms: C_32  and  O_33
REMARK                            x       y       z     vdW  Elec       q    Type
REMARK                         _______ _______ _______ _____ _____    ______ ____
ROOT
ATOM      1  C   UNL     1       2.477   6.315  19.631  0.00  0.00    +0.000 A 
ATOM      2  C   UNL     1       2.231   5.227  20.493  0.00  0.00    +0.000 A 
ATOM      3  C   UNL     1       2.891   4.027  20.391  0.00  0.00    +0.000 A 
ATOM      4  C   UNL     1       2.874   3.554  19.109  0.00  0.00    +0.000 A 
ATOM      5  C   UNL     1       3.347   4.495  18.178  0.00  0.00    +0.000 A 
ATOM      6  C   UNL     1       3.975   4.213  16.930  0.00  0.00    +0.000 A 
ATOM      7  C   UNL     1       5.190   4.868  16.970  0.00  0.00    +0.000 A 
ATOM      8  S   UNL     1       4.850   6.452  17.711  0.00  0.00    +0.000 S 
ATOM      9  C   UNL     1       3.334   5.881  18.525  0.00  0.00    +0.000 A 
ENDROOT
BRANCH   1  13
ATOM     10  C   UNL     1       0.325   9.803  22.423  0.00  0.00    +0.000 C 
ATOM     11  C   UNL     1       0.789   9.092  21.192  0.00  0.00    +0.000 A 
ATOM     12  N   UNL     1       1.114   7.770  21.203  0.00  0.00    +0.000 NA
ATOM     13  N   UNL     1       1.634   7.499  19.956  0.00  0.00    +0.000 N 
ATOM     14  C   UNL     1       1.481   8.672  19.152  0.00  0.00    +0.000 A 
ATOM     15  C   UNL     1       1.794   8.816  17.696  0.00  0.00    +0.000 C 
ATOM     16  C   UNL     1       0.979   9.710  19.936  0.00  0.00    +0.000 A 
BRANCH  16  17
ATOM     17  C   UNL     1       0.809  11.100  19.457  0.00  0.00    +0.000 C 
ATOM     18  O   UNL     1       1.770  11.852  19.283  0.00  0.00    +0.000 OA
ATOM     19  N   UNL     1      -0.469  11.543  19.135  0.00  0.00    +0.000 N 
ATOM     20  H   UNL     1      -1.248  10.925  19.265  0.00  0.00    +0.000 HD
BRANCH  19  21
ATOM     21  C   UNL     1      -0.735  12.896  18.628  0.00  0.00    +0.000 C 
BRANCH  21  22
ATOM     22  C   UNL     1      -0.874  13.970  19.717  0.00  0.00    +0.000 C 
BRANCH  22  23
ATOM     23  O   UNL     1       0.399  14.535  20.018  0.00  0.00    +0.000 OA
ATOM     24  H   UNL     1       0.228  15.451  20.297  0.00  0.00    +0.000 HD
ENDBRANCH  22  23
ENDBRANCH  21  22
ENDBRANCH  19  21
ENDBRANCH  16  17
ENDBRANCH   1  13
BRANCH   7  25
ATOM     25  C   UNL     1       6.506   4.344  16.313  0.00  0.00    +0.000 C 
BRANCH  25  26
ATOM     26  C   UNL     1       6.639   4.371  14.752  0.00  0.00    +0.000 A 
ATOM     27  C   UNL     1       7.712   4.994  14.096  0.00  0.00    +0.000 A 
ATOM     28  C   UNL     1       7.822   5.028  12.710  0.00  0.00    +0.000 A 
ATOM     29  C   UNL     1       6.847   4.424  11.883  0.00  0.00    +0.000 A 
ATOM     30  C   UNL     1       5.761   3.768  12.481  0.00  0.00    +0.000 A 
ATOM     31  C   UNL     1       5.663   3.752  13.899  0.00  0.00    +0.000 A 
BRANCH  30  32
ATOM     32  C   UNL     1       4.717   3.117  11.575  0.00  0.00    +0.000 C 
ATOM     33  F   UNL     1       5.082   1.878  11.124  0.00  0.00    +0.000 F 
ATOM     34  F   UNL     1       3.518   2.941  12.191  0.00  0.00    +0.000 F 
ATOM     35  F   UNL     1       4.459   3.848  10.453  0.00  0.00    +0.000 F 
ENDBRANCH  30  32
ENDBRANCH  25  26
ENDBRANCH   7  25
TORSDOF 8
ENDMDL
MODEL 2
REMARK VINA RESULT:      -8.4      1.026      1.039
REMARK  Name = 
REMARK  10 active torsions:
REMARK  status: ('A' for Active; 'I' for Inactive)
REMARK    1  A    between atoms: C_1  and  C_2
REMARK    2  A    between atoms: N_4  and  C_5
REMARK    3  A    between atoms: C_11  and  C_12
REMARK    4  A    between atoms: C_12  and  C_13
REMARK    5  A    between atoms: C_17  and  C_18
REMARK    6  A    between atoms: C_25  and  C_26
REMARK    7  A    between atoms: C_27  and  C_28
REMARK    8  A    between atoms: N_30  and  C_31
REMARK    9  A    between atoms: C_31  and  C_32
REMARK   10  A    between atoms: C_32  and  O_33
REMARK                            x       y       z     vdW  Elec       q    Type
REMARK                         _______ _______ _______ _____ _____    ______ ____
ROOT
ATOM      1  C   UNL     1       2.367   6.396  19.683  0.00  0.00    +0.000 A 
ATOM      2  C   UNL     1       2.086   5.317  20.547  0.00  0.00    +0.000 A 
ATOM      3  C   UNL     1       2.718   4.101  20.455  0.00  0.00    +0.000 A 
ATOM      4  C   UNL     1       2.702   3.624  19.175  0.00  0.00    +0.000 A 
ATOM      5  C   UNL     1       3.206   4.550  18.245  0.00  0.00    +0.000 A 
ATOM      6  C   UNL     1       3.840   4.247  17.005  0.00  0.00    +0.000 A 
ATOM      7  C   UNL     1       5.069   4.874  17.054  0.00  0.00    +0.000 A 
ATOM      8  S   UNL     1       4.761   6.468  17.786  0.00  0.00    +0.000 S 
ATOM      9  C   UNL     1       3.224   5.936  18.587  0.00  0.00    +0.000 A 
ENDROOT
BRANCH   1  13
ATOM     10  C   UNL     1       0.176   9.877  22.454  0.00  0.00    +0.000 C 
ATOM     11  C   UNL     1       0.689   9.186  21.230  0.00  0.00    +0.000 A 
ATOM     12  N   UNL     1       0.963   7.853  21.217  0.00  0.00    +0.000 NA
ATOM     13  N   UNL     1       1.549   7.600  19.995  0.00  0.00    +0.000 N 
ATOM     14  C   UNL     1       1.490   8.803  19.223  0.00  0.00    +0.000 A 
ATOM     15  C   UNL     1       1.898   8.979  17.794  0.00  0.00    +0.000 C 
ATOM     16  C   UNL     1       0.979   9.835  20.009  0.00  0.00    +0.000 A 
BRANCH  16  17
ATOM     17  C   UNL     1       0.890  11.245  19.567  0.00  0.00    +0.000 C 
ATOM     18  O   UNL     1       0.024  11.627  18.778  0.00  0.00    +0.000 OA
ATOM     19  N   UNL     1       1.771  12.171  20.112  0.00  0.00    +0.000 N 
ATOM     20  H   UNL     1       2.467  11.860  20.764  0.00  0.00    +0.000 HD
BRANCH  19  21
ATOM     21  C   UNL     1       1.744  13.596  19.756  0.00  0.00    +0.000 C 
BRANCH  21  22
ATOM     22  C   UNL     1       2.284  14.536  20.845  0.00  0.00    +0.000 C 
BRANCH  22  23
ATOM     23  O   UNL     1       1.620  14.293  22.082  0.00  0.00    +0.000 OA
ATOM     24  H   UNL     1       0.687  14.125  21.859  0.00  0.00    +0.000 HD
ENDBRANCH  22  23
ENDBRANCH  21  22
ENDBRANCH  19  21
ENDBRANCH  16  17
ENDBRANCH   1  13
BRANCH   7  25
ATOM     25  C   UNL     1       6.378   4.315  16.411  0.00  0.00    +0.000 C 
BRANCH  25  26
ATOM     26  C   UNL     1       6.542   4.362  14.854  0.00  0.00    +0.000 A 
ATOM     27  C   UNL     1       7.626   4.995  14.227  0.00  0.00    +0.000 A 
ATOM     28  C   UNL     1       7.762   5.047  12.844  0.00  0.00    +0.000 A 
ATOM     29  C   UNL     1       6.803   4.453  11.991  0.00  0.00    +0.000 A 
ATOM     30  C   UNL     1       5.706   3.789  12.559  0.00  0.00    +0.000 A 
ATOM     31  C   UNL     1       5.582   3.755  13.975  0.00  0.00    +0.000 A 
BRANCH  30  32
ATOM     32  C   UNL     1       4.680   3.150  11.625  0.00  0.00    +0.000 C 
ATOM     33  F   UNL     1       5.086   1.952  11.106  0.00  0.00    +0.000 F 
ATOM     34  F   UNL     1       3.493   2.898  12.237  0.00  0.00    +0.000 F 
ATOM     35  F   UNL     1       4.387   3.931  10.546  0.00  0.00    +0.000 F 
ENDBRANCH  30  32
ENDBRANCH  25  26
ENDBRANCH   7  25
TORSDOF 8
ENDMDL
MODEL 3
REMARK VINA RESULT:      -8.2      1.062      1.249
REMARK  Name = 
REMARK  10 active torsions:
REMARK  status: ('A' for Active; 'I' for Inactive)
REMARK    1  A    between atoms: C_1  and  C_2
REMARK    2  A    between atoms: N_4  and  C_5
REMARK    3  A    between atoms: C_11  and  C_12
REMARK    4  A    between atoms: C_12  and  C_13
REMARK    5  A    between atoms: C_17  and  C_18
REMARK    6  A    between atoms: C_25  and  C_26
REMARK    7  A    between atoms: C_27  and  C_28
REMARK    8  A    between atoms: N_30  and  C_31
REMARK    9  A    between atoms: C_31  and  C_32
REMARK   10  A    between atoms: C_32  and  O_33
REMARK                            x       y       z     vdW  Elec       q    Type
REMARK                         _______ _______ _______ _____ _____    ______ ____
ROOT
ATOM      1  C   UNL     1       2.271   6.690  19.641  0.00  0.00    +0.000 A 
ATOM      2  C   UNL     1       1.991   5.704  20.608  0.00  0.00    +0.000 A 
ATOM      3  C   UNL     1       2.602   4.473  20.621  0.00  0.00    +0.000 A 
ATOM      4  C   UNL     1       2.554   3.877  19.393  0.00  0.00    +0.000 A 
ATOM      5  C   UNL     1       3.054   4.702  18.370  0.00  0.00    +0.000 A 
ATOM      6  C   UNL     1       3.658   4.273  17.153  0.00  0.00    +0.000 A 
ATOM      7  C   UNL     1       4.897   4.879  17.119  0.00  0.00    +0.000 A 
ATOM      8  S   UNL     1       4.628   6.541  17.702  0.00  0.00    +0.000 S 
ATOM      9  C   UNL     1       3.099   6.115  18.578  0.00  0.00    +0.000 A 
ENDROOT
BRANCH   1  13
ATOM     10  C   UNL     1       0.198  10.462  22.106  0.00  0.00    +0.000 C 
ATOM     11  C   UNL     1       0.671   9.646  20.944  0.00  0.00    +0.000 A 
ATOM     12  N   UNL     1       0.926   8.314  21.056  0.00  0.00    +0.000 NA
ATOM     13  N   UNL     1       1.478   7.933  19.851  0.00  0.00    +0.000 N 
ATOM     14  C   UNL     1       1.417   9.055  18.966  0.00  0.00    +0.000 A 
ATOM     15  C   UNL     1       1.792   9.084  17.518  0.00  0.00    +0.000 C 
ATOM     16  C   UNL     1       0.940  10.167  19.658  0.00  0.00    +0.000 A 
BRANCH  16  17
ATOM     17  C   UNL     1       0.860  11.528  19.082  0.00  0.00    +0.000 C 
ATOM     18  O   UNL     1      -0.218  12.050  18.790  0.00  0.00    +0.000 OA
ATOM     19  N   UNL     1       2.033  12.258  18.930  0.00  0.00    +0.000 N 
ATOM     20  H   UNL     1       2.908  11.836  19.181  0.00  0.00    +0.000 HD
BRANCH  19  21
ATOM     21  C   UNL     1       2.052  13.625  18.392  0.00  0.00    +0.000 C 
BRANCH  21  22
ATOM     22  C   UNL     1       2.005  14.731  19.457  0.00  0.00    +0.000 C 
BRANCH  22  23
ATOM     23  O   UNL     1       1.416  15.911  18.917  0.00  0.00    +0.000 OA
ATOM     24  H   UNL     1       0.454  15.767  18.940  0.00  0.00    +0.000 HD
ENDBRANCH  22  23
ENDBRANCH  21  22
ENDBRANCH  19  21
ENDBRANCH  16  17
ENDBRANCH   1  13
BRANCH   7  25
ATOM     25  C   UNL     1       6.185   4.240  16.510  0.00  0.00    +0.000 C 
BRANCH  25  26
ATOM     26  C   UNL     1       6.412   4.317  14.961  0.00  0.00    +0.000 A 
ATOM     27  C   UNL     1       7.518   4.965  14.390  0.00  0.00    +0.000 A 
ATOM     28  C   UNL     1       7.710   5.043  13.015  0.00  0.00    +0.000 A 
ATOM     29  C   UNL     1       6.790   4.461  12.113  0.00  0.00    +0.000 A 
ATOM     30  C   UNL     1       5.674   3.781  12.624  0.00  0.00    +0.000 A 
ATOM     31  C   UNL     1       5.492   3.721  14.032  0.00  0.00    +0.000 A 
BRANCH  30  32
ATOM     32  C   UNL     1       4.691   3.155  11.637  0.00  0.00    +0.000 C 
ATOM     33  F   UNL     1       4.475   3.918  10.523  0.00  0.00    +0.000 F 
ATOM     34  F   UNL     1       5.104   1.945  11.175  0.00  0.00    +0.000 F 
ATOM     35  F   UNL     1       3.455   2.948  12.178  0.00  0.00    +0.000 F 
ENDBRANCH  30  32
ENDBRANCH  25  26
ENDBRANCH   7  25
TORSDOF 8
ENDMDL
MODEL 4
REMARK VINA RESULT:      -8.0      1.223      1.403
REMARK  Name = 
REMARK  10 active torsions:
REMARK  status: ('A' for Active; 'I' for Inactive)
REMARK    1  A    between atoms: C_1  and  C_2
REMARK    2  A    between atoms: N_4  and  C_5
REMARK    3  A    between atoms: C_11  and  C_12
REMARK    4  A    between atoms: C_12  and  C_13
REMARK    5  A    between atoms: C_17  and  C_18
REMARK    6  A    between atoms: C_25  and  C_26
REMARK    7  A    between atoms: C_27  and  C_28
REMARK    8  A    between atoms: N_30  and  C_31
REMARK    9  A    between atoms: C_31  and  C_32
REMARK   10  A    between atoms: C_32  and  O_33
REMARK                            x       y       z     vdW  Elec       q    Type
REMARK                         _______ _______ _______ _____ _____    ______ ____
ROOT
ATOM      1  C   UNL     1       2.765   6.152  19.384  0.00  0.00    +0.000 A 
ATOM      2  C   UNL     1       2.538   4.973  20.123  0.00  0.00    +0.000 A 
ATOM      3  C   UNL     1       3.243   3.812  19.916  0.00  0.00    +0.000 A 
ATOM      4  C   UNL     1       3.272   3.474  18.592  0.00  0.00    +0.000 A 
ATOM      5  C   UNL     1       3.733   4.522  17.775  0.00  0.00    +0.000 A 
ATOM      6  C   UNL     1       4.399   4.391  16.523  0.00  0.00    +0.000 A 
ATOM      7  C   UNL     1       5.588   5.079  16.661  0.00  0.00    +0.000 A 
ATOM      8  S   UNL     1       5.175   6.565  17.552  0.00  0.00    +0.000 S 
ATOM      9  C   UNL     1       3.662   5.863  18.263  0.00  0.00    +0.000 A 
ENDROOT
BRANCH   1  13
ATOM     10  C   UNL     1       0.516   9.336  22.450  0.00  0.00    +0.000 C 
ATOM     11  C   UNL     1       0.982   8.731  21.164  0.00  0.00    +0.000 A 
ATOM     12  N   UNL     1       1.373   7.430  21.080  0.00  0.00    +0.000 NA
ATOM     13  N   UNL     1       1.872   7.267  19.806  0.00  0.00    +0.000 N 
ATOM     14  C   UNL     1       1.640   8.481  19.085  0.00  0.00    +0.000 A 
ATOM     15  C   UNL     1       1.906   8.734  17.635  0.00  0.00    +0.000 C 
ATOM     16  C   UNL     1       1.108   9.438  19.947  0.00  0.00    +0.000 A 
BRANCH  16  17
ATOM     17  C   UNL     1       0.855  10.846  19.565  0.00  0.00    +0.000 C 
ATOM     18  O   UNL     1      -0.177  11.188  18.985  0.00  0.00    +0.000 OA
ATOM     19  N   UNL     1       1.784  11.813  19.932  0.00  0.00    +0.000 N 
ATOM     20  H   UNL     1       2.617  11.533  20.416  0.00  0.00    +0.000 HD
BRANCH  19  21
ATOM     21  C   UNL     1       1.609  13.238  19.622  0.00  0.00    +0.000 C 
BRANCH  21  22
ATOM     22  C   UNL     1       2.890  13.954  19.169  0.00  0.00    +0.000 C 
BRANCH  22  23
ATOM     23  O   UNL     1       3.243  13.548  17.849  0.00  0.00    +0.000 OA
ATOM     24  H   UNL     1       2.637  12.822  17.620  0.00  0.00    +0.000 HD
ENDBRANCH  22  23
ENDBRANCH  21  22
ENDBRANCH  19  21
ENDBRANCH  16  17
ENDBRANCH   1  13
BRANCH   7  25
ATOM     25  C   UNL     1       6.937   4.670  15.989  0.00  0.00    +0.000 C 
BRANCH  25  26
ATOM     26  C   UNL     1       7.009   4.571  14.427  0.00  0.00    +0.000 A 
ATOM     27  C   UNL     1       7.696   5.509  13.641  0.00  0.00    +0.000 A 
ATOM     28  C   UNL     1       7.747   5.426  12.254  0.00  0.00    +0.000 A 
ATOM     29  C   UNL     1       7.105   4.376  11.559  0.00  0.00    +0.000 A 
ATOM     30  C   UNL     1       6.418   3.396  12.291  0.00  0.00    +0.000 A 
ATOM     31  C   UNL     1       6.370   3.504  13.707  0.00  0.00    +0.000 A 
BRANCH  30  32
ATOM     32  C   UNL     1       5.731   2.267  11.526  0.00  0.00    +0.000 C 
ATOM     33  F   UNL     1       5.613   1.111  12.248  0.00  0.00    +0.000 F 
ATOM     34  F   UNL     1       4.467   2.583  11.137  0.00  0.00    +0.000 F 
ATOM     35  F   UNL     1       6.396   1.915  10.388  0.00  0.00    +0.000 F 
ENDBRANCH  30  32
ENDBRANCH  25  26
ENDBRANCH   7  25
TORSDOF 8
ENDMDL
MODEL 5
REMARK VINA RESULT:      -8.0      4.085      6.484
REMARK  Name = 
REMARK  10 active torsions:
REMARK  status: ('A' for Active; 'I' for Inactive)
REMARK    1  A    between atoms: C_1  and  C_2
REMARK    2  A    between atoms: N_4  and  C_5
REMARK    3  A    between atoms: C_11  and  C_12
REMARK    4  A    between atoms: C_12  and  C_13
REMARK    5  A    between atoms: C_17  and  C_18
REMARK    6  A    between atoms: C_25  and  C_26
REMARK    7  A    between atoms: C_27  and  C_28
REMARK    8  A    between atoms: N_30  and  C_31
REMARK    9  A    between atoms: C_31  and  C_32
REMARK   10  A    between atoms: C_32  and  O_33
REMARK                            x       y       z     vdW  Elec       q    Type
REMARK                         _______ _______ _______ _____ _____    ______ ____
ROOT
ATOM      1  C   UNL     1       0.014  11.140  20.801  0.00  0.00    +0.000 A 
ATOM      2  C   UNL     1      -0.893  11.271  19.730  0.00  0.00    +0.000 A 
ATOM      3  C   UNL     1      -1.081  10.292  18.784  0.00  0.00    +0.000 A 
ATOM      4  C   UNL     1       0.108   9.855  18.272  0.00  0.00    +0.000 A 
ATOM      5  C   UNL     1       1.014   9.455  19.270  0.00  0.00    +0.000 A 
ATOM      6  C   UNL     1       2.048   8.483  19.138  0.00  0.00    +0.000 A 
ATOM      7  C   UNL     1       1.816   7.556  20.133  0.00  0.00    +0.000 A 
ATOM      8  S   UNL     1       1.359   8.506  21.569  0.00  0.00    +0.000 S 
ATOM      9  C   UNL     1       0.842   9.948  20.600  0.00  0.00    +0.000 A 
ENDROOT
BRANCH   1  13
ATOM     10  C   UNL     1       0.804  15.843  22.162  0.00  0.00    +0.000 C 
ATOM     11  C   UNL     1       0.280  14.443  22.220  0.00  0.00    +0.000 A 
ATOM     12  N   UNL     1       0.848  13.432  21.508  0.00  0.00    +0.000 NA
ATOM     13  N   UNL     1       0.026  12.339  21.684  0.00  0.00    +0.000 N 
ATOM     14  C   UNL     1      -0.979  12.695  22.638  0.00  0.00    +0.000 A 
ATOM     15  C   UNL     1      -2.021  11.797  23.228  0.00  0.00    +0.000 C 
ATOM     16  C   UNL     1      -0.855  14.045  22.961  0.00  0.00    +0.000 A 
BRANCH  16  17
ATOM     17  C   UNL     1      -1.805  14.778  23.829  0.00  0.00    +0.000 C 
ATOM     18  O   UNL     1      -1.546  15.036  25.006  0.00  0.00    +0.000 OA
ATOM     19  N   UNL     1      -2.992  15.242  23.275  0.00  0.00    +0.000 N 
ATOM     20  H   UNL     1      -3.195  15.042  22.313  0.00  0.00    +0.000 HD
BRANCH  19  21
ATOM     21  C   UNL     1      -3.985  16.001  24.047  0.00  0.00    +0.000 C 
BRANCH  21  22
ATOM     22  C   UNL     1      -5.446  15.677  23.703  0.00  0.00    +0.000 C 
BRANCH  22  23
ATOM     23  O   UNL     1      -5.853  14.478  24.357  0.00  0.00    +0.000 OA
ATOM     24  H   UNL     1      -6.825  14.512  24.400  0.00  0.00    +0.000 HD
ENDBRANCH  22  23
ENDBRANCH  21  22
ENDBRANCH  19  21
ENDBRANCH  16  17
ENDBRANCH   1  13
BRANCH   7  25
ATOM     25  C   UNL     1       2.097   6.025  20.007  0.00  0.00    +0.000 C 
BRANCH  25  26
ATOM     26  C   UNL     1       3.200   5.535  19.008  0.00  0.00    +0.000 A 
ATOM     27  C   UNL     1       2.896   4.860  17.817  0.00  0.00    +0.000 A 
ATOM     28  C   UNL     1       3.877   4.414  16.939  0.00  0.00    +0.000 A 
ATOM     29  C   UNL     1       5.250   4.626  17.206  0.00  0.00    +0.000 A 
ATOM     30  C   UNL     1       5.617   5.313  18.373  0.00  0.00    +0.000 A 
ATOM     31  C   UNL     1       4.598   5.752  19.261  0.00  0.00    +0.000 A 
BRANCH  30  32
ATOM     32  C   UNL     1       7.103   5.537  18.646  0.00  0.00    +0.000 C 
ATOM     33  F   UNL     1       7.583   6.707  18.126  0.00  0.00    +0.000 F 
ATOM     34  F   UNL     1       7.395   5.582  19.974  0.00  0.00    +0.000 F 
ATOM     35  F   UNL     1       7.893   4.557  18.122  0.00  0.00    +0.000 F 
ENDBRANCH  30  32
ENDBRANCH  25  26
ENDBRANCH   7  25
TORSDOF 8
ENDMDL
MODEL 6
REMARK VINA RESULT:      -8.0      6.600     11.388
REMARK  Name = 
REMARK  10 active torsions:
REMARK  status: ('A' for Active; 'I' for Inactive)
REMARK    1  A    between atoms: C_1  and  C_2
REMARK    2  A    between atoms: N_4  and  C_5
REMARK    3  A    between atoms: C_11  and  C_12
REMARK    4  A    between atoms: C_12  and  C_13
REMARK    5  A    between atoms: C_17  and  C_18
REMARK    6  A    between atoms: C_25  and  C_26
REMARK    7  A    between atoms: C_27  and  C_28
REMARK    8  A    between atoms: N_30  and  C_31
REMARK    9  A    between atoms: C_31  and  C_32
REMARK   10  A    between atoms: C_32  and  O_33
REMARK                            x       y       z     vdW  Elec       q    Type
REMARK                         _______ _______ _______ _____ _____    ______ ____
ROOT
ATOM      1  C   UNL     1       2.300   7.795  18.811  0.00  0.00    +0.000 A 
ATOM      2  C   UNL     1       2.443   8.726  17.762  0.00  0.00    +0.000 A 
ATOM      3  C   UNL     1       1.967  10.013  17.833  0.00  0.00    +0.000 A 
ATOM      4  C   UNL     1       0.663  10.042  18.241  0.00  0.00    +0.000 A 
ATOM      5  C   UNL     1       0.453   9.337  19.438  0.00  0.00    +0.000 A 
ATOM      6  C   UNL     1      -0.559   9.594  20.409  0.00  0.00    +0.000 A 
ATOM      7  C   UNL     1       0.110   9.783  21.601  0.00  0.00    +0.000 A 
ATOM      8  S   UNL     1       1.390   8.545  21.629  0.00  0.00    +0.000 S 
ATOM      9  C   UNL     1       1.396   8.337  19.828  0.00  0.00    +0.000 A 
ENDROOT
BRANCH   1  13
ATOM     10  C   UNL     1       2.488   3.040  17.412  0.00  0.00    +0.000 C 
ATOM     11  C   UNL     1       2.971   4.414  17.755  0.00  0.00    +0.000 A 
ATOM     12  N   UNL     1       2.223   5.276  18.496  0.00  0.00    +0.000 NA
ATOM     13  N   UNL     1       2.905   6.474  18.483  0.00  0.00    +0.000 N 
ATOM     14  C   UNL     1       4.156   6.260  17.823  0.00  0.00    +0.000 A 
ATOM     15  C   UNL     1       5.276   7.241  17.672  0.00  0.00    +0.000 C 
ATOM     16  C   UNL     1       4.199   4.961  17.319  0.00  0.00    +0.000 A 
BRANCH  16  17
ATOM     17  C   UNL     1       5.297   4.437  16.477  0.00  0.00    +0.000 C 
ATOM     18  O   UNL     1       6.339   3.996  16.965  0.00  0.00    +0.000 OA
ATOM     19  N   UNL     1       5.114   4.383  15.100  0.00  0.00    +0.000 N 
ATOM     20  H   UNL     1       4.259   4.730  14.706  0.00  0.00    +0.000 HD
BRANCH  19  21
ATOM     21  C   UNL     1       6.134   3.855  14.184  0.00  0.00    +0.000 C 
BRANCH  21  22
ATOM     22  C   UNL     1       7.109   4.909  13.639  0.00  0.00    +0.000 C 
BRANCH  22  23
ATOM     23  O   UNL     1       7.862   5.483  14.703  0.00  0.00    +0.000 OA
ATOM     24  H   UNL     1       7.873   6.443  14.539  0.00  0.00    +0.000 HD
ENDBRANCH  22  23
ENDBRANCH  21  22
ENDBRANCH  19  21
ENDBRANCH  16  17
ENDBRANCH   1  13
BRANCH   7  25
ATOM     25  C   UNL     1      -0.336  10.773  22.724  0.00  0.00    +0.000 C 
BRANCH  25  26
ATOM     26  C   UNL     1      -1.480  11.799  22.422  0.00  0.00    +0.000 A 
ATOM     27  C   UNL     1      -1.447  12.667  21.320  0.00  0.00    +0.000 A 
ATOM     28  C   UNL     1      -2.458  13.586  21.062  0.00  0.00    +0.000 A 
ATOM     29  C   UNL     1      -3.586  13.689  21.907  0.00  0.00    +0.000 A 
ATOM     30  C   UNL     1      -3.687  12.835  23.015  0.00  0.00    +0.000 A 
ATOM     31  C   UNL     1      -2.639  11.908  23.266  0.00  0.00    +0.000 A 
BRANCH  30  32
ATOM     32  C   UNL     1      -4.913  12.956  23.917  0.00  0.00    +0.000 C 
ATOM     33  F   UNL     1      -4.816  12.230  25.072  0.00  0.00    +0.000 F 
ATOM     34  F   UNL     1      -5.156  14.235  24.311  0.00  0.00    +0.000 F 
ATOM     35  F   UNL     1      -6.060  12.525  23.315  0.00  0.00    +0.000 F 
ENDBRANCH  30  32
ENDBRANCH  25  26
ENDBRANCH   7  25
TORSDOF 8
ENDMDL
MODEL 7
REMARK VINA RESULT:      -7.9      4.772      7.500
REMARK  Name = 
REMARK  10 active torsions:
REMARK  status: ('A' for Active; 'I' for Inactive)
REMARK    1  A    between atoms: C_1  and  C_2
REMARK    2  A    between atoms: N_4  and  C_5
REMARK    3  A    between atoms: C_11  and  C_12
REMARK    4  A    between atoms: C_12  and  C_13
REMARK    5  A    between atoms: C_17  and  C_18
REMARK    6  A    between atoms: C_25  and  C_26
REMARK    7  A    between atoms: C_27  and  C_28
REMARK    8  A    between atoms: N_30  and  C_31
REMARK    9  A    between atoms: C_31  and  C_32
REMARK   10  A    between atoms: C_32  and  O_33
REMARK                            x       y       z     vdW  Elec       q    Type
REMARK                         _______ _______ _______ _____ _____    ______ ____
ROOT
ATOM      1  C   UNL     1      -0.572  11.610  22.363  0.00  0.00    +0.000 A 
ATOM      2  C   UNL     1      -0.698  10.463  23.174  0.00  0.00    +0.000 A 
ATOM      3  C   UNL     1      -0.245   9.223  22.792  0.00  0.00    +0.000 A 
ATOM      4  C   UNL     1      -0.678   8.897  21.538  0.00  0.00    +0.000 A 
ATOM      5  C   UNL     1      -0.374   9.884  20.585  0.00  0.00    +0.000 A 
ATOM      6  C   UNL     1      -0.161   9.681  19.190  0.00  0.00    +0.000 A 
ATOM      7  C   UNL     1       1.086  10.210  18.925  0.00  0.00    +0.000 A 
ATOM      8  S   UNL     1       1.165  11.728  19.853  0.00  0.00    +0.000 S 
ATOM      9  C   UNL     1      -0.120  11.219  21.026  0.00  0.00    +0.000 A 
ENDROOT
BRANCH   1  13
ATOM     10  C   UNL     1      -0.748  16.279  24.025  0.00  0.00    +0.000 C 
ATOM     11  C   UNL     1      -1.231  14.920  23.630  0.00  0.00    +0.000 A 
ATOM     12  N   UNL     1      -0.388  13.856  23.534  0.00  0.00    +0.000 NA
ATOM     13  N   UNL     1      -1.140  12.826  23.009  0.00  0.00    +0.000 N 
ATOM     14  C   UNL     1      -2.496  13.272  22.924  0.00  0.00    +0.000 A 
ATOM     15  C   UNL     1      -3.689  12.461  22.523  0.00  0.00    +0.000 C 
ATOM     16  C   UNL     1      -2.566  14.617  23.280  0.00  0.00    +0.000 A 
BRANCH  16  17
ATOM     17  C   UNL     1      -3.798  15.434  23.190  0.00  0.00    +0.000 C 
ATOM     18  O   UNL     1      -4.046  16.133  22.207  0.00  0.00    +0.000 OA
ATOM     19  N   UNL     1      -4.727  15.354  24.221  0.00  0.00    +0.000 N 
ATOM     20  H   UNL     1      -4.529  14.773  25.015  0.00  0.00    +0.000 HD
BRANCH  19  21
ATOM     21  C   UNL     1      -5.990  16.105  24.211  0.00  0.00    +0.000 C 
BRANCH  21  22
ATOM     22  C   UNL     1      -7.199  15.314  23.690  0.00  0.00    +0.000 C 
BRANCH  22  23
ATOM     23  O   UNL     1      -7.497  14.232  24.568  0.00  0.00    +0.000 OA
ATOM     24  H   UNL     1      -8.428  14.002  24.406  0.00  0.00    +0.000 HD
ENDBRANCH  22  23
ENDBRANCH  21  22
ENDBRANCH  19  21
ENDBRANCH  16  17
ENDBRANCH   1  13
BRANCH   7  25
ATOM     25  C   UNL     1       2.091   9.637  17.875  0.00  0.00    +0.000 C 
BRANCH  25  26
ATOM     26  C   UNL     1       2.641   8.183  18.064  0.00  0.00    +0.000 A 
ATOM     27  C   UNL     1       3.737   7.689  17.340  0.00  0.00    +0.000 A 
ATOM     28  C   UNL     1       4.215   6.393  17.500  0.00  0.00    +0.000 A 
ATOM     29  C   UNL     1       3.616   5.499  18.416  0.00  0.00    +0.000 A 
ATOM     30  C   UNL     1       2.528   5.941  19.184  0.00  0.00    +0.000 A 
ATOM     31  C   UNL     1       2.049   7.266  18.999  0.00  0.00    +0.000 A 
BRANCH  30  32
ATOM     32  C   UNL     1       1.893   4.965  20.172  0.00  0.00    +0.000 C 
ATOM     33  F   UNL     1       2.771   4.479  21.102  0.00  0.00    +0.000 F 
ATOM     34  F   UNL     1       0.878   5.520  20.887  0.00  0.00    +0.000 F 
ATOM     35  F   UNL     1       1.364   3.863  19.565  0.00  0.00    +0.000 F 
ENDBRANCH  30  32
ENDBRANCH  25  26
ENDBRANCH   7  25
TORSDOF 8
ENDMDL
MODEL 8
REMARK VINA RESULT:      -7.8      1.688      2.281
REMARK  Name = 
REMARK  10 active torsions:
REMARK  status: ('A' for Active; 'I' for Inactive)
REMARK    1  A    between atoms: C_1  and  C_2
REMARK    2  A    between atoms: N_4  and  C_5
REMARK    3  A    between atoms: C_11  and  C_12
REMARK    4  A    between atoms: C_12  and  C_13
REMARK    5  A    between atoms: C_17  and  C_18
REMARK    6  A    between atoms: C_25  and  C_26
REMARK    7  A    between atoms: C_27  and  C_28
REMARK    8  A    between atoms: N_30  and  C_31
REMARK    9  A    between atoms: C_31  and  C_32
REMARK   10  A    between atoms: C_32  and  O_33
REMARK                            x       y       z     vdW  Elec       q    Type
REMARK                         _______ _______ _______ _____ _____    ______ ____
ROOT
ATOM      1  C   UNL     1       2.022   7.323  19.601  0.00  0.00    +0.000 A 
ATOM      2  C   UNL     1       1.582   6.478  20.640  0.00  0.00    +0.000 A 
ATOM      3  C   UNL     1       1.989   5.171  20.766  0.00  0.00    +0.000 A 
ATOM      4  C   UNL     1       1.852   4.490  19.589  0.00  0.00    +0.000 A 
ATOM      5  C   UNL     1       2.484   5.136  18.512  0.00  0.00    +0.000 A 
ATOM      6  C   UNL     1       3.018   4.515  17.345  0.00  0.00    +0.000 A 
ATOM      7  C   UNL     1       4.339   4.912  17.286  0.00  0.00    +0.000 A 
ATOM      8  S   UNL     1       4.336   6.638  17.726  0.00  0.00    +0.000 S 
ATOM      9  C   UNL     1       2.754   6.535  18.605  0.00  0.00    +0.000 A 
ENDROOT
BRANCH   1  13
ATOM     10  C   UNL     1      -0.774  11.225  18.356  0.00  0.00    +0.000 C 
ATOM     11  C   UNL     1       0.111  10.351  19.187  0.00  0.00    +0.000 A 
ATOM     12  N   UNL     1       0.886   9.378  18.635  0.00  0.00    +0.000 NA
ATOM     13  N   UNL     1       1.438   8.689  19.694  0.00  0.00    +0.000 N 
ATOM     14  C   UNL     1       1.074   9.370  20.898  0.00  0.00    +0.000 A 
ATOM     15  C   UNL     1       1.535   9.057  22.287  0.00  0.00    +0.000 C 
ATOM     16  C   UNL     1       0.197  10.410  20.596  0.00  0.00    +0.000 A 
BRANCH  16  17
ATOM     17  C   UNL     1      -0.474  11.249  21.615  0.00  0.00    +0.000 C 
ATOM     18  O   UNL     1      -1.209  10.765  22.477  0.00  0.00    +0.000 OA
ATOM     19  N   UNL     1      -0.210  12.614  21.634  0.00  0.00    +0.000 N 
ATOM     20  H   UNL     1       0.400  13.004  20.939  0.00  0.00    +0.000 HD
BRANCH  19  21
ATOM     21  C   UNL     1      -0.806  13.524  22.622  0.00  0.00    +0.000 C 
BRANCH  21  22
ATOM     22  C   UNL     1      -0.160  14.916  22.679  0.00  0.00    +0.000 C 
BRANCH  22  23
ATOM     23  O   UNL     1      -0.328  15.485  23.975  0.00  0.00    +0.000 OA
ATOM     24  H   UNL     1       0.193  14.930  24.582  0.00  0.00    +0.000 HD
ENDBRANCH  22  23
ENDBRANCH  21  22
ENDBRANCH  19  21
ENDBRANCH  16  17
ENDBRANCH   1  13
BRANCH   7  25
ATOM     25  C   UNL     1       5.511   4.027  16.755  0.00  0.00    +0.000 C 
BRANCH  25  26
ATOM     26  C   UNL     1       5.957   4.173  15.260  0.00  0.00    +0.000 A 
ATOM     27  C   UNL     1       7.137   4.832  14.884  0.00  0.00    +0.000 A 
ATOM     28  C   UNL     1       7.523   4.971  13.556  0.00  0.00    +0.000 A 
ATOM     29  C   UNL     1       6.738   4.444  12.505  0.00  0.00    +0.000 A 
ATOM     30  C   UNL     1       5.556   3.757  12.819  0.00  0.00    +0.000 A 
ATOM     31  C   UNL     1       5.174   3.633  14.183  0.00  0.00    +0.000 A 
BRANCH  30  32
ATOM     32  C   UNL     1       4.719   3.190  11.674  0.00  0.00    +0.000 C 
ATOM     33  F   UNL     1       3.416   2.952  12.015  0.00  0.00    +0.000 F 
ATOM     34  F   UNL     1       4.667   4.018  10.596  0.00  0.00    +0.000 F 
ATOM     35  F   UNL     1       5.194   1.999  11.208  0.00  0.00    +0.000 F 
ENDBRANCH  30  32
ENDBRANCH  25  26
ENDBRANCH   7  25
TORSDOF 8
ENDMDL
MODEL 9
REMARK VINA RESULT:      -7.8      6.637     11.476
REMARK  Name = 
REMARK  10 active torsions:
REMARK  status: ('A' for Active; 'I' for Inactive)
REMARK    1  A    between atoms: C_1  and  C_2
REMARK    2  A    between atoms: N_4  and  C_5
REMARK    3  A    between atoms: C_11  and  C_12
REMARK    4  A    between atoms: C_12  and  C_13
REMARK    5  A    between atoms: C_17  and  C_18
REMARK    6  A    between atoms: C_25  and  C_26
REMARK    7  A    between atoms: C_27  and  C_28
REMARK    8  A    between atoms: N_30  and  C_31
REMARK    9  A    between atoms: C_31  and  C_32
REMARK   10  A    between atoms: C_32  and  O_33
REMARK                            x       y       z     vdW  Elec       q    Type
REMARK                         _______ _______ _______ _____ _____    ______ ____
ROOT
ATOM      1  C   UNL     1       2.379   7.678  18.719  0.00  0.00    +0.000 A 
ATOM      2  C   UNL     1       2.508   8.624  17.681  0.00  0.00    +0.000 A 
ATOM      3  C   UNL     1       2.030   9.909  17.775  0.00  0.00    +0.000 A 
ATOM      4  C   UNL     1       0.730   9.929  18.198  0.00  0.00    +0.000 A 
ATOM      5  C   UNL     1       0.536   9.207  19.389  0.00  0.00    +0.000 A 
ATOM      6  C   UNL     1      -0.465   9.448  20.374  0.00  0.00    +0.000 A 
ATOM      7  C   UNL     1       0.217   9.623  21.561  0.00  0.00    +0.000 A 
ATOM      8  S   UNL     1       1.500   8.388  21.558  0.00  0.00    +0.000 S 
ATOM      9  C   UNL     1       1.486   8.205  19.755  0.00  0.00    +0.000 A 
ENDROOT
BRANCH   1  13
ATOM     10  C   UNL     1       2.563   2.944  17.253  0.00  0.00    +0.000 C 
ATOM     11  C   UNL     1       3.047   4.313  17.610  0.00  0.00    +0.000 A 
ATOM     12  N   UNL     1       2.304   5.164  18.370  0.00  0.00    +0.000 NA
ATOM     13  N   UNL     1       2.984   6.364  18.367  0.00  0.00    +0.000 N 
ATOM     14  C   UNL     1       4.228   6.161  17.692  0.00  0.00    +0.000 A 
ATOM     15  C   UNL     1       5.344   7.147  17.543  0.00  0.00    +0.000 C 
ATOM     16  C   UNL     1       4.268   4.870  17.169  0.00  0.00    +0.000 A 
BRANCH  16  17
ATOM     17  C   UNL     1       5.359   4.360  16.308  0.00  0.00    +0.000 C 
ATOM     18  O   UNL     1       6.349   3.794  16.777  0.00  0.00    +0.000 OA
ATOM     19  N   UNL     1       5.226   4.467  14.929  0.00  0.00    +0.000 N 
ATOM     20  H   UNL     1       4.413   4.916  14.549  0.00  0.00    +0.000 HD
BRANCH  19  21
ATOM     21  C   UNL     1       6.242   3.967  13.992  0.00  0.00    +0.000 C 
BRANCH  21  22
ATOM     22  C   UNL     1       5.677   3.387  12.688  0.00  0.00    +0.000 C 
BRANCH  22  23
ATOM     23  O   UNL     1       6.688   2.666  11.989  0.00  0.00    +0.000 OA
ATOM     24  H   UNL     1       6.976   1.956  12.589  0.00  0.00    +0.000 HD
ENDBRANCH  22  23
ENDBRANCH  21  22
ENDBRANCH  19  21
ENDBRANCH  16  17
ENDBRANCH   1  13
BRANCH   7  25
ATOM     25  C   UNL     1      -0.218  10.597  22.702  0.00  0.00    +0.000 C 
BRANCH  25  26
ATOM     26  C   UNL     1      -1.357  11.636  22.422  0.00  0.00    +0.000 A 
ATOM     27  C   UNL     1      -1.344  12.489  21.308  0.00  0.00    +0.000 A 
ATOM     28  C   UNL     1      -2.349  13.419  21.068  0.00  0.00    +0.000 A 
ATOM     29  C   UNL     1      -3.450  13.551  21.946  0.00  0.00    +0.000 A 
ATOM     30  C   UNL     1      -3.529  12.712  23.068  0.00  0.00    +0.000 A 
ATOM     31  C   UNL     1      -2.487  11.773  23.299  0.00  0.00    +0.000 A 
BRANCH  30  32
ATOM     32  C   UNL     1      -4.725  12.863  24.005  0.00  0.00    +0.000 C 
ATOM     33  F   UNL     1      -5.931  12.679  23.386  0.00  0.00    +0.000 F 
ATOM     34  F   UNL     1      -4.706  11.975  25.035  0.00  0.00    +0.000 F 
ATOM     35  F   UNL     1      -4.798  14.099  24.577  0.00  0.00    +0.000 F 
ENDBRANCH  30  32
ENDBRANCH  25  26
ENDBRANCH   7  25
TORSDOF 8
ENDMDL
