MODEL 1
REMARK VINA RESULT:      -6.8      0.000      0.000
REMARK  Name = 
REMARK  1 active torsions:
REMARK  status: ('A' for Active; 'I' for Inactive)
REMARK    1  A    between atoms: C_2  and  C_14
REMARK                            x       y       z     vdW  Elec       q    Type
REMARK                         _______ _______ _______ _____ _____    ______ ____
ROOT
ATOM      1  O   UNL     1       4.156   3.688  17.803  0.00  0.00    +0.000 OA
ATOM      2  C   UNL     1       4.684   4.458  16.989  0.00  0.00    +0.000 C 
ATOM      3  N   UNL     1       4.465   5.820  16.938  0.00  0.00    +0.000 N 
ATOM      4  C   UNL     1       3.673   6.513  17.827  0.00  0.00    +0.000 A 
ATOM      5  N   UNL     1       3.195   7.708  17.567  0.00  0.00    +0.000 NA
ATOM      6  C   UNL     1       2.347   8.096  18.598  0.00  0.00    +0.000 A 
ATOM      7  C   UNL     1       1.552   9.260  18.640  0.00  0.00    +0.000 A 
ATOM      8  C   UNL     1       0.725   9.498  19.747  0.00  0.00    +0.000 A 
ATOM      9  C   UNL     1       0.697   8.601  20.811  0.00  0.00    +0.000 A 
ATOM     10 CL   UNL     1      -0.322   8.914  22.164  0.00  0.00    +0.000 Cl
ATOM     11  C   UNL     1       1.476   7.447  20.803  0.00  0.00    +0.000 A 
ATOM     12  C   UNL     1       2.286   7.217  19.681  0.00  0.00    +0.000 A 
ATOM     13  S   UNL     1       3.325   5.893  19.375  0.00  0.00    +0.000 S 
ATOM     14  H   UNL     1       4.743   6.348  16.122  0.00  0.00    +0.000 HD
ENDROOT
BRANCH   2  15
ATOM     15  C   UNL     1       5.637   3.902  15.904  0.00  0.00    +0.000 C 
ATOM     16  C   UNL     1       5.354   4.392  14.455  0.00  0.00    +0.000 C 
ATOM     17  C   UNL     1       6.870   4.544  14.253  0.00  0.00    +0.000 C 
ATOM     18  C   UNL     1       7.017   4.615  15.779  0.00  0.00    +0.000 C 
ENDBRANCH   2  15
TORSDOF 1
ENDMDL
MODEL 2
REMARK VINA RESULT:      -6.7      1.946      2.710
REMARK  Name = 
REMARK  1 active torsions:
REMARK  status: ('A' for Active; 'I' for Inactive)
REMARK    1  A    between atoms: C_2  and  C_14
REMARK                            x       y       z     vdW  Elec       q    Type
REMARK                         _______ _______ _______ _____ _____    ______ ____
ROOT
ATOM      1  O   UNL     1       6.316   6.172  15.588  0.00  0.00    +0.000 OA
ATOM      2  C   UNL     1       5.963   5.006  15.360  0.00  0.00    +0.000 C 
ATOM      3  N   UNL     1       4.951   4.347  16.028  0.00  0.00    +0.000 N 
ATOM      4  C   UNL     1       4.158   4.921  16.997  0.00  0.00    +0.000 A 
ATOM      5  N   UNL     1       3.461   4.210  17.854  0.00  0.00    +0.000 NA
ATOM      6  C   UNL     1       2.858   5.063  18.771  0.00  0.00    +0.000 A 
ATOM      7  C   UNL     1       2.120   4.684  19.913  0.00  0.00    +0.000 A 
ATOM      8  C   UNL     1       1.593   5.670  20.759  0.00  0.00    +0.000 A 
ATOM      9  C   UNL     1       1.779   7.018  20.471  0.00  0.00    +0.000 A 
ATOM     10 CL   UNL     1       1.119   8.215  21.519  0.00  0.00    +0.000 Cl
ATOM     11  C   UNL     1       2.495   7.424  19.347  0.00  0.00    +0.000 A 
ATOM     12  C   UNL     1       3.028   6.426  18.520  0.00  0.00    +0.000 A 
ATOM     13  S   UNL     1       3.960   6.610  17.098  0.00  0.00    +0.000 S 
ATOM     14  H   UNL     1       4.864   3.342  15.954  0.00  0.00    +0.000 HD
ENDROOT
BRANCH   2  15
ATOM     15  C   UNL     1       6.700   4.170  14.287  0.00  0.00    +0.000 C 
ATOM     16  C   UNL     1       5.808   3.640  13.128  0.00  0.00    +0.000 C 
ATOM     17  C   UNL     1       6.936   4.002  12.149  0.00  0.00    +0.000 C 
ATOM     18  C   UNL     1       7.471   4.980  13.204  0.00  0.00    +0.000 C 
ENDBRANCH   2  15
TORSDOF 1
ENDMDL
MODEL 3
REMARK VINA RESULT:      -6.5      4.368      7.149
REMARK  Name = 
REMARK  1 active torsions:
REMARK  status: ('A' for Active; 'I' for Inactive)
REMARK    1  A    between atoms: C_2  and  C_14
REMARK                            x       y       z     vdW  Elec       q    Type
REMARK                         _______ _______ _______ _____ _____    ______ ____
ROOT
ATOM      1  O   UNL     1       4.042   5.937  19.751  0.00  0.00    +0.000 OA
ATOM      2  C   UNL     1       3.435   4.860  19.665  0.00  0.00    +0.000 C 
ATOM      3  N   UNL     1       3.567   3.965  18.623  0.00  0.00    +0.000 N 
ATOM      4  C   UNL     1       4.439   4.124  17.568  0.00  0.00    +0.000 A 
ATOM      5  N   UNL     1       4.306   3.472  16.436  0.00  0.00    +0.000 NA
ATOM      6  C   UNL     1       5.262   3.925  15.533  0.00  0.00    +0.000 A 
ATOM      7  C   UNL     1       5.378   3.558  14.176  0.00  0.00    +0.000 A 
ATOM      8  C   UNL     1       6.387   4.125  13.386  0.00  0.00    +0.000 A 
ATOM      9  C   UNL     1       7.285   5.034  13.936  0.00  0.00    +0.000 A 
ATOM     10 CL   UNL     1       8.522   5.716  12.950  0.00  0.00    +0.000 Cl
ATOM     11  C   UNL     1       7.202   5.411  15.275  0.00  0.00    +0.000 A 
ATOM     12  C   UNL     1       6.178   4.846  16.047  0.00  0.00    +0.000 A 
ATOM     13  S   UNL     1       5.811   5.125  17.694  0.00  0.00    +0.000 S 
ATOM     14  H   UNL     1       2.888   3.226  18.500  0.00  0.00    +0.000 HD
ENDROOT
BRANCH   2  15
ATOM     15  C   UNL     1       2.415   4.457  20.756  0.00  0.00    +0.000 C 
ATOM     16  C   UNL     1       1.058   3.910  20.229  0.00  0.00    +0.000 C 
ATOM     17  C   UNL     1       1.108   2.838  21.327  0.00  0.00    +0.000 C 
ATOM     18  C   UNL     1       2.626   3.055  21.402  0.00  0.00    +0.000 C 
ENDBRANCH   2  15
TORSDOF 1
ENDMDL
MODEL 4
REMARK VINA RESULT:      -6.3      3.475      7.259
REMARK  Name = 
REMARK  1 active torsions:
REMARK  status: ('A' for Active; 'I' for Inactive)
REMARK    1  A    between atoms: C_2  and  C_14
REMARK                            x       y       z     vdW  Elec       q    Type
REMARK                         _______ _______ _______ _____ _____    ______ ____
ROOT
ATOM      1  O   UNL     1       1.646   8.724  19.069  0.00  0.00    +0.000 OA
ATOM      2  C   UNL     1       1.639   7.929  20.020  0.00  0.00    +0.000 C 
ATOM      3  N   UNL     1       2.319   6.730  20.048  0.00  0.00    +0.000 N 
ATOM      4  C   UNL     1       3.148   6.283  19.042  0.00  0.00    +0.000 A 
ATOM      5  N   UNL     1       3.496   5.023  18.917  0.00  0.00    +0.000 NA
ATOM      6  C   UNL     1       4.238   4.867  17.753  0.00  0.00    +0.000 A 
ATOM      7  C   UNL     1       4.700   3.651  17.206  0.00  0.00    +0.000 A 
ATOM      8  C   UNL     1       5.419   3.658  16.003  0.00  0.00    +0.000 A 
ATOM      9  C   UNL     1       5.696   4.857  15.354  0.00  0.00    +0.000 A 
ATOM     10 CL   UNL     1       6.587   4.845  13.880  0.00  0.00    +0.000 Cl
ATOM     11  C   UNL     1       5.262   6.075  15.873  0.00  0.00    +0.000 A 
ATOM     12  C   UNL     1       4.530   6.049  17.069  0.00  0.00    +0.000 A 
ATOM     13  S   UNL     1       3.853   7.363  17.928  0.00  0.00    +0.000 S 
ATOM     14  H   UNL     1       2.094   6.034  20.746  0.00  0.00    +0.000 HD
ENDROOT
BRANCH   2  15
ATOM     15  C   UNL     1       0.790   8.236  21.277  0.00  0.00    +0.000 C 
ATOM     16  C   UNL     1       1.445   9.207  22.301  0.00  0.00    +0.000 C 
ATOM     17  C   UNL     1       0.079   9.889  22.469  0.00  0.00    +0.000 C 
ATOM     18  C   UNL     1      -0.321   9.314  21.102  0.00  0.00    +0.000 C 
ENDBRANCH   2  15
TORSDOF 1
ENDMDL
MODEL 5
REMARK VINA RESULT:      -6.2      1.812      2.280
REMARK  Name = 
REMARK  1 active torsions:
REMARK  status: ('A' for Active; 'I' for Inactive)
REMARK    1  A    between atoms: C_2  and  C_14
REMARK                            x       y       z     vdW  Elec       q    Type
REMARK                         _______ _______ _______ _____ _____    ______ ____
ROOT
ATOM      1  O   UNL     1       4.561   7.116  16.544  0.00  0.00    +0.000 OA
ATOM      2  C   UNL     1       4.350   6.037  17.116  0.00  0.00    +0.000 C 
ATOM      3  N   UNL     1       3.510   5.871  18.198  0.00  0.00    +0.000 N 
ATOM      4  C   UNL     1       2.747   6.876  18.750  0.00  0.00    +0.000 A 
ATOM      5  N   UNL     1       2.245   6.800  19.960  0.00  0.00    +0.000 NA
ATOM      6  C   UNL     1       1.625   8.004  20.275  0.00  0.00    +0.000 A 
ATOM      7  C   UNL     1       1.065   8.363  21.519  0.00  0.00    +0.000 A 
ATOM      8  C   UNL     1       0.495   9.633  21.685  0.00  0.00    +0.000 A 
ATOM      9  C   UNL     1       0.464  10.535  20.627  0.00  0.00    +0.000 A 
ATOM     10 CL   UNL     1      -0.246  12.089  20.849  0.00  0.00    +0.000 Cl
ATOM     11  C   UNL     1       1.001  10.208  19.383  0.00  0.00    +0.000 A 
ATOM     12  C   UNL     1       1.580   8.940  19.239  0.00  0.00    +0.000 A 
ATOM     13  S   UNL     1       2.331   8.266  17.858  0.00  0.00    +0.000 S 
ATOM     14  H   UNL     1       3.556   5.026  18.751  0.00  0.00    +0.000 HD
ENDROOT
BRANCH   2  15
ATOM     15  C   UNL     1       5.084   4.757  16.648  0.00  0.00    +0.000 C 
ATOM     16  C   UNL     1       5.524   4.750  15.155  0.00  0.00    +0.000 C 
ATOM     17  C   UNL     1       6.855   4.120  15.592  0.00  0.00    +0.000 C 
ATOM     18  C   UNL     1       6.599   4.674  17.001  0.00  0.00    +0.000 C 
ENDBRANCH   2  15
TORSDOF 1
ENDMDL
MODEL 6
REMARK VINA RESULT:      -6.1      3.935      6.901
REMARK  Name = 
REMARK  1 active torsions:
REMARK  status: ('A' for Active; 'I' for Inactive)
REMARK    1  A    between atoms: C_2  and  C_14
REMARK                            x       y       z     vdW  Elec       q    Type
REMARK                         _______ _______ _______ _____ _____    ______ ____
ROOT
ATOM      1  O   UNL     1       1.703   9.108  17.700  0.00  0.00    +0.000 OA
ATOM      2  C   UNL     1       1.461   9.415  18.876  0.00  0.00    +0.000 C 
ATOM      3  N   UNL     1       1.527   8.545  19.945  0.00  0.00    +0.000 N 
ATOM      4  C   UNL     1       1.930   7.231  19.853  0.00  0.00    +0.000 A 
ATOM      5  N   UNL     1       1.655   6.339  20.777  0.00  0.00    +0.000 NA
ATOM      6  C   UNL     1       2.091   5.090  20.351  0.00  0.00    +0.000 A 
ATOM      7  C   UNL     1       1.881   3.858  21.006  0.00  0.00    +0.000 A 
ATOM      8  C   UNL     1       2.366   2.674  20.431  0.00  0.00    +0.000 A 
ATOM      9  C   UNL     1       3.066   2.709  19.230  0.00  0.00    +0.000 A 
ATOM     10 CL   UNL     1       3.659   1.245  18.543  0.00  0.00    +0.000 Cl
ATOM     11  C   UNL     1       3.297   3.911  18.564  0.00  0.00    +0.000 A 
ATOM     12  C   UNL     1       2.792   5.083  19.144  0.00  0.00    +0.000 A 
ATOM     13  S   UNL     1       2.895   6.687  18.559  0.00  0.00    +0.000 S 
ATOM     14  H   UNL     1       1.105   8.794  20.830  0.00  0.00    +0.000 HD
ENDROOT
BRANCH   2  15
ATOM     15  C   UNL     1       1.011  10.854  19.223  0.00  0.00    +0.000 C 
ATOM     16  C   UNL     1      -0.502  11.148  19.010  0.00  0.00    +0.000 C 
ATOM     17  C   UNL     1      -0.497  11.927  20.334  0.00  0.00    +0.000 C 
ATOM     18  C   UNL     1       0.761  11.144  20.734  0.00  0.00    +0.000 C 
ENDBRANCH   2  15
TORSDOF 1
ENDMDL
MODEL 7
REMARK VINA RESULT:      -6.1      3.896      6.711
REMARK  Name = 
REMARK  1 active torsions:
REMARK  status: ('A' for Active; 'I' for Inactive)
REMARK    1  A    between atoms: C_2  and  C_14
REMARK                            x       y       z     vdW  Elec       q    Type
REMARK                         _______ _______ _______ _____ _____    ______ ____
ROOT
ATOM      1  O   UNL     1       1.607   9.317  17.399  0.00  0.00    +0.000 OA
ATOM      2  C   UNL     1       1.422   9.686  18.568  0.00  0.00    +0.000 C 
ATOM      3  N   UNL     1       1.535   8.873  19.676  0.00  0.00    +0.000 N 
ATOM      4  C   UNL     1       1.927   7.553  19.635  0.00  0.00    +0.000 A 
ATOM      5  N   UNL     1       1.692   6.713  20.616  0.00  0.00    +0.000 NA
ATOM      6  C   UNL     1       2.103   5.440  20.237  0.00  0.00    +0.000 A 
ATOM      7  C   UNL     1       1.919   4.245  20.964  0.00  0.00    +0.000 A 
ATOM      8  C   UNL     1       2.371   3.030  20.431  0.00  0.00    +0.000 A 
ATOM      9  C   UNL     1       3.014   2.998  19.198  0.00  0.00    +0.000 A 
ATOM     10 CL   UNL     1       3.567   1.495  18.562  0.00  0.00    +0.000 Cl
ATOM     11  C   UNL     1       3.218   4.161  18.459  0.00  0.00    +0.000 A 
ATOM     12  C   UNL     1       2.746   5.365  19.000  0.00  0.00    +0.000 A 
ATOM     13  S   UNL     1       2.828   6.935  18.327  0.00  0.00    +0.000 S 
ATOM     14  H   UNL     1       1.156   9.171  20.565  0.00  0.00    +0.000 HD
ENDROOT
BRANCH   2  15
ATOM     15  C   UNL     1       0.995  11.144  18.859  0.00  0.00    +0.000 C 
ATOM     16  C   UNL     1       1.028  11.561  20.358  0.00  0.00    +0.000 C 
ATOM     17  C   UNL     1       1.633  12.906  19.930  0.00  0.00    +0.000 C 
ATOM     18  C   UNL     1       2.085  12.233  18.626  0.00  0.00    +0.000 C 
ENDBRANCH   2  15
TORSDOF 1
ENDMDL
MODEL 8
REMARK VINA RESULT:      -6.1      3.475      7.206
REMARK  Name = 
REMARK  1 active torsions:
REMARK  status: ('A' for Active; 'I' for Inactive)
REMARK    1  A    between atoms: C_2  and  C_14
REMARK                            x       y       z     vdW  Elec       q    Type
REMARK                         _______ _______ _______ _____ _____    ______ ____
ROOT
ATOM      1  O   UNL     1       1.208   9.420  18.546  0.00  0.00    +0.000 OA
ATOM      2  C   UNL     1       1.106   8.846  19.640  0.00  0.00    +0.000 C 
ATOM      3  N   UNL     1       1.725   7.657  19.964  0.00  0.00    +0.000 N 
ATOM      4  C   UNL     1       2.588   6.978  19.133  0.00  0.00    +0.000 A 
ATOM      5  N   UNL     1       2.880   5.708  19.299  0.00  0.00    +0.000 NA
ATOM      6  C   UNL     1       3.681   5.282  18.245  0.00  0.00    +0.000 A 
ATOM      7  C   UNL     1       4.112   3.962  17.998  0.00  0.00    +0.000 A 
ATOM      8  C   UNL     1       4.900   3.687  16.871  0.00  0.00    +0.000 A 
ATOM      9  C   UNL     1       5.273   4.711  16.006  0.00  0.00    +0.000 A 
ATOM     10 CL   UNL     1       6.246   4.354  14.630  0.00  0.00    +0.000 Cl
ATOM     11  C   UNL     1       4.869   6.026  16.227  0.00  0.00    +0.000 A 
ATOM     12  C   UNL     1       4.069   6.280  17.350  0.00  0.00    +0.000 A 
ATOM     13  S   UNL     1       3.408   7.770  17.867  0.00  0.00    +0.000 S 
ATOM     14  H   UNL     1       1.426   7.134  20.777  0.00  0.00    +0.000 HD
ENDROOT
BRANCH   2  15
ATOM     15  C   UNL     1       0.203   9.443  20.745  0.00  0.00    +0.000 C 
ATOM     16  C   UNL     1      -0.408   8.411  21.735  0.00  0.00    +0.000 C 
ATOM     17  C   UNL     1      -0.109   9.391  22.880  0.00  0.00    +0.000 C 
ATOM     18  C   UNL     1       0.942  10.050  21.975  0.00  0.00    +0.000 C 
ENDBRANCH   2  15
TORSDOF 1
ENDMDL
MODEL 9
REMARK VINA RESULT:      -6.1      4.644      8.650
REMARK  Name = 
REMARK  1 active torsions:
REMARK  status: ('A' for Active; 'I' for Inactive)
REMARK    1  A    between atoms: C_2  and  C_14
REMARK                            x       y       z     vdW  Elec       q    Type
REMARK                         _______ _______ _______ _____ _____    ______ ____
ROOT
ATOM      1  O   UNL     1      -0.246  10.585  23.386  0.00  0.00    +0.000 OA
ATOM      2  C   UNL     1      -0.783  11.311  22.537  0.00  0.00    +0.000 C 
ATOM      3  N   UNL     1      -0.614  11.185  21.174  0.00  0.00    +0.000 N 
ATOM      4  C   UNL     1       0.128  10.193  20.572  0.00  0.00    +0.000 A 
ATOM      5  N   UNL     1       0.566  10.286  19.337  0.00  0.00    +0.000 NA
ATOM      6  C   UNL     1       1.374   9.191  19.054  0.00  0.00    +0.000 A 
ATOM      7  C   UNL     1       2.123   8.979  17.878  0.00  0.00    +0.000 A 
ATOM      8  C   UNL     1       2.912   7.827  17.754  0.00  0.00    +0.000 A 
ATOM      9  C   UNL     1       2.948   6.884  18.776  0.00  0.00    +0.000 A 
ATOM     10 CL   UNL     1       3.920   5.473  18.602  0.00  0.00    +0.000 Cl
ATOM     11  C   UNL     1       2.214   7.060  19.947  0.00  0.00    +0.000 A 
ATOM     12  C   UNL     1       1.442   8.225  20.061  0.00  0.00    +0.000 A 
ATOM     13  S   UNL     1       0.462   8.725  21.370  0.00  0.00    +0.000 S 
ATOM     14  H   UNL     1      -0.892  11.936  20.556  0.00  0.00    +0.000 HD
ENDROOT
BRANCH   2  15
ATOM     15  C   UNL     1      -1.687  12.485  22.984  0.00  0.00    +0.000 C 
ATOM     16  C   UNL     1      -2.523  13.149  21.853  0.00  0.00    +0.000 C 
ATOM     17  C   UNL     1      -3.714  13.209  22.822  0.00  0.00    +0.000 C 
ATOM     18  C   UNL     1      -3.047  12.088  23.632  0.00  0.00    +0.000 C 
ENDBRANCH   2  15
TORSDOF 1
ENDMDL
