MODEL 1
REMARK VINA RESULT:      -8.0      0.000      0.000
REMARK  Name = 
REMARK  9 active torsions:
REMARK  status: ('A' for Active; 'I' for Inactive)
REMARK    1  A    between atoms: C_1  and  C_2
REMARK    2  A    between atoms: C_6  and  C_7
REMARK    3  A    between atoms: C_8  and  N_9
REMARK    4  A    between atoms: C_10  and  C_12
REMARK    5  A    between atoms: C_12  and  S_13
REMARK    6  A    between atoms: S_13  and  C_14
REMARK    7  A    between atoms: C_14  and  C_15
REMARK    8  A    between atoms: N_18  and  C_19
REMARK    9  A    between atoms: C_25  and  N_26
REMARK                            x       y       z     vdW  Elec       q    Type
REMARK                         _______ _______ _______ _____ _____    ______ ____
ROOT
ATOM      1  C   UNL     1       4.827   3.921  18.215  0.00  0.00    +0.000 A 
ATOM      2  C   UNL     1       4.078   3.061  17.372  0.00  0.00    +0.000 A 
ATOM      3  N   UNL     1       4.368   3.182  16.081  0.00  0.00    +0.000 NA
ATOM      4  N   UNL     1       5.423   4.034  16.042  0.00  0.00    +0.000 N 
ATOM      5  C   UNL     1       5.659   4.578  17.305  0.00  0.00    +0.000 A 
ENDROOT
BRANCH   4   6
ATOM      6  C   UNL     1       6.127   4.189  14.809  0.00  0.00    +0.000 A 
ATOM      7  C   UNL     1       5.668   3.508  13.671  0.00  0.00    +0.000 A 
ATOM      8  C   UNL     1       6.257   3.747  12.426  0.00  0.00    +0.000 A 
ATOM      9  C   UNL     1       7.320   4.643  12.313  0.00  0.00    +0.000 A 
ATOM     10  C   UNL     1       7.826   5.267  13.451  0.00  0.00    +0.000 A 
ATOM     11  C   UNL     1       7.248   5.022  14.700  0.00  0.00    +0.000 A 
ENDBRANCH   4   6
BRANCH   5  12
ATOM     12  N   UNL     1       6.525   5.650  17.540  0.00  0.00    +0.000 N 
ATOM     13  C   UNL     1       7.636   5.646  18.367  0.00  0.00    +0.000 A 
ATOM     14  C   UNL     1       8.137   6.923  18.470  0.00  0.00    +0.000 A 
ATOM     15  C   UNL     1       7.378   7.731  17.601  0.00  0.00    +0.000 A 
ATOM     16  C   UNL     1       6.433   6.919  17.006  0.00  0.00    +0.000 A 
ENDBRANCH   5  12
BRANCH   1  17
ATOM     17  C   UNL     1       4.632   4.146  19.696  0.00  0.00    +0.000 C 
BRANCH  17  18
ATOM     18  S   UNL     1       3.296   3.090  20.394  0.00  0.00    +0.000 S 
BRANCH  18  19
ATOM     19  C   UNL     1       2.374   4.295  21.412  0.00  0.00    +0.000 C 
BRANCH  19  21
ATOM     20  N   UNL     1       2.253   6.663  20.677  0.00  0.00    +0.000 N 
ATOM     21  C   UNL     1       1.686   5.400  20.590  0.00  0.00    +0.000 C 
ATOM     22  O   UNL     1       0.726   5.110  19.880  0.00  0.00    +0.000 OA
ATOM     23  H   UNL     1       3.226   6.658  20.961  0.00  0.00    +0.000 HD
BRANCH  20  31
ATOM     24  C   UNL     1       3.024   7.006  17.886  0.00  0.00    +0.000 C 
ATOM     25  C   UNL     1       2.211   8.015  18.652  0.00  0.00    +0.000 A 
ATOM     26  C   UNL     1       1.845   9.194  17.975  0.00  0.00    +0.000 A 
ATOM     27  C   UNL     1       1.081  10.165  18.607  0.00  0.00    +0.000 A 
ATOM     28  C   UNL     1       0.683   9.982  19.927  0.00  0.00    +0.000 A 
ATOM     29  C   UNL     1       1.038   8.817  20.638  0.00  0.00    +0.000 A 
ATOM     30  C   UNL     1       0.684   8.780  22.103  0.00  0.00    +0.000 C 
ATOM     31  C   UNL     1       1.795   7.816  19.991  0.00  0.00    +0.000 A 
ENDBRANCH  20  31
ENDBRANCH  19  21
ENDBRANCH  18  19
ENDBRANCH  17  18
ENDBRANCH   1  17
TORSDOF 7
ENDMDL
MODEL 2
REMARK VINA RESULT:      -7.7      4.631      7.895
REMARK  Name = 
REMARK  9 active torsions:
REMARK  status: ('A' for Active; 'I' for Inactive)
REMARK    1  A    between atoms: C_1  and  C_2
REMARK    2  A    between atoms: C_6  and  C_7
REMARK    3  A    between atoms: C_8  and  N_9
REMARK    4  A    between atoms: C_10  and  C_12
REMARK    5  A    between atoms: C_12  and  S_13
REMARK    6  A    between atoms: S_13  and  C_14
REMARK    7  A    between atoms: C_14  and  C_15
REMARK    8  A    between atoms: N_18  and  C_19
REMARK    9  A    between atoms: C_25  and  N_26
REMARK                            x       y       z     vdW  Elec       q    Type
REMARK                         _______ _______ _______ _____ _____    ______ ____
ROOT
ATOM      1  C   UNL     1       5.881   5.942  17.814  0.00  0.00    +0.000 A 
ATOM      2  C   UNL     1       6.410   4.688  18.213  0.00  0.00    +0.000 A 
ATOM      3  N   UNL     1       5.559   3.937  18.903  0.00  0.00    +0.000 NA
ATOM      4  N   UNL     1       4.386   4.617  18.863  0.00  0.00    +0.000 N 
ATOM      5  C   UNL     1       4.572   5.880  18.300  0.00  0.00    +0.000 A 
ENDROOT
BRANCH   4   6
ATOM      6  C   UNL     1       3.202   3.959  19.316  0.00  0.00    +0.000 A 
ATOM      7  C   UNL     1       2.980   3.825  20.695  0.00  0.00    +0.000 A 
ATOM      8  C   UNL     1       1.769   3.307  21.163  0.00  0.00    +0.000 A 
ATOM      9  C   UNL     1       0.788   2.895  20.262  0.00  0.00    +0.000 A 
ATOM     10  C   UNL     1       1.032   2.957  18.892  0.00  0.00    +0.000 A 
ATOM     11  C   UNL     1       2.245   3.464  18.420  0.00  0.00    +0.000 A 
ENDBRANCH   4   6
BRANCH   5  12
ATOM     12  N   UNL     1       3.610   6.893  18.327  0.00  0.00    +0.000 N 
ATOM     13  C   UNL     1       2.745   7.182  19.369  0.00  0.00    +0.000 A 
ATOM     14  C   UNL     1       1.839   8.134  18.966  0.00  0.00    +0.000 A 
ATOM     15  C   UNL     1       2.210   8.526  17.665  0.00  0.00    +0.000 A 
ATOM     16  C   UNL     1       3.326   7.790  17.317  0.00  0.00    +0.000 A 
ENDBRANCH   5  12
BRANCH   1  17
ATOM     17  C   UNL     1       6.627   7.083  17.164  0.00  0.00    +0.000 C 
BRANCH  17  18
ATOM     18  S   UNL     1       7.973   7.739  18.234  0.00  0.00    +0.000 S 
BRANCH  18  19
ATOM     19  C   UNL     1       8.085   9.469  17.657  0.00  0.00    +0.000 C 
BRANCH  19  21
ATOM     20  N   UNL     1       9.267  11.615  18.060  0.00  0.00    +0.000 N 
ATOM     21  C   UNL     1       8.921  10.376  18.579  0.00  0.00    +0.000 C 
ATOM     22  O   UNL     1       9.194   9.990  19.713  0.00  0.00    +0.000 OA
ATOM     23  H   UNL     1       8.658  11.932  17.313  0.00  0.00    +0.000 HD
BRANCH  20  31
ATOM     24  C   UNL     1       7.898  14.064  18.855  0.00  0.00    +0.000 C 
ATOM     25  C   UNL     1       9.367  13.823  19.082  0.00  0.00    +0.000 A 
ATOM     26  C   UNL     1      10.105  14.863  19.678  0.00  0.00    +0.000 A 
ATOM     27  C   UNL     1      11.460  14.712  19.935  0.00  0.00    +0.000 A 
ATOM     28  C   UNL     1      12.103  13.528  19.589  0.00  0.00    +0.000 A 
ATOM     29  C   UNL     1      11.397  12.469  18.982  0.00  0.00    +0.000 A 
ATOM     30  C   UNL     1      12.210  11.289  18.513  0.00  0.00    +0.000 C 
ATOM     31  C   UNL     1      10.012  12.610  18.740  0.00  0.00    +0.000 A 
ENDBRANCH  20  31
ENDBRANCH  19  21
ENDBRANCH  18  19
ENDBRANCH  17  18
ENDBRANCH   1  17
TORSDOF 7
ENDMDL
MODEL 3
REMARK VINA RESULT:      -7.7      4.672      7.914
REMARK  Name = 
REMARK  9 active torsions:
REMARK  status: ('A' for Active; 'I' for Inactive)
REMARK    1  A    between atoms: C_1  and  C_2
REMARK    2  A    between atoms: C_6  and  C_7
REMARK    3  A    between atoms: C_8  and  N_9
REMARK    4  A    between atoms: C_10  and  C_12
REMARK    5  A    between atoms: C_12  and  S_13
REMARK    6  A    between atoms: S_13  and  C_14
REMARK    7  A    between atoms: C_14  and  C_15
REMARK    8  A    between atoms: N_18  and  C_19
REMARK    9  A    between atoms: C_25  and  N_26
REMARK                            x       y       z     vdW  Elec       q    Type
REMARK                         _______ _______ _______ _____ _____    ______ ____
ROOT
ATOM      1  C   UNL     1       5.764   6.035  17.816  0.00  0.00    +0.000 A 
ATOM      2  C   UNL     1       6.347   4.804  18.211  0.00  0.00    +0.000 A 
ATOM      3  N   UNL     1       5.527   4.011  18.893  0.00  0.00    +0.000 NA
ATOM      4  N   UNL     1       4.326   4.639  18.851  0.00  0.00    +0.000 N 
ATOM      5  C   UNL     1       4.458   5.912  18.296  0.00  0.00    +0.000 A 
ENDROOT
BRANCH   4   6
ATOM      6  C   UNL     1       3.170   3.925  19.294  0.00  0.00    +0.000 A 
ATOM      7  C   UNL     1       2.935   3.794  20.671  0.00  0.00    +0.000 A 
ATOM      8  C   UNL     1       1.746   3.220  21.128  0.00  0.00    +0.000 A 
ATOM      9  C   UNL     1       0.799   2.749  20.218  0.00  0.00    +0.000 A 
ATOM     10  C   UNL     1       1.060   2.811  18.851  0.00  0.00    +0.000 A 
ATOM     11  C   UNL     1       2.252   3.374  18.391  0.00  0.00    +0.000 A 
ENDBRANCH   4   6
BRANCH   5  12
ATOM     12  N   UNL     1       3.451   6.880  18.324  0.00  0.00    +0.000 N 
ATOM     13  C   UNL     1       3.090   7.726  17.288  0.00  0.00    +0.000 A 
ATOM     14  C   UNL     1       2.175   8.647  17.742  0.00  0.00    +0.000 A 
ATOM     15  C   UNL     1       1.879   8.304  19.076  0.00  0.00    +0.000 A 
ATOM     16  C   UNL     1       2.632   7.191  19.391  0.00  0.00    +0.000 A 
ENDBRANCH   5  12
BRANCH   1  17
ATOM     17  C   UNL     1       6.462   7.212  17.177  0.00  0.00    +0.000 C 
BRANCH  17  18
ATOM     18  S   UNL     1       7.916   7.780  18.152  0.00  0.00    +0.000 S 
BRANCH  18  19
ATOM     19  C   UNL     1       7.931   9.567  17.773  0.00  0.00    +0.000 C 
BRANCH  19  21
ATOM     20  N   UNL     1       8.998  11.730  18.363  0.00  0.00    +0.000 N 
ATOM     21  C   UNL     1       8.992  10.357  18.562  0.00  0.00    +0.000 C 
ATOM     22  O   UNL     1       9.729   9.758  19.342  0.00  0.00    +0.000 OA
ATOM     23  H   UNL     1       8.117  12.100  18.025  0.00  0.00    +0.000 HD
BRANCH  20  31
ATOM     24  C   UNL     1       8.484  12.419  21.150  0.00  0.00    +0.000 C 
ATOM     25  C   UNL     1       9.596  13.026  20.336  0.00  0.00    +0.000 A 
ATOM     26  C   UNL     1      10.395  14.001  20.964  0.00  0.00    +0.000 A 
ATOM     27  C   UNL     1      11.450  14.595  20.286  0.00  0.00    +0.000 A 
ATOM     28  C   UNL     1      11.716  14.237  18.968  0.00  0.00    +0.000 A 
ATOM     29  C   UNL     1      10.932  13.270  18.306  0.00  0.00    +0.000 A 
ATOM     30  C   UNL     1      11.208  13.059  16.839  0.00  0.00    +0.000 C 
ATOM     31  C   UNL     1       9.872  12.646  19.000  0.00  0.00    +0.000 A 
ENDBRANCH  20  31
ENDBRANCH  19  21
ENDBRANCH  18  19
ENDBRANCH  17  18
ENDBRANCH   1  17
TORSDOF 7
ENDMDL
MODEL 4
REMARK VINA RESULT:      -7.6      0.229      1.957
REMARK  Name = 
REMARK  9 active torsions:
REMARK  status: ('A' for Active; 'I' for Inactive)
REMARK    1  A    between atoms: C_1  and  C_2
REMARK    2  A    between atoms: C_6  and  C_7
REMARK    3  A    between atoms: C_8  and  N_9
REMARK    4  A    between atoms: C_10  and  C_12
REMARK    5  A    between atoms: C_12  and  S_13
REMARK    6  A    between atoms: S_13  and  C_14
REMARK    7  A    between atoms: C_14  and  C_15
REMARK    8  A    between atoms: N_18  and  C_19
REMARK    9  A    between atoms: C_25  and  N_26
REMARK                            x       y       z     vdW  Elec       q    Type
REMARK                         _______ _______ _______ _____ _____    ______ ____
ROOT
ATOM      1  C   UNL     1       4.654   4.056  18.251  0.00  0.00    +0.000 A 
ATOM      2  C   UNL     1       3.886   3.189  17.432  0.00  0.00    +0.000 A 
ATOM      3  N   UNL     1       4.139   3.308  16.133  0.00  0.00    +0.000 NA
ATOM      4  N   UNL     1       5.187   4.165  16.061  0.00  0.00    +0.000 N 
ATOM      5  C   UNL     1       5.456   4.715  17.315  0.00  0.00    +0.000 A 
ENDROOT
BRANCH   4   6
ATOM      6  C   UNL     1       5.855   4.321  14.808  0.00  0.00    +0.000 A 
ATOM      7  C   UNL     1       7.022   5.098  14.749  0.00  0.00    +0.000 A 
ATOM      8  C   UNL     1       7.766   5.155  13.566  0.00  0.00    +0.000 A 
ATOM      9  C   UNL     1       7.338   4.464  12.434  0.00  0.00    +0.000 A 
ATOM     10  C   UNL     1       6.142   3.751  12.466  0.00  0.00    +0.000 A 
ATOM     11  C   UNL     1       5.389   3.700  13.642  0.00  0.00    +0.000 A 
ENDBRANCH   4   6
BRANCH   5  12
ATOM     12  N   UNL     1       6.321   5.792  17.523  0.00  0.00    +0.000 N 
ATOM     13  C   UNL     1       6.168   7.079  17.036  0.00  0.00    +0.000 A 
ATOM     14  C   UNL     1       7.298   7.814  17.310  0.00  0.00    +0.000 A 
ATOM     15  C   UNL     1       8.143   6.991  18.080  0.00  0.00    +0.000 A 
ATOM     16  C   UNL     1       7.501   5.779  18.240  0.00  0.00    +0.000 A 
ENDBRANCH   5  12
BRANCH   1  17
ATOM     17  C   UNL     1       4.498   4.285  19.735  0.00  0.00    +0.000 C 
BRANCH  17  18
ATOM     18  S   UNL     1       3.230   3.182  20.485  0.00  0.00    +0.000 S 
BRANCH  18  19
ATOM     19  C   UNL     1       2.250   4.370  21.468  0.00  0.00    +0.000 C 
BRANCH  19  21
ATOM     20  N   UNL     1       2.222   6.719  20.664  0.00  0.00    +0.000 N 
ATOM     21  C   UNL     1       1.598   5.481  20.624  0.00  0.00    +0.000 C 
ATOM     22  O   UNL     1       0.614   5.214  19.938  0.00  0.00    +0.000 OA
ATOM     23  H   UNL     1       3.199   6.678  20.933  0.00  0.00    +0.000 HD
BRANCH  20  31
ATOM     24  C   UNL     1       0.610   8.703  22.067  0.00  0.00    +0.000 C 
ATOM     25  C   UNL     1       0.978   8.811  20.611  0.00  0.00    +0.000 A 
ATOM     26  C   UNL     1       0.476   9.919  19.901  0.00  0.00    +0.000 A 
ATOM     27  C   UNL     1       0.783  10.099  18.560  0.00  0.00    +0.000 A 
ATOM     28  C   UNL     1       1.583   9.170  17.902  0.00  0.00    +0.000 A 
ATOM     29  C   UNL     1       2.096   8.045  18.580  0.00  0.00    +0.000 A 
ATOM     30  C   UNL     1       2.829   7.024  17.746  0.00  0.00    +0.000 C 
ATOM     31  C   UNL     1       1.805   7.871  19.951  0.00  0.00    +0.000 A 
ENDBRANCH  20  31
ENDBRANCH  19  21
ENDBRANCH  18  19
ENDBRANCH  17  18
ENDBRANCH   1  17
TORSDOF 7
ENDMDL
MODEL 5
REMARK VINA RESULT:      -7.5      3.868     10.106
REMARK  Name = 
REMARK  9 active torsions:
REMARK  status: ('A' for Active; 'I' for Inactive)
REMARK    1  A    between atoms: C_1  and  C_2
REMARK    2  A    between atoms: C_6  and  C_7
REMARK    3  A    between atoms: C_8  and  N_9
REMARK    4  A    between atoms: C_10  and  C_12
REMARK    5  A    between atoms: C_12  and  S_13
REMARK    6  A    between atoms: S_13  and  C_14
REMARK    7  A    between atoms: C_14  and  C_15
REMARK    8  A    between atoms: N_18  and  C_19
REMARK    9  A    between atoms: C_25  and  N_26
REMARK                            x       y       z     vdW  Elec       q    Type
REMARK                         _______ _______ _______ _____ _____    ______ ____
ROOT
ATOM      1  C   UNL     1      -0.048   9.551  21.382  0.00  0.00    +0.000 A 
ATOM      2  C   UNL     1       0.069   9.416  22.789  0.00  0.00    +0.000 A 
ATOM      3  N   UNL     1      -0.356  10.475  23.470  0.00  0.00    +0.000 NA
ATOM      4  N   UNL     1      -0.898  11.293  22.534  0.00  0.00    +0.000 N 
ATOM      5  C   UNL     1      -0.637  10.811  21.252  0.00  0.00    +0.000 A 
ENDROOT
BRANCH   4   6
ATOM      6  C   UNL     1      -1.660  12.420  22.974  0.00  0.00    +0.000 A 
ATOM      7  C   UNL     1      -3.043  12.277  23.164  0.00  0.00    +0.000 A 
ATOM      8  C   UNL     1      -3.786  13.322  23.720  0.00  0.00    +0.000 A 
ATOM      9  C   UNL     1      -3.161  14.521  24.063  0.00  0.00    +0.000 A 
ATOM     10  C   UNL     1      -1.803  14.694  23.809  0.00  0.00    +0.000 A 
ATOM     11  C   UNL     1      -1.059  13.656  23.243  0.00  0.00    +0.000 A 
ENDBRANCH   4   6
BRANCH   5  12
ATOM     12  N   UNL     1      -0.866  11.543  20.084  0.00  0.00    +0.000 N 
ATOM     13  C   UNL     1      -1.813  11.269  19.111  0.00  0.00    +0.000 A 
ATOM     14  C   UNL     1      -1.629  12.110  18.039  0.00  0.00    +0.000 A 
ATOM     15  C   UNL     1      -0.600  13.004  18.393  0.00  0.00    +0.000 A 
ATOM     16  C   UNL     1      -0.186  12.670  19.668  0.00  0.00    +0.000 A 
ENDBRANCH   5  12
BRANCH   1  17
ATOM     17  C   UNL     1       0.485   8.609  20.328  0.00  0.00    +0.000 C 
BRANCH  17  18
ATOM     18  S   UNL     1       1.793   9.385  19.291  0.00  0.00    +0.000 S 
BRANCH  18  19
ATOM     19  C   UNL     1       2.054   8.103  18.016  0.00  0.00    +0.000 C 
BRANCH  19  21
ATOM     20  N   UNL     1       2.163   5.624  17.945  0.00  0.00    +0.000 N 
ATOM     21  C   UNL     1       2.605   6.778  18.575  0.00  0.00    +0.000 C 
ATOM     22  O   UNL     1       3.420   6.807  19.493  0.00  0.00    +0.000 OA
ATOM     23  H   UNL     1       1.833   5.774  16.998  0.00  0.00    +0.000 HD
BRANCH  20  31
ATOM     24  C   UNL     1       4.255   4.359  16.355  0.00  0.00    +0.000 C 
ATOM     25  C   UNL     1       3.534   3.665  17.480  0.00  0.00    +0.000 A 
ATOM     26  C   UNL     1       3.879   2.325  17.737  0.00  0.00    +0.000 A 
ATOM     27  C   UNL     1       3.271   1.622  18.767  0.00  0.00    +0.000 A 
ATOM     28  C   UNL     1       2.299   2.240  19.548  0.00  0.00    +0.000 A 
ATOM     29  C   UNL     1       1.923   3.578  19.314  0.00  0.00    +0.000 A 
ATOM     30  C   UNL     1       0.761   4.109  20.116  0.00  0.00    +0.000 C 
ATOM     31  C   UNL     1       2.556   4.305  18.281  0.00  0.00    +0.000 A 
ENDBRANCH  20  31
ENDBRANCH  19  21
ENDBRANCH  18  19
ENDBRANCH  17  18
ENDBRANCH   1  17
TORSDOF 7
ENDMDL
MODEL 6
REMARK VINA RESULT:      -7.5      4.612      7.694
REMARK  Name = 
REMARK  9 active torsions:
REMARK  status: ('A' for Active; 'I' for Inactive)
REMARK    1  A    between atoms: C_1  and  C_2
REMARK    2  A    between atoms: C_6  and  C_7
REMARK    3  A    between atoms: C_8  and  N_9
REMARK    4  A    between atoms: C_10  and  C_12
REMARK    5  A    between atoms: C_12  and  S_13
REMARK    6  A    between atoms: S_13  and  C_14
REMARK    7  A    between atoms: C_14  and  C_15
REMARK    8  A    between atoms: N_18  and  C_19
REMARK    9  A    between atoms: C_25  and  N_26
REMARK                            x       y       z     vdW  Elec       q    Type
REMARK                         _______ _______ _______ _____ _____    ______ ____
ROOT
ATOM      1  C   UNL     1       5.838   5.987  17.847  0.00  0.00    +0.000 A 
ATOM      2  C   UNL     1       6.359   4.725  18.230  0.00  0.00    +0.000 A 
ATOM      3  N   UNL     1       5.498   3.964  18.897  0.00  0.00    +0.000 NA
ATOM      4  N   UNL     1       4.328   4.648  18.854  0.00  0.00    +0.000 N 
ATOM      5  C   UNL     1       4.524   5.920  18.317  0.00  0.00    +0.000 A 
ENDROOT
BRANCH   4   6
ATOM      6  C   UNL     1       3.136   3.985  19.281  0.00  0.00    +0.000 A 
ATOM      7  C   UNL     1       2.205   3.567  18.317  0.00  0.00    +0.000 A 
ATOM      8  C   UNL     1       1.100   2.800  18.697  0.00  0.00    +0.000 A 
ATOM      9  C   UNL     1       0.902   2.471  20.038  0.00  0.00    +0.000 A 
ATOM     10  C   UNL     1       1.783   2.945  21.007  0.00  0.00    +0.000 A 
ATOM     11  C   UNL     1       2.882   3.722  20.633  0.00  0.00    +0.000 A 
ENDBRANCH   4   6
BRANCH   5  12
ATOM     12  N   UNL     1       3.564   6.935  18.350  0.00  0.00    +0.000 N 
ATOM     13  C   UNL     1       2.716   7.235  19.404  0.00  0.00    +0.000 A 
ATOM     14  C   UNL     1       1.805   8.186  19.006  0.00  0.00    +0.000 A 
ATOM     15  C   UNL     1       2.157   8.565  17.696  0.00  0.00    +0.000 A 
ATOM     16  C   UNL     1       3.266   7.825  17.337  0.00  0.00    +0.000 A 
ENDBRANCH   5  12
BRANCH   1  17
ATOM     17  C   UNL     1       6.595   7.137  17.227  0.00  0.00    +0.000 C 
BRANCH  17  18
ATOM     18  S   UNL     1       7.956   7.745  18.308  0.00  0.00    +0.000 S 
BRANCH  18  19
ATOM     19  C   UNL     1       8.342   9.355  17.536  0.00  0.00    +0.000 C 
BRANCH  19  21
ATOM     20  N   UNL     1       9.348  11.586  17.954  0.00  0.00    +0.000 N 
ATOM     21  C   UNL     1       8.956  10.377  18.510  0.00  0.00    +0.000 C 
ATOM     22  O   UNL     1       9.024  10.100  19.705  0.00  0.00    +0.000 OA
ATOM     23  H   UNL     1       8.880  11.808  17.083  0.00  0.00    +0.000 HD
BRANCH  20  31
ATOM     24  C   UNL     1      12.128  11.373  18.809  0.00  0.00    +0.000 C 
ATOM     25  C   UNL     1      11.248  12.551  19.132  0.00  0.00    +0.000 A 
ATOM     26  C   UNL     1      11.807  13.576  19.920  0.00  0.00    +0.000 A 
ATOM     27  C   UNL     1      11.066  14.702  20.247  0.00  0.00    +0.000 A 
ATOM     28  C   UNL     1       9.751  14.818  19.806  0.00  0.00    +0.000 A 
ATOM     29  C   UNL     1       9.156  13.808  19.023  0.00  0.00    +0.000 A 
ATOM     30  C   UNL     1       7.687  13.958  18.720  0.00  0.00    +0.000 C 
ATOM     31  C   UNL     1       9.915  12.671  18.668  0.00  0.00    +0.000 A 
ENDBRANCH  20  31
ENDBRANCH  19  21
ENDBRANCH  18  19
ENDBRANCH  17  18
ENDBRANCH   1  17
TORSDOF 7
ENDMDL
MODEL 7
REMARK VINA RESULT:      -7.4      3.711     10.080
REMARK  Name = 
REMARK  9 active torsions:
REMARK  status: ('A' for Active; 'I' for Inactive)
REMARK    1  A    between atoms: C_1  and  C_2
REMARK    2  A    between atoms: C_6  and  C_7
REMARK    3  A    between atoms: C_8  and  N_9
REMARK    4  A    between atoms: C_10  and  C_12
REMARK    5  A    between atoms: C_12  and  S_13
REMARK    6  A    between atoms: S_13  and  C_14
REMARK    7  A    between atoms: C_14  and  C_15
REMARK    8  A    between atoms: N_18  and  C_19
REMARK    9  A    between atoms: C_25  and  N_26
REMARK                            x       y       z     vdW  Elec       q    Type
REMARK                         _______ _______ _______ _____ _____    ______ ____
ROOT
ATOM      1  C   UNL     1       0.235   9.375  21.431  0.00  0.00    +0.000 A 
ATOM      2  C   UNL     1       0.341   9.279  22.842  0.00  0.00    +0.000 A 
ATOM      3  N   UNL     1      -0.134  10.335  23.493  0.00  0.00    +0.000 NA
ATOM      4  N   UNL     1      -0.699  11.108  22.532  0.00  0.00    +0.000 N 
ATOM      5  C   UNL     1      -0.404  10.606  21.265  0.00  0.00    +0.000 A 
ENDROOT
BRANCH   4   6
ATOM      6  C   UNL     1      -1.511  12.212  22.937  0.00  0.00    +0.000 A 
ATOM      7  C   UNL     1      -0.935  13.489  23.017  0.00  0.00    +0.000 A 
ATOM      8  C   UNL     1      -1.736  14.604  23.280  0.00  0.00    +0.000 A 
ATOM      9  C   UNL     1      -3.106  14.449  23.490  0.00  0.00    +0.000 A 
ATOM     10  C   UNL     1      -3.670  13.176  23.483  0.00  0.00    +0.000 A 
ATOM     11  C   UNL     1      -2.871  12.058  23.233  0.00  0.00    +0.000 A 
ENDBRANCH   4   6
BRANCH   5  12
ATOM     12  N   UNL     1      -0.650  11.301  20.077  0.00  0.00    +0.000 N 
ATOM     13  C   UNL     1       0.003  12.439  19.636  0.00  0.00    +0.000 A 
ATOM     14  C   UNL     1      -0.622  12.924  18.511  0.00  0.00    +0.000 A 
ATOM     15  C   UNL     1      -1.636  12.004  18.180  0.00  0.00    +0.000 A 
ATOM     16  C   UNL     1      -1.599  10.994  19.122  0.00  0.00    +0.000 A 
ENDBRANCH   5  12
BRANCH   1  17
ATOM     17  C   UNL     1       0.818   8.432  20.405  0.00  0.00    +0.000 C 
BRANCH  17  18
ATOM     18  S   UNL     1       1.914   9.293  19.204  0.00  0.00    +0.000 S 
BRANCH  18  19
ATOM     19  C   UNL     1       2.082   8.029  17.895  0.00  0.00    +0.000 C 
BRANCH  19  21
ATOM     20  N   UNL     1       2.078   5.547  17.888  0.00  0.00    +0.000 N 
ATOM     21  C   UNL     1       2.668   6.696  18.394  0.00  0.00    +0.000 C 
ATOM     22  O   UNL     1       3.632   6.711  19.155  0.00  0.00    +0.000 OA
ATOM     23  H   UNL     1       1.594   5.686  17.009  0.00  0.00    +0.000 HD
BRANCH  20  31
ATOM     24  C   UNL     1       0.800   4.216  20.146  0.00  0.00    +0.000 C 
ATOM     25  C   UNL     1       1.893   3.588  19.323  0.00  0.00    +0.000 A 
ATOM     26  C   UNL     1       2.329   2.305  19.704  0.00  0.00    +0.000 A 
ATOM     27  C   UNL     1       3.321   1.652  18.986  0.00  0.00    +0.000 A 
ATOM     28  C   UNL     1       3.904   2.274  17.886  0.00  0.00    +0.000 A 
ATOM     29  C   UNL     1       3.497   3.562  17.481  0.00  0.00    +0.000 A 
ATOM     30  C   UNL     1       4.288   4.208  16.371  0.00  0.00    +0.000 C 
ATOM     31  C   UNL     1       2.471   4.220  18.195  0.00  0.00    +0.000 A 
ENDBRANCH  20  31
ENDBRANCH  19  21
ENDBRANCH  18  19
ENDBRANCH  17  18
ENDBRANCH   1  17
TORSDOF 7
ENDMDL
MODEL 8
REMARK VINA RESULT:      -7.4      3.793      9.922
REMARK  Name = 
REMARK  9 active torsions:
REMARK  status: ('A' for Active; 'I' for Inactive)
REMARK    1  A    between atoms: C_1  and  C_2
REMARK    2  A    between atoms: C_6  and  C_7
REMARK    3  A    between atoms: C_8  and  N_9
REMARK    4  A    between atoms: C_10  and  C_12
REMARK    5  A    between atoms: C_12  and  S_13
REMARK    6  A    between atoms: S_13  and  C_14
REMARK    7  A    between atoms: C_14  and  C_15
REMARK    8  A    between atoms: N_18  and  C_19
REMARK    9  A    between atoms: C_25  and  N_26
REMARK                            x       y       z     vdW  Elec       q    Type
REMARK                         _______ _______ _______ _____ _____    ______ ____
ROOT
ATOM      1  C   UNL     1       1.121  11.679  19.526  0.00  0.00    +0.000 A 
ATOM      2  C   UNL     1       1.535  12.382  20.685  0.00  0.00    +0.000 A 
ATOM      3  N   UNL     1       0.531  12.835  21.430  0.00  0.00    +0.000 NA
ATOM      4  N   UNL     1      -0.585  12.321  20.856  0.00  0.00    +0.000 N 
ATOM      5  C   UNL     1      -0.271  11.704  19.645  0.00  0.00    +0.000 A 
ENDROOT
BRANCH   4   6
ATOM      6  C   UNL     1      -1.823  12.429  21.559  0.00  0.00    +0.000 A 
ATOM      7  C   UNL     1      -1.921  11.898  22.855  0.00  0.00    +0.000 A 
ATOM      8  C   UNL     1      -3.076  12.108  23.613  0.00  0.00    +0.000 A 
ATOM      9  C   UNL     1      -4.147  12.821  23.077  0.00  0.00    +0.000 A 
ATOM     10  C   UNL     1      -4.084  13.287  21.765  0.00  0.00    +0.000 A 
ATOM     11  C   UNL     1      -2.936  13.070  21.000  0.00  0.00    +0.000 A 
ENDBRANCH   4   6
BRANCH   5  12
ATOM     12  N   UNL     1      -1.227  11.283  18.716  0.00  0.00    +0.000 N 
ATOM     13  C   UNL     1      -1.872  10.057  18.693  0.00  0.00    +0.000 A 
ATOM     14  C   UNL     1      -2.617   9.950  17.542  0.00  0.00    +0.000 A 
ATOM     15  C   UNL     1      -2.515  11.185  16.873  0.00  0.00    +0.000 A 
ATOM     16  C   UNL     1      -1.703  12.000  17.637  0.00  0.00    +0.000 A 
ENDBRANCH   5  12
BRANCH   1  17
ATOM     17  C   UNL     1       1.995  11.182  18.399  0.00  0.00    +0.000 C 
BRANCH  17  18
ATOM     18  S   UNL     1       1.562   9.471  17.878  0.00  0.00    +0.000 S 
BRANCH  18  19
ATOM     19  C   UNL     1       1.749   8.555  19.448  0.00  0.00    +0.000 C 
BRANCH  19  21
ATOM     20  N   UNL     1       2.908   6.890  18.016  0.00  0.00    +0.000 N 
ATOM     21  C   UNL     1       2.442   7.189  19.288  0.00  0.00    +0.000 C 
ATOM     22  O   UNL     1       2.590   6.472  20.275  0.00  0.00    +0.000 OA
ATOM     23  H   UNL     1       3.067   7.706  17.435  0.00  0.00    +0.000 HD
BRANCH  20  31
ATOM     24  C   UNL     1       5.732   7.082  17.317  0.00  0.00    +0.000 C 
ATOM     25  C   UNL     1       4.948   5.798  17.259  0.00  0.00    +0.000 A 
ATOM     26  C   UNL     1       5.626   4.651  16.807  0.00  0.00    +0.000 A 
ATOM     27  C   UNL     1       4.977   3.425  16.740  0.00  0.00    +0.000 A 
ATOM     28  C   UNL     1       3.640   3.329  17.109  0.00  0.00    +0.000 A 
ATOM     29  C   UNL     1       2.927   4.460  17.559  0.00  0.00    +0.000 A 
ATOM     30  C   UNL     1       1.449   4.283  17.795  0.00  0.00    +0.000 C 
ATOM     31  C   UNL     1       3.591   5.704  17.651  0.00  0.00    +0.000 A 
ENDBRANCH  20  31
ENDBRANCH  19  21
ENDBRANCH  18  19
ENDBRANCH  17  18
ENDBRANCH   1  17
TORSDOF 7
ENDMDL
MODEL 9
REMARK VINA RESULT:      -7.2      3.598      9.831
REMARK  Name = 
REMARK  9 active torsions:
REMARK  status: ('A' for Active; 'I' for Inactive)
REMARK    1  A    between atoms: C_1  and  C_2
REMARK    2  A    between atoms: C_6  and  C_7
REMARK    3  A    between atoms: C_8  and  N_9
REMARK    4  A    between atoms: C_10  and  C_12
REMARK    5  A    between atoms: C_12  and  S_13
REMARK    6  A    between atoms: S_13  and  C_14
REMARK    7  A    between atoms: C_14  and  C_15
REMARK    8  A    between atoms: N_18  and  C_19
REMARK    9  A    between atoms: C_25  and  N_26
REMARK                            x       y       z     vdW  Elec       q    Type
REMARK                         _______ _______ _______ _____ _____    ______ ____
ROOT
ATOM      1  C   UNL     1       0.414   9.386  21.253  0.00  0.00    +0.000 A 
ATOM      2  C   UNL     1       0.560   9.277  22.659  0.00  0.00    +0.000 A 
ATOM      3  N   UNL     1       0.071  10.311  23.336  0.00  0.00    +0.000 NA
ATOM      4  N   UNL     1      -0.542  11.077  22.400  0.00  0.00    +0.000 N 
ATOM      5  C   UNL     1      -0.266  10.600  21.119  0.00  0.00    +0.000 A 
ENDROOT
BRANCH   4   6
ATOM      6  C   UNL     1      -1.375  12.152  22.840  0.00  0.00    +0.000 A 
ATOM      7  C   UNL     1      -2.677  11.870  23.282  0.00  0.00    +0.000 A 
ATOM      8  C   UNL     1      -3.462  12.882  23.841  0.00  0.00    +0.000 A 
ATOM      9  C   UNL     1      -2.966  14.182  23.937  0.00  0.00    +0.000 A 
ATOM     10  C   UNL     1      -1.703  14.482  23.433  0.00  0.00    +0.000 A 
ATOM     11  C   UNL     1      -0.919  13.476  22.863  0.00  0.00    +0.000 A 
ENDBRANCH   4   6
BRANCH   5  12
ATOM     12  N   UNL     1      -0.565  11.300  19.947  0.00  0.00    +0.000 N 
ATOM     13  C   UNL     1       0.112  12.400  19.448  0.00  0.00    +0.000 A 
ATOM     14  C   UNL     1      -0.570  12.911  18.369  0.00  0.00    +0.000 A 
ATOM     15  C   UNL     1      -1.653  12.044  18.123  0.00  0.00    +0.000 A 
ATOM     16  C   UNL     1      -1.598  11.039  19.069  0.00  0.00    +0.000 A 
ENDBRANCH   5  12
BRANCH   1  17
ATOM     17  C   UNL     1       0.996   8.473  20.201  0.00  0.00    +0.000 C 
BRANCH  17  18
ATOM     18  S   UNL     1       1.507   9.384  18.686  0.00  0.00    +0.000 S 
BRANCH  18  19
ATOM     19  C   UNL     1       2.870   8.335  18.072  0.00  0.00    +0.000 C 
BRANCH  19  21
ATOM     20  N   UNL     1       3.431   5.989  18.664  0.00  0.00    +0.000 N 
ATOM     21  C   UNL     1       2.527   6.834  18.035  0.00  0.00    +0.000 C 
ATOM     22  O   UNL     1       1.478   6.471  17.510  0.00  0.00    +0.000 OA
ATOM     23  H   UNL     1       4.002   6.447  19.365  0.00  0.00    +0.000 HD
BRANCH  20  31
ATOM     24  C   UNL     1       4.668   4.335  16.606  0.00  0.00    +0.000 C 
ATOM     25  C   UNL     1       3.854   3.776  17.742  0.00  0.00    +0.000 A 
ATOM     26  C   UNL     1       3.664   2.381  17.773  0.00  0.00    +0.000 A 
ATOM     27  C   UNL     1       2.940   1.787  18.797  0.00  0.00    +0.000 A 
ATOM     28  C   UNL     1       2.382   2.575  19.798  0.00  0.00    +0.000 A 
ATOM     29  C   UNL     1       2.545   3.976  19.794  0.00  0.00    +0.000 A 
ATOM     30  C   UNL     1       1.782   4.752  20.837  0.00  0.00    +0.000 C 
ATOM     31  C   UNL     1       3.302   4.582  18.767  0.00  0.00    +0.000 A 
ENDBRANCH  20  31
ENDBRANCH  19  21
ENDBRANCH  18  19
ENDBRANCH  17  18
ENDBRANCH   1  17
TORSDOF 7
ENDMDL
