MODEL 1
REMARK VINA RESULT:      -7.0      0.000      0.000
REMARK  Name = 
REMARK  12 active torsions:
REMARK  status: ('A' for Active; 'I' for Inactive)
REMARK    1  A    between atoms: C_1  and  C_2
REMARK    2  A    between atoms: C_2  and  O_3
REMARK    3  A    between atoms: O_3  and  C_4
REMARK    4  A    between atoms: C_4  and  C_6
REMARK    5  A    between atoms: C_10  and  O_11
REMARK    6  A    between atoms: O_11  and  C_12
REMARK    7  A    between atoms: C_17  and  C_18
REMARK    8  A    between atoms: C_22  and  C_23
REMARK    9  A    between atoms: C_28  and  O_29
REMARK   10  A    between atoms: O_29  and  C_30
REMARK   11  A    between atoms: C_32  and  O_33
REMARK   12  A    between atoms: O_33  and  C_34
REMARK                            x       y       z     vdW  Elec       q    Type
REMARK                         _______ _______ _______ _____ _____    ______ ____
ROOT
ATOM      1  C   UNL     1       0.183  12.106  19.795  0.00  0.00    +0.000 A 
ATOM      2  C   UNL     1      -0.787  13.068  20.000  0.00  0.00    +0.000 A 
ATOM      3  N   UNL     1      -2.075  12.946  19.623  0.00  0.00    +0.000 NA
ATOM      4  C   UNL     1      -2.479  11.828  18.990  0.00  0.00    +0.000 A 
ATOM      5  C   UNL     1      -3.784  11.777  18.448  0.00  0.00    +0.000 A 
ATOM      6  C   UNL     1      -4.224  10.672  17.713  0.00  0.00    +0.000 A 
ATOM      7  C   UNL     1      -3.421   9.555  17.613  0.00  0.00    +0.000 A 
ATOM      8  C   UNL     1      -2.175   9.559  18.230  0.00  0.00    +0.000 A 
ATOM      9  C   UNL     1      -1.609  10.718  18.844  0.00  0.00    +0.000 A 
ATOM     10  C   UNL     1      -0.226  10.853  19.295  0.00  0.00    +0.000 A 
ENDROOT
BRANCH  10  11
ATOM     11  C   UNL     1       0.716   9.696  19.196  0.00  0.00    +0.000 A 
ATOM     12  C   UNL     1       1.457   9.543  18.013  0.00  0.00    +0.000 A 
ATOM     13  C   UNL     1       2.246   8.426  17.784  0.00  0.00    +0.000 A 
ATOM     14  F   UNL     1       2.722   8.255  16.541  0.00  0.00    +0.000 F 
ATOM     15  C   UNL     1       2.521   7.549  18.822  0.00  0.00    +0.000 A 
ATOM     16  N   UNL     1       1.901   7.722  20.014  0.00  0.00    +0.000 NA
ATOM     17  C   UNL     1       0.975   8.718  20.170  0.00  0.00    +0.000 A 
BRANCH  15  18
ATOM     18  C   UNL     1       3.573   6.504  18.717  0.00  0.00    +0.000 A 
ATOM     19  C   UNL     1       4.667   6.766  17.838  0.00  0.00    +0.000 A 
ATOM     20  C   UNL     1       5.751   5.900  17.673  0.00  0.00    +0.000 A 
ATOM     21  C   UNL     1       5.797   4.739  18.415  0.00  0.00    +0.000 A 
ATOM     22  C   UNL     1       4.763   4.454  19.310  0.00  0.00    +0.000 A 
ATOM     23  C   UNL     1       3.652   5.311  19.464  0.00  0.00    +0.000 A 
BRANCH  23  24
ATOM     24  O   UNL     1       2.828   4.879  20.469  0.00  0.00    +0.000 OA
ATOM     25  C   UNL     1       1.694   4.097  20.122  0.00  0.00    +0.000 C 
ENDBRANCH  23  24
ENDBRANCH  15  18
BRANCH  17  26
ATOM     26  O   UNL     1       0.512   8.730  21.458  0.00  0.00    +0.000 OA
ATOM     27  C   UNL     1       1.358   9.233  22.479  0.00  0.00    +0.000 C 
ENDBRANCH  17  26
ENDBRANCH  10  11
BRANCH   1  28
ATOM     28  C   UNL     1       1.551  12.515  20.188  0.00  0.00    +0.000 C 
ATOM     29  O   UNL     1       1.900  12.560  21.358  0.00  0.00    +0.000 OA
BRANCH  28  30
ATOM     30  O   UNL     1       2.316  12.810  19.114  0.00  0.00    +0.000 OA
BRANCH  30  32
ATOM     31  C   UNL     1       2.554  15.096  18.346  0.00  0.00    +0.000 C 
ATOM     32  C   UNL     1       3.105  14.008  19.243  0.00  0.00    +0.000 C 
ENDBRANCH  30  32
ENDBRANCH  28  30
ENDBRANCH   1  28
BRANCH   5  33
ATOM     33  O   UNL     1      -4.569  12.888  18.664  0.00  0.00    +0.000 OA
ATOM     34  C   UNL     1      -5.974  12.735  18.515  0.00  0.00    +0.000 C 
ENDBRANCH   5  33
TORSDOF 8
ENDMDL
MODEL 2
REMARK VINA RESULT:      -6.9      1.792      4.059
REMARK  Name = 
REMARK  12 active torsions:
REMARK  status: ('A' for Active; 'I' for Inactive)
REMARK    1  A    between atoms: C_1  and  C_2
REMARK    2  A    between atoms: C_2  and  O_3
REMARK    3  A    between atoms: O_3  and  C_4
REMARK    4  A    between atoms: C_4  and  C_6
REMARK    5  A    between atoms: C_10  and  O_11
REMARK    6  A    between atoms: O_11  and  C_12
REMARK    7  A    between atoms: C_17  and  C_18
REMARK    8  A    between atoms: C_22  and  C_23
REMARK    9  A    between atoms: C_28  and  O_29
REMARK   10  A    between atoms: O_29  and  C_30
REMARK   11  A    between atoms: C_32  and  O_33
REMARK   12  A    between atoms: O_33  and  C_34
REMARK                            x       y       z     vdW  Elec       q    Type
REMARK                         _______ _______ _______ _____ _____    ______ ____
ROOT
ATOM      1  C   UNL     1      -0.912  11.343  18.368  0.00  0.00    +0.000 A 
ATOM      2  C   UNL     1      -1.381  12.626  18.165  0.00  0.00    +0.000 A 
ATOM      3  N   UNL     1      -0.771  13.741  18.611  0.00  0.00    +0.000 NA
ATOM      4  C   UNL     1       0.372  13.637  19.316  0.00  0.00    +0.000 A 
ATOM      5  C   UNL     1       0.914  14.791  19.924  0.00  0.00    +0.000 A 
ATOM      6  C   UNL     1       2.053  14.722  20.732  0.00  0.00    +0.000 A 
ATOM      7  C   UNL     1       2.738  13.531  20.845  0.00  0.00    +0.000 A 
ATOM      8  C   UNL     1       2.267  12.412  20.168  0.00  0.00    +0.000 A 
ATOM      9  C   UNL     1       1.020  12.385  19.472  0.00  0.00    +0.000 A 
ATOM     10  C   UNL     1       0.364  11.190  18.947  0.00  0.00    +0.000 A 
ENDROOT
BRANCH  10  11
ATOM     11  C   UNL     1       1.029   9.855  19.054  0.00  0.00    +0.000 A 
ATOM     12  C   UNL     1       1.855   9.439  17.997  0.00  0.00    +0.000 A 
ATOM     13  C   UNL     1       2.396   8.163  17.951  0.00  0.00    +0.000 A 
ATOM     14  F   UNL     1       2.967   7.780  16.799  0.00  0.00    +0.000 F 
ATOM     15  C   UNL     1       2.342   7.348  19.072  0.00  0.00    +0.000 A 
ATOM     16  N   UNL     1       1.637   7.759  20.153  0.00  0.00    +0.000 NA
ATOM     17  C   UNL     1       0.945   8.940  20.116  0.00  0.00    +0.000 A 
BRANCH  15  18
ATOM     18  C   UNL     1       3.138   6.098  19.180  0.00  0.00    +0.000 A 
ATOM     19  C   UNL     1       4.522   6.175  18.839  0.00  0.00    +0.000 A 
ATOM     20  C   UNL     1       5.405   5.096  18.938  0.00  0.00    +0.000 A 
ATOM     21  C   UNL     1       4.936   3.892  19.418  0.00  0.00    +0.000 A 
ATOM     22  C   UNL     1       3.596   3.777  19.792  0.00  0.00    +0.000 A 
ATOM     23  C   UNL     1       2.691   4.855  19.672  0.00  0.00    +0.000 A 
BRANCH  23  24
ATOM     24  O   UNL     1       1.467   4.537  20.198  0.00  0.00    +0.000 OA
ATOM     25  C   UNL     1       1.285   3.239  20.745  0.00  0.00    +0.000 C 
ENDBRANCH  23  24
ENDBRANCH  15  18
BRANCH  17  26
ATOM     26  O   UNL     1       0.344   9.170  21.324  0.00  0.00    +0.000 OA
ATOM     27  C   UNL     1       1.164   9.344  22.467  0.00  0.00    +0.000 C 
ENDBRANCH  17  26
ENDBRANCH  10  11
BRANCH   1  28
ATOM     28  C   UNL     1      -1.816  10.271  17.887  0.00  0.00    +0.000 C 
ATOM     29  O   UNL     1      -2.613   9.718  18.630  0.00  0.00    +0.000 OA
BRANCH  28  30
ATOM     30  O   UNL     1      -1.637  10.016  16.573  0.00  0.00    +0.000 OA
BRANCH  30  32
ATOM     31  C   UNL     1      -3.436  10.969  15.258  0.00  0.00    +0.000 C 
ATOM     32  C   UNL     1      -2.842   9.707  15.846  0.00  0.00    +0.000 C 
ENDBRANCH  30  32
ENDBRANCH  28  30
ENDBRANCH   1  28
BRANCH   5  33
ATOM     33  O   UNL     1       0.234  15.968  19.695  0.00  0.00    +0.000 OA
ATOM     34  C   UNL     1       1.005  17.155  19.569  0.00  0.00    +0.000 C 
ENDBRANCH   5  33
TORSDOF 8
ENDMDL
MODEL 3
REMARK VINA RESULT:      -6.9      1.682      2.780
REMARK  Name = 
REMARK  12 active torsions:
REMARK  status: ('A' for Active; 'I' for Inactive)
REMARK    1  A    between atoms: C_1  and  C_2
REMARK    2  A    between atoms: C_2  and  O_3
REMARK    3  A    between atoms: O_3  and  C_4
REMARK    4  A    between atoms: C_4  and  C_6
REMARK    5  A    between atoms: C_10  and  O_11
REMARK    6  A    between atoms: O_11  and  C_12
REMARK    7  A    between atoms: C_17  and  C_18
REMARK    8  A    between atoms: C_22  and  C_23
REMARK    9  A    between atoms: C_28  and  O_29
REMARK   10  A    between atoms: O_29  and  C_30
REMARK   11  A    between atoms: C_32  and  O_33
REMARK   12  A    between atoms: O_33  and  C_34
REMARK                            x       y       z     vdW  Elec       q    Type
REMARK                         _______ _______ _______ _____ _____    ______ ____
ROOT
ATOM      1  C   UNL     1      -0.156  11.227  20.280  0.00  0.00    +0.000 A 
ATOM      2  C   UNL     1      -1.304  11.908  20.632  0.00  0.00    +0.000 A 
ATOM      3  N   UNL     1      -2.425  11.951  19.886  0.00  0.00    +0.000 NA
ATOM      4  C   UNL     1      -2.463  11.307  18.705  0.00  0.00    +0.000 A 
ATOM      5  C   UNL     1      -3.574  11.494  17.852  0.00  0.00    +0.000 A 
ATOM      6  C   UNL     1      -3.625  10.912  16.583  0.00  0.00    +0.000 A 
ATOM      7  C   UNL     1      -2.632  10.037  16.193  0.00  0.00    +0.000 A 
ATOM      8  C   UNL     1      -1.585   9.768  17.068  0.00  0.00    +0.000 A 
ATOM      9  C   UNL     1      -1.396  10.463  18.300  0.00  0.00    +0.000 A 
ATOM     10  C   UNL     1      -0.204  10.397  19.141  0.00  0.00    +0.000 A 
ENDROOT
BRANCH  10  11
ATOM     11  C   UNL     1       0.929   9.492  18.775  0.00  0.00    +0.000 A 
ATOM     12  C   UNL     1       0.930   8.187  19.294  0.00  0.00    +0.000 A 
ATOM     13  C   UNL     1       2.007   7.331  19.118  0.00  0.00    +0.000 A 
ATOM     14  F   UNL     1       2.020   6.204  19.845  0.00  0.00    +0.000 F 
ATOM     15  C   UNL     1       3.006   7.655  18.212  0.00  0.00    +0.000 A 
ATOM     16  N   UNL     1       2.986   8.868  17.612  0.00  0.00    +0.000 NA
ATOM     17  C   UNL     1       2.020   9.782  17.939  0.00  0.00    +0.000 A 
BRANCH  15  18
ATOM     18  C   UNL     1       4.027   6.666  17.774  0.00  0.00    +0.000 A 
ATOM     19  C   UNL     1       5.391   7.086  17.795  0.00  0.00    +0.000 A 
ATOM     20  C   UNL     1       6.462   6.253  17.458  0.00  0.00    +0.000 A 
ATOM     21  C   UNL     1       6.206   4.943  17.114  0.00  0.00    +0.000 A 
ATOM     22  C   UNL     1       4.889   4.479  17.108  0.00  0.00    +0.000 A 
ATOM     23  C   UNL     1       3.799   5.320  17.423  0.00  0.00    +0.000 A 
BRANCH  23  24
ATOM     24  O   UNL     1       2.623   4.619  17.454  0.00  0.00    +0.000 OA
ATOM     25  C   UNL     1       2.593   3.385  18.157  0.00  0.00    +0.000 C 
ENDBRANCH  23  24
ENDBRANCH  15  18
BRANCH  17  26
ATOM     26  O   UNL     1       2.170  10.914  17.185  0.00  0.00    +0.000 OA
ATOM     27  C   UNL     1       2.580  12.109  17.829  0.00  0.00    +0.000 C 
ENDBRANCH  17  26
ENDBRANCH  10  11
BRANCH   1  28
ATOM     28  C   UNL     1       0.987  11.423  21.202  0.00  0.00    +0.000 C 
ATOM     29  O   UNL     1       1.680  12.428  21.166  0.00  0.00    +0.000 OA
BRANCH  28  30
ATOM     30  O   UNL     1       1.135  10.379  22.047  0.00  0.00    +0.000 OA
BRANCH  30  32
ATOM     31  C   UNL     1      -0.468   8.649  22.603  0.00  0.00    +0.000 C 
ATOM     32  C   UNL     1      -0.025  10.076  22.845  0.00  0.00    +0.000 C 
ENDBRANCH  30  32
ENDBRANCH  28  30
ENDBRANCH   1  28
BRANCH   5  33
ATOM     33  O   UNL     1      -4.576  12.306  18.340  0.00  0.00    +0.000 OA
ATOM     34  C   UNL     1      -5.865  11.730  18.498  0.00  0.00    +0.000 C 
ENDBRANCH   5  33
TORSDOF 8
ENDMDL
MODEL 4
REMARK VINA RESULT:      -6.8      1.823      4.635
REMARK  Name = 
REMARK  12 active torsions:
REMARK  status: ('A' for Active; 'I' for Inactive)
REMARK    1  A    between atoms: C_1  and  C_2
REMARK    2  A    between atoms: C_2  and  O_3
REMARK    3  A    between atoms: O_3  and  C_4
REMARK    4  A    between atoms: C_4  and  C_6
REMARK    5  A    between atoms: C_10  and  O_11
REMARK    6  A    between atoms: O_11  and  C_12
REMARK    7  A    between atoms: C_17  and  C_18
REMARK    8  A    between atoms: C_22  and  C_23
REMARK    9  A    between atoms: C_28  and  O_29
REMARK   10  A    between atoms: O_29  and  C_30
REMARK   11  A    between atoms: C_32  and  O_33
REMARK   12  A    between atoms: O_33  and  C_34
REMARK                            x       y       z     vdW  Elec       q    Type
REMARK                         _______ _______ _______ _____ _____    ______ ____
ROOT
ATOM      1  C   UNL     1      -0.836  12.934  19.377  0.00  0.00    +0.000 A 
ATOM      2  C   UNL     1      -1.126  14.250  19.072  0.00  0.00    +0.000 A 
ATOM      3  N   UNL     1      -0.201  15.213  18.891  0.00  0.00    +0.000 NA
ATOM      4  C   UNL     1       1.105  14.913  19.019  0.00  0.00    +0.000 A 
ATOM      5  C   UNL     1       2.057  15.957  18.997  0.00  0.00    +0.000 A 
ATOM      6  C   UNL     1       3.417  15.708  19.206  0.00  0.00    +0.000 A 
ATOM      7  C   UNL     1       3.863  14.407  19.315  0.00  0.00    +0.000 A 
ATOM      8  C   UNL     1       2.944  13.367  19.238  0.00  0.00    +0.000 A 
ATOM      9  C   UNL     1       1.531  13.572  19.197  0.00  0.00    +0.000 A 
ATOM     10  C   UNL     1       0.516  12.533  19.352  0.00  0.00    +0.000 A 
ENDROOT
BRANCH  10  11
ATOM     11  C   UNL     1       0.918  11.101  19.503  0.00  0.00    +0.000 A 
ATOM     12  C   UNL     1       1.376  10.417  18.365  0.00  0.00    +0.000 A 
ATOM     13  C   UNL     1       1.636   9.055  18.386  0.00  0.00    +0.000 A 
ATOM     14  F   UNL     1       1.835   8.450  17.206  0.00  0.00    +0.000 F 
ATOM     15  C   UNL     1       1.691   8.380  19.596  0.00  0.00    +0.000 A 
ATOM     16  N   UNL     1       1.353   9.035  20.733  0.00  0.00    +0.000 NA
ATOM     17  C   UNL     1       0.911  10.329  20.676  0.00  0.00    +0.000 A 
BRANCH  15  18
ATOM     18  C   UNL     1       2.235   7.002  19.709  0.00  0.00    +0.000 A 
ATOM     19  C   UNL     1       1.570   6.110  20.603  0.00  0.00    +0.000 A 
ATOM     20  C   UNL     1       1.937   4.772  20.778  0.00  0.00    +0.000 A 
ATOM     21  C   UNL     1       2.977   4.263  20.030  0.00  0.00    +0.000 A 
ATOM     22  C   UNL     1       3.639   5.090  19.121  0.00  0.00    +0.000 A 
ATOM     23  C   UNL     1       3.291   6.449  18.957  0.00  0.00    +0.000 A 
BRANCH  23  24
ATOM     24  O   UNL     1       4.004   7.025  17.938  0.00  0.00    +0.000 OA
ATOM     25  C   UNL     1       4.757   6.179  17.081  0.00  0.00    +0.000 C 
ENDBRANCH  23  24
ENDBRANCH  15  18
BRANCH  17  26
ATOM     26  O   UNL     1       0.668  10.798  21.939  0.00  0.00    +0.000 OA
ATOM     27  C   UNL     1      -0.162  10.034  22.798  0.00  0.00    +0.000 C 
ENDBRANCH  17  26
ENDBRANCH  10  11
BRANCH   1  28
ATOM     28  C   UNL     1      -2.020  12.087  19.647  0.00  0.00    +0.000 C 
ATOM     29  O   UNL     1      -2.422  11.879  20.782  0.00  0.00    +0.000 OA
BRANCH  28  30
ATOM     30  O   UNL     1      -2.564  11.607  18.506  0.00  0.00    +0.000 OA
BRANCH  30  32
ATOM     31  C   UNL     1      -2.100  10.018  16.737  0.00  0.00    +0.000 C 
ATOM     32  C   UNL     1      -2.264  10.226  18.227  0.00  0.00    +0.000 C 
ENDBRANCH  30  32
ENDBRANCH  28  30
ENDBRANCH   1  28
BRANCH   5  33
ATOM     33  O   UNL     1       1.556  17.224  18.789  0.00  0.00    +0.000 OA
ATOM     34  C   UNL     1       1.641  18.146  19.866  0.00  0.00    +0.000 C 
ENDBRANCH   5  33
TORSDOF 8
ENDMDL
MODEL 5
REMARK VINA RESULT:      -6.8      2.691      8.142
REMARK  Name = 
REMARK  12 active torsions:
REMARK  status: ('A' for Active; 'I' for Inactive)
REMARK    1  A    between atoms: C_1  and  C_2
REMARK    2  A    between atoms: C_2  and  O_3
REMARK    3  A    between atoms: O_3  and  C_4
REMARK    4  A    between atoms: C_4  and  C_6
REMARK    5  A    between atoms: C_10  and  O_11
REMARK    6  A    between atoms: O_11  and  C_12
REMARK    7  A    between atoms: C_17  and  C_18
REMARK    8  A    between atoms: C_22  and  C_23
REMARK    9  A    between atoms: C_28  and  O_29
REMARK   10  A    between atoms: O_29  and  C_30
REMARK   11  A    between atoms: C_32  and  O_33
REMARK   12  A    between atoms: O_33  and  C_34
REMARK                            x       y       z     vdW  Elec       q    Type
REMARK                         _______ _______ _______ _____ _____    ______ ____
ROOT
ATOM      1  C   UNL     1       0.154  10.031  21.539  0.00  0.00    +0.000 A 
ATOM      2  C   UNL     1       0.454   8.768  22.012  0.00  0.00    +0.000 A 
ATOM      3  N   UNL     1       1.157   7.845  21.327  0.00  0.00    +0.000 NA
ATOM      4  C   UNL     1       1.605   8.132  20.091  0.00  0.00    +0.000 A 
ATOM      5  C   UNL     1       2.192   7.106  19.315  0.00  0.00    +0.000 A 
ATOM      6  C   UNL     1       2.599   7.333  17.997  0.00  0.00    +0.000 A 
ATOM      7  C   UNL     1       2.545   8.608  17.476  0.00  0.00    +0.000 A 
ATOM      8  C   UNL     1       2.063   9.644  18.268  0.00  0.00    +0.000 A 
ATOM      9  C   UNL     1       1.476   9.438  19.554  0.00  0.00    +0.000 A 
ATOM     10  C   UNL     1       0.746  10.440  20.327  0.00  0.00    +0.000 A 
ENDROOT
BRANCH  10  11
ATOM     11  C   UNL     1       0.619  11.840  19.818  0.00  0.00    +0.000 A 
ATOM     12  C   UNL     1       1.494  12.813  20.327  0.00  0.00    +0.000 A 
ATOM     13  C   UNL     1       1.356  14.157  20.015  0.00  0.00    +0.000 A 
ATOM     14  F   UNL     1       2.080  15.030  20.729  0.00  0.00    +0.000 F 
ATOM     15  C   UNL     1       0.501  14.544  18.994  0.00  0.00    +0.000 A 
ATOM     16  N   UNL     1      -0.290  13.616  18.406  0.00  0.00    +0.000 NA
ATOM     17  C   UNL     1      -0.283  12.322  18.855  0.00  0.00    +0.000 A 
BRANCH  15  18
ATOM     18  C   UNL     1       0.518  15.919  18.428  0.00  0.00    +0.000 A 
ATOM     19  C   UNL     1      -0.671  16.696  18.570  0.00  0.00    +0.000 A 
ATOM     20  C   UNL     1      -0.789  18.019  18.132  0.00  0.00    +0.000 A 
ATOM     21  C   UNL     1       0.305  18.631  17.558  0.00  0.00    +0.000 A 
ATOM     22  C   UNL     1       1.499  17.919  17.424  0.00  0.00    +0.000 A 
ATOM     23  C   UNL     1       1.618  16.575  17.840  0.00  0.00    +0.000 A 
BRANCH  23  24
ATOM     24  O   UNL     1       2.906  16.126  17.707  0.00  0.00    +0.000 OA
ATOM     25  C   UNL     1       3.914  16.723  18.510  0.00  0.00    +0.000 C 
ENDBRANCH  23  24
ENDBRANCH  15  18
BRANCH  17  26
ATOM     26  O   UNL     1      -1.124  11.556  18.093  0.00  0.00    +0.000 OA
ATOM     27  C   UNL     1      -2.522  11.690  18.283  0.00  0.00    +0.000 C 
ENDBRANCH  17  26
ENDBRANCH  10  11
BRANCH   1  28
ATOM     28  C   UNL     1      -0.731  10.826  22.421  0.00  0.00    +0.000 C 
ATOM     29  O   UNL     1      -0.512  10.948  23.617  0.00  0.00    +0.000 OA
BRANCH  28  30
ATOM     30  O   UNL     1      -1.762  11.371  21.738  0.00  0.00    +0.000 OA
BRANCH  30  32
ATOM     31  C   UNL     1      -3.365  12.549  23.123  0.00  0.00    +0.000 C 
ATOM     32  C   UNL     1      -2.172  12.673  22.198  0.00  0.00    +0.000 C 
ENDBRANCH  30  32
ENDBRANCH  28  30
ENDBRANCH   1  28
BRANCH   5  33
ATOM     33  O   UNL     1       2.303   5.877  19.928  0.00  0.00    +0.000 OA
ATOM     34  C   UNL     1       3.510   5.155  19.730  0.00  0.00    +0.000 C 
ENDBRANCH   5  33
TORSDOF 8
ENDMDL
MODEL 6
REMARK VINA RESULT:      -6.8      1.911      4.324
REMARK  Name = 
REMARK  12 active torsions:
REMARK  status: ('A' for Active; 'I' for Inactive)
REMARK    1  A    between atoms: C_1  and  C_2
REMARK    2  A    between atoms: C_2  and  O_3
REMARK    3  A    between atoms: O_3  and  C_4
REMARK    4  A    between atoms: C_4  and  C_6
REMARK    5  A    between atoms: C_10  and  O_11
REMARK    6  A    between atoms: O_11  and  C_12
REMARK    7  A    between atoms: C_17  and  C_18
REMARK    8  A    between atoms: C_22  and  C_23
REMARK    9  A    between atoms: C_28  and  O_29
REMARK   10  A    between atoms: O_29  and  C_30
REMARK   11  A    between atoms: C_32  and  O_33
REMARK   12  A    between atoms: O_33  and  C_34
REMARK                            x       y       z     vdW  Elec       q    Type
REMARK                         _______ _______ _______ _____ _____    ______ ____
ROOT
ATOM      1  C   UNL     1      -0.872  11.352  18.351  0.00  0.00    +0.000 A 
ATOM      2  C   UNL     1      -1.355  12.629  18.148  0.00  0.00    +0.000 A 
ATOM      3  N   UNL     1      -0.752  13.751  18.588  0.00  0.00    +0.000 NA
ATOM      4  C   UNL     1       0.395  13.660  19.287  0.00  0.00    +0.000 A 
ATOM      5  C   UNL     1       0.930  14.822  19.889  0.00  0.00    +0.000 A 
ATOM      6  C   UNL     1       2.073  14.766  20.690  0.00  0.00    +0.000 A 
ATOM      7  C   UNL     1       2.771  13.582  20.802  0.00  0.00    +0.000 A 
ATOM      8  C   UNL     1       2.307  12.456  20.130  0.00  0.00    +0.000 A 
ATOM      9  C   UNL     1       1.057  12.415  19.442  0.00  0.00    +0.000 A 
ATOM     10  C   UNL     1       0.409  11.213  18.923  0.00  0.00    +0.000 A 
ENDROOT
BRANCH  10  11
ATOM     11  C   UNL     1       1.088   9.885  19.030  0.00  0.00    +0.000 A 
ATOM     12  C   UNL     1       1.866   9.449  17.945  0.00  0.00    +0.000 A 
ATOM     13  C   UNL     1       2.414   8.176  17.903  0.00  0.00    +0.000 A 
ATOM     14  F   UNL     1       2.934   7.770  16.736  0.00  0.00    +0.000 F 
ATOM     15  C   UNL     1       2.417   7.387  19.044  0.00  0.00    +0.000 A 
ATOM     16  N   UNL     1       1.760   7.818  20.147  0.00  0.00    +0.000 NA
ATOM     17  C   UNL     1       1.059   8.994  20.115  0.00  0.00    +0.000 A 
BRANCH  15  18
ATOM     18  C   UNL     1       3.227   6.144  19.144  0.00  0.00    +0.000 A 
ATOM     19  C   UNL     1       2.614   5.016  19.766  0.00  0.00    +0.000 A 
ATOM     20  C   UNL     1       3.233   3.768  19.889  0.00  0.00    +0.000 A 
ATOM     21  C   UNL     1       4.492   3.593  19.357  0.00  0.00    +0.000 A 
ATOM     22  C   UNL     1       5.120   4.661  18.712  0.00  0.00    +0.000 A 
ATOM     23  C   UNL     1       4.512   5.931  18.606  0.00  0.00    +0.000 A 
BRANCH  23  24
ATOM     24  O   UNL     1       5.269   6.782  17.843  0.00  0.00    +0.000 OA
ATOM     25  C   UNL     1       6.069   6.227  16.809  0.00  0.00    +0.000 C 
ENDBRANCH  23  24
ENDBRANCH  15  18
BRANCH  17  26
ATOM     26  O   UNL     1       0.513   9.248  21.344  0.00  0.00    +0.000 OA
ATOM     27  C   UNL     1       1.363   9.239  22.479  0.00  0.00    +0.000 C 
ENDBRANCH  17  26
ENDBRANCH  10  11
BRANCH   1  28
ATOM     28  C   UNL     1      -1.767  10.271  17.879  0.00  0.00    +0.000 C 
ATOM     29  O   UNL     1      -2.399   9.569  18.655  0.00  0.00    +0.000 OA
BRANCH  28  30
ATOM     30  O   UNL     1      -1.783  10.185  16.530  0.00  0.00    +0.000 OA
BRANCH  30  32
ATOM     31  C   UNL     1      -3.043  10.117  14.460  0.00  0.00    +0.000 C 
ATOM     32  C   UNL     1      -3.071   9.890  15.957  0.00  0.00    +0.000 C 
ENDBRANCH  30  32
ENDBRANCH  28  30
ENDBRANCH   1  28
BRANCH   5  33
ATOM     33  O   UNL     1       0.237  15.991  19.660  0.00  0.00    +0.000 OA
ATOM     34  C   UNL     1       0.773  16.892  18.701  0.00  0.00    +0.000 C 
ENDBRANCH   5  33
TORSDOF 8
ENDMDL
MODEL 7
REMARK VINA RESULT:      -6.7      2.857      8.101
REMARK  Name = 
REMARK  12 active torsions:
REMARK  status: ('A' for Active; 'I' for Inactive)
REMARK    1  A    between atoms: C_1  and  C_2
REMARK    2  A    between atoms: C_2  and  O_3
REMARK    3  A    between atoms: O_3  and  C_4
REMARK    4  A    between atoms: C_4  and  C_6
REMARK    5  A    between atoms: C_10  and  O_11
REMARK    6  A    between atoms: O_11  and  C_12
REMARK    7  A    between atoms: C_17  and  C_18
REMARK    8  A    between atoms: C_22  and  C_23
REMARK    9  A    between atoms: C_28  and  O_29
REMARK   10  A    between atoms: O_29  and  C_30
REMARK   11  A    between atoms: C_32  and  O_33
REMARK   12  A    between atoms: O_33  and  C_34
REMARK                            x       y       z     vdW  Elec       q    Type
REMARK                         _______ _______ _______ _____ _____    ______ ____
ROOT
ATOM      1  C   UNL     1      -0.094  10.665  21.931  0.00  0.00    +0.000 A 
ATOM      2  C   UNL     1       0.132   9.422  22.488  0.00  0.00    +0.000 A 
ATOM      3  N   UNL     1       0.772   8.412  21.866  0.00  0.00    +0.000 NA
ATOM      4  C   UNL     1       1.227   8.586  20.611  0.00  0.00    +0.000 A 
ATOM      5  C   UNL     1       1.744   7.475  19.906  0.00  0.00    +0.000 A 
ATOM      6  C   UNL     1       2.155   7.586  18.575  0.00  0.00    +0.000 A 
ATOM      7  C   UNL     1       2.176   8.824  17.967  0.00  0.00    +0.000 A 
ATOM      8  C   UNL     1       1.764   9.939  18.688  0.00  0.00    +0.000 A 
ATOM      9  C   UNL     1       1.175   9.858  19.987  0.00  0.00    +0.000 A 
ATOM     10  C   UNL     1       0.513  10.953  20.691  0.00  0.00    +0.000 A 
ENDROOT
BRANCH  10  11
ATOM     11  C   UNL     1       0.469  12.321  20.088  0.00  0.00    +0.000 A 
ATOM     12  C   UNL     1       1.613  13.128  20.190  0.00  0.00    +0.000 A 
ATOM     13  C   UNL     1       1.612  14.454  19.783  0.00  0.00    +0.000 A 
ATOM     14  F   UNL     1       2.664  15.206  20.137  0.00  0.00    +0.000 F 
ATOM     15  C   UNL     1       0.553  14.945  19.034  0.00  0.00    +0.000 A 
ATOM     16  N   UNL     1      -0.530  14.160  18.826  0.00  0.00    +0.000 NA
ATOM     17  C   UNL     1      -0.599  12.917  19.397  0.00  0.00    +0.000 A 
BRANCH  15  18
ATOM     18  C   UNL     1       0.620  16.256  18.336  0.00  0.00    +0.000 A 
ATOM     19  C   UNL     1       1.794  16.528  17.571  0.00  0.00    +0.000 A 
ATOM     20  C   UNL     1       1.978  17.696  16.824  0.00  0.00    +0.000 A 
ATOM     21  C   UNL     1       0.966  18.631  16.788  0.00  0.00    +0.000 A 
ATOM     22  C   UNL     1      -0.214  18.395  17.498  0.00  0.00    +0.000 A 
ATOM     23  C   UNL     1      -0.397  17.231  18.275  0.00  0.00    +0.000 A 
BRANCH  23  24
ATOM     24  O   UNL     1      -1.666  17.171  18.788  0.00  0.00    +0.000 OA
ATOM     25  C   UNL     1      -1.865  17.555  20.141  0.00  0.00    +0.000 C 
ENDBRANCH  23  24
ENDBRANCH  15  18
BRANCH  17  26
ATOM     26  O   UNL     1      -1.757  12.291  19.021  0.00  0.00    +0.000 OA
ATOM     27  C   UNL     1      -1.745  11.487  17.853  0.00  0.00    +0.000 C 
ENDBRANCH  17  26
ENDBRANCH  10  11
BRANCH   1  28
ATOM     28  C   UNL     1      -0.922  11.572  22.759  0.00  0.00    +0.000 C 
ATOM     29  O   UNL     1      -2.049  11.269  23.120  0.00  0.00    +0.000 OA
BRANCH  28  30
ATOM     30  O   UNL     1      -0.274  12.724  23.043  0.00  0.00    +0.000 OA
BRANCH  30  32
ATOM     31  C   UNL     1      -0.326  15.128  22.738  0.00  0.00    +0.000 C 
ATOM     32  C   UNL     1      -1.116  13.891  23.109  0.00  0.00    +0.000 C 
ENDBRANCH  30  32
ENDBRANCH  28  30
ENDBRANCH   1  28
BRANCH   5  33
ATOM     33  O   UNL     1       1.784   6.286  20.602  0.00  0.00    +0.000 OA
ATOM     34  C   UNL     1       2.520   5.216  20.026  0.00  0.00    +0.000 C 
ENDBRANCH   5  33
TORSDOF 8
ENDMDL
MODEL 8
REMARK VINA RESULT:      -6.7      2.802      9.005
REMARK  Name = 
REMARK  12 active torsions:
REMARK  status: ('A' for Active; 'I' for Inactive)
REMARK    1  A    between atoms: C_1  and  C_2
REMARK    2  A    between atoms: C_2  and  O_3
REMARK    3  A    between atoms: O_3  and  C_4
REMARK    4  A    between atoms: C_4  and  C_6
REMARK    5  A    between atoms: C_10  and  O_11
REMARK    6  A    between atoms: O_11  and  C_12
REMARK    7  A    between atoms: C_17  and  C_18
REMARK    8  A    between atoms: C_22  and  C_23
REMARK    9  A    between atoms: C_28  and  O_29
REMARK   10  A    between atoms: O_29  and  C_30
REMARK   11  A    between atoms: C_32  and  O_33
REMARK   12  A    between atoms: O_33  and  C_34
REMARK                            x       y       z     vdW  Elec       q    Type
REMARK                         _______ _______ _______ _____ _____    ______ ____
ROOT
ATOM      1  C   UNL     1       3.236   4.444  17.271  0.00  0.00    +0.000 A 
ATOM      2  C   UNL     1       4.108   3.618  16.589  0.00  0.00    +0.000 A 
ATOM      3  N   UNL     1       5.377   3.941  16.274  0.00  0.00    +0.000 NA
ATOM      4  C   UNL     1       5.861   5.149  16.621  0.00  0.00    +0.000 A 
ATOM      5  C   UNL     1       7.130   5.546  16.142  0.00  0.00    +0.000 A 
ATOM      6  C   UNL     1       7.642   6.819  16.407  0.00  0.00    +0.000 A 
ATOM      7  C   UNL     1       6.959   7.668  17.253  0.00  0.00    +0.000 A 
ATOM      8  C   UNL     1       5.758   7.245  17.810  0.00  0.00    +0.000 A 
ATOM      9  C   UNL     1       5.108   6.028  17.440  0.00  0.00    +0.000 A 
ATOM     10  C   UNL     1       3.747   5.644  17.806  0.00  0.00    +0.000 A 
ENDROOT
BRANCH  10  11
ATOM     11  C   UNL     1       2.930   6.522  18.699  0.00  0.00    +0.000 A 
ATOM     12  C   UNL     1       2.499   7.761  18.197  0.00  0.00    +0.000 A 
ATOM     13  C   UNL     1       1.858   8.692  19.001  0.00  0.00    +0.000 A 
ATOM     14  F   UNL     1       1.700   9.927  18.502  0.00  0.00    +0.000 F 
ATOM     15  C   UNL     1       1.403   8.324  20.258  0.00  0.00    +0.000 A 
ATOM     16  N   UNL     1       1.713   7.097  20.739  0.00  0.00    +0.000 NA
ATOM     17  C   UNL     1       2.511   6.254  20.013  0.00  0.00    +0.000 A 
BRANCH  15  18
ATOM     18  C   UNL     1       0.474   9.178  21.044  0.00  0.00    +0.000 A 
ATOM     19  C   UNL     1       0.544   9.078  22.467  0.00  0.00    +0.000 A 
ATOM     20  C   UNL     1      -0.231   9.852  23.336  0.00  0.00    +0.000 A 
ATOM     21  C   UNL     1      -1.093  10.788  22.806  0.00  0.00    +0.000 A 
ATOM     22  C   UNL     1      -1.175  10.942  21.420  0.00  0.00    +0.000 A 
ATOM     23  C   UNL     1      -0.414  10.147  20.535  0.00  0.00    +0.000 A 
BRANCH  23  24
ATOM     24  O   UNL     1      -0.581  10.551  19.237  0.00  0.00    +0.000 OA
ATOM     25  C   UNL     1      -1.861  11.019  18.836  0.00  0.00    +0.000 C 
ENDBRANCH  23  24
ENDBRANCH  15  18
BRANCH  17  26
ATOM     26  O   UNL     1       2.658   5.063  20.671  0.00  0.00    +0.000 OA
ATOM     27  C   UNL     1       1.493   4.342  21.036  0.00  0.00    +0.000 C 
ENDBRANCH  17  26
ENDBRANCH  10  11
BRANCH   1  28
ATOM     28  C   UNL     1       1.857   3.918  17.397  0.00  0.00    +0.000 C 
ATOM     29  O   UNL     1       0.881   4.653  17.376  0.00  0.00    +0.000 OA
BRANCH  28  30
ATOM     30  O   UNL     1       1.843   2.573  17.528  0.00  0.00    +0.000 OA
BRANCH  30  32
ATOM     31  C   UNL     1       3.404   1.293  18.868  0.00  0.00    +0.000 C 
ATOM     32  C   UNL     1       2.118   2.091  18.857  0.00  0.00    +0.000 C 
ENDBRANCH  30  32
ENDBRANCH  28  30
ENDBRANCH   1  28
BRANCH   5  33
ATOM     33  O   UNL     1       7.803   4.617  15.379  0.00  0.00    +0.000 OA
ATOM     34  C   UNL     1       7.558   4.617  13.980  0.00  0.00    +0.000 C 
ENDBRANCH   5  33
TORSDOF 8
ENDMDL
MODEL 9
REMARK VINA RESULT:      -6.6      2.067      4.671
REMARK  Name = 
REMARK  12 active torsions:
REMARK  status: ('A' for Active; 'I' for Inactive)
REMARK    1  A    between atoms: C_1  and  C_2
REMARK    2  A    between atoms: C_2  and  O_3
REMARK    3  A    between atoms: O_3  and  C_4
REMARK    4  A    between atoms: C_4  and  C_6
REMARK    5  A    between atoms: C_10  and  O_11
REMARK    6  A    between atoms: O_11  and  C_12
REMARK    7  A    between atoms: C_17  and  C_18
REMARK    8  A    between atoms: C_22  and  C_23
REMARK    9  A    between atoms: C_28  and  O_29
REMARK   10  A    between atoms: O_29  and  C_30
REMARK   11  A    between atoms: C_32  and  O_33
REMARK   12  A    between atoms: O_33  and  C_34
REMARK                            x       y       z     vdW  Elec       q    Type
REMARK                         _______ _______ _______ _____ _____    ______ ____
ROOT
ATOM      1  C   UNL     1      -0.788  12.879  19.603  0.00  0.00    +0.000 A 
ATOM      2  C   UNL     1      -1.104  14.187  19.289  0.00  0.00    +0.000 A 
ATOM      3  N   UNL     1      -0.206  15.121  18.919  0.00  0.00    +0.000 NA
ATOM      4  C   UNL     1       1.099  14.798  18.850  0.00  0.00    +0.000 A 
ATOM      5  C   UNL     1       2.050  15.820  18.628  0.00  0.00    +0.000 A 
ATOM      6  C   UNL     1       3.422  15.549  18.627  0.00  0.00    +0.000 A 
ATOM      7  C   UNL     1       3.861  14.245  18.722  0.00  0.00    +0.000 A 
ATOM      8  C   UNL     1       2.926  13.223  18.840  0.00  0.00    +0.000 A 
ATOM      9  C   UNL     1       1.528  13.457  19.017  0.00  0.00    +0.000 A 
ATOM     10  C   UNL     1       0.535  12.448  19.379  0.00  0.00    +0.000 A 
ENDROOT
BRANCH  10  11
ATOM     11  C   UNL     1       0.936  11.015  19.527  0.00  0.00    +0.000 A 
ATOM     12  C   UNL     1       1.344  10.318  18.379  0.00  0.00    +0.000 A 
ATOM     13  C   UNL     1       1.598   8.955  18.403  0.00  0.00    +0.000 A 
ATOM     14  F   UNL     1       1.747   8.338  17.221  0.00  0.00    +0.000 F 
ATOM     15  C   UNL     1       1.696   8.291  19.616  0.00  0.00    +0.000 A 
ATOM     16  N   UNL     1       1.407   8.957  20.759  0.00  0.00    +0.000 NA
ATOM     17  C   UNL     1       0.971  10.254  20.708  0.00  0.00    +0.000 A 
BRANCH  15  18
ATOM     18  C   UNL     1       2.237   6.910  19.721  0.00  0.00    +0.000 A 
ATOM     19  C   UNL     1       1.557   6.009  20.594  0.00  0.00    +0.000 A 
ATOM     20  C   UNL     1       1.920   4.668  20.758  0.00  0.00    +0.000 A 
ATOM     21  C   UNL     1       2.970   4.166  20.020  0.00  0.00    +0.000 A 
ATOM     22  C   UNL     1       3.648   5.004  19.131  0.00  0.00    +0.000 A 
ATOM     23  C   UNL     1       3.304   6.365  18.978  0.00  0.00    +0.000 A 
BRANCH  23  24
ATOM     24  O   UNL     1       4.033   6.952  17.978  0.00  0.00    +0.000 OA
ATOM     25  C   UNL     1       4.758   6.112  17.091  0.00  0.00    +0.000 C 
ENDBRANCH  23  24
ENDBRANCH  15  18
BRANCH  17  26
ATOM     26  O   UNL     1       0.779  10.736  21.975  0.00  0.00    +0.000 OA
ATOM     27  C   UNL     1       0.036   9.952  22.893  0.00  0.00    +0.000 C 
ENDBRANCH  17  26
ENDBRANCH  10  11
BRANCH   1  28
ATOM     28  C   UNL     1      -1.926  12.070  20.096  0.00  0.00    +0.000 C 
ATOM     29  O   UNL     1      -2.630  11.417  19.341  0.00  0.00    +0.000 OA
BRANCH  28  30
ATOM     30  O   UNL     1      -2.059  12.155  21.439  0.00  0.00    +0.000 OA
BRANCH  30  32
ATOM     31  C   UNL     1      -3.477  12.462  23.380  0.00  0.00    +0.000 C 
ATOM     32  C   UNL     1      -3.321  12.683  21.890  0.00  0.00    +0.000 C 
ENDBRANCH  30  32
ENDBRANCH  28  30
ENDBRANCH   1  28
BRANCH   5  33
ATOM     33  O   UNL     1       1.541  17.087  18.446  0.00  0.00    +0.000 OA
ATOM     34  C   UNL     1       1.805  17.726  17.205  0.00  0.00    +0.000 C 
ENDBRANCH   5  33
TORSDOF 8
ENDMDL
