MODEL 1
REMARK VINA RESULT:      -7.3      0.000      0.000
REMARK  Name = 
REMARK  13 active torsions:
REMARK  status: ('A' for Active; 'I' for Inactive)
REMARK    1  A    between atoms: C_1  and  C_2
REMARK    2  A    between atoms: C_2  and  C_3
REMARK    3  A    between atoms: C_3  and  N_4
REMARK    4  A    between atoms: C_3  and  C_25
REMARK    5  A    between atoms: N_8  and  C_9
REMARK    6  A    between atoms: C_9  and  C_10
REMARK    7  A    between atoms: N_19  and  C_20
REMARK    8  A    between atoms: C_20  and  C_21
REMARK    9  A    between atoms: C_20  and  C_22
REMARK   10  A    between atoms: C_25  and  O_26
REMARK   11  A    between atoms: C_25  and  C_27
REMARK   12  A    between atoms: C_27  and  C_28
REMARK   13  A    between atoms: C_27  and  C_29
REMARK                            x       y       z     vdW  Elec       q    Type
REMARK                         _______ _______ _______ _____ _____    ______ ____
ROOT
ATOM      1  N   UNL     1       4.989   4.898  16.297  0.00  0.00    +0.000 N 
ATOM      2  C   UNL     1       4.125   5.314  17.307  0.00  0.00    +0.000 A 
ATOM      3  N   UNL     1       3.694   6.592  17.287  0.00  0.00    +0.000 NA
ATOM      4  C   UNL     1       2.878   7.067  18.260  0.00  0.00    +0.000 A 
ATOM      5  N   UNL     1       2.553   8.422  18.210  0.00  0.00    +0.000 N 
ATOM      6  C   UNL     1       2.433   6.162  19.235  0.00  0.00    +0.000 A 
ATOM      7  N   UNL     1       1.565   6.319  20.298  0.00  0.00    +0.000 NA
ATOM      8  C   UNL     1       1.496   5.133  20.849  0.00  0.00    +0.000 A 
ATOM      9  N   UNL     1       2.279   4.214  20.193  0.00  0.00    +0.000 N 
ATOM     10  C   UNL     1       2.900   4.860  19.145  0.00  0.00    +0.000 A 
ATOM     11  N   UNL     1       3.758   4.382  18.220  0.00  0.00    +0.000 NA
ATOM     12  H   UNL     1       5.434   4.024  16.563  0.00  0.00    +0.000 HD
ATOM     13  H   UNL     1       2.010   8.602  17.373  0.00  0.00    +0.000 HD
ENDROOT
BRANCH   9  14
ATOM     14  C   UNL     1       2.336   2.817  20.586  0.00  0.00    +0.000 C 
ATOM     15  C   UNL     1       1.647   2.562  21.922  0.00  0.00    +0.000 C 
ATOM     16  C   UNL     1       1.859   1.881  19.482  0.00  0.00    +0.000 C 
ENDBRANCH   9  14
BRANCH   1  17
ATOM     17  C   UNL     1       5.873   5.880  15.632  0.00  0.00    +0.000 C 
BRANCH  17  19
ATOM     18  C   UNL     1       5.939   3.974  13.870  0.00  0.00    +0.000 C 
ATOM     19  C   UNL     1       6.601   5.218  14.439  0.00  0.00    +0.000 C 
ENDBRANCH  17  19
BRANCH  17  20
ATOM     20  C   UNL     1       6.932   6.417  16.675  0.00  0.00    +0.000 C 
BRANCH  20  21
ATOM     21  C   UNL     1       7.157   5.535  17.939  0.00  0.00    +0.000 C 
ATOM     22  C   UNL     1       7.925   4.248  17.626  0.00  0.00    +0.000 C 
ATOM     23  C   UNL     1       7.894   6.307  19.045  0.00  0.00    +0.000 C 
ENDBRANCH  20  21
BRANCH  20  24
ATOM     24  O   UNL     1       6.559   7.746  17.096  0.00  0.00    +0.000 OA
ATOM     25  H   UNL     1       7.369   8.231  17.323  0.00  0.00    +0.000 HD
ENDBRANCH  20  24
ENDBRANCH  17  20
ENDBRANCH   1  17
BRANCH   5  26
ATOM     26  C   UNL     1       1.988   9.006  19.417  0.00  0.00    +0.000 C 
BRANCH  26  27
ATOM     27  C   UNL     1       0.695   9.699  19.066  0.00  0.00    +0.000 A 
ATOM     28  C   UNL     1       0.162  10.687  19.901  0.00  0.00    +0.000 A 
ATOM     29  C   UNL     1      -1.015  11.342  19.543  0.00  0.00    +0.000 A 
ATOM     30  C   UNL     1      -1.662  11.019  18.349  0.00  0.00    +0.000 A 
ATOM     31  C   UNL     1      -1.134  10.042  17.508  0.00  0.00    +0.000 A 
ATOM     32  C   UNL     1       0.042   9.392  17.861  0.00  0.00    +0.000 A 
ENDBRANCH  26  27
ENDBRANCH   5  26
TORSDOF 8
ENDMDL
MODEL 2
REMARK VINA RESULT:      -7.3      0.793      1.233
REMARK  Name = 
REMARK  13 active torsions:
REMARK  status: ('A' for Active; 'I' for Inactive)
REMARK    1  A    between atoms: C_1  and  C_2
REMARK    2  A    between atoms: C_2  and  C_3
REMARK    3  A    between atoms: C_3  and  N_4
REMARK    4  A    between atoms: C_3  and  C_25
REMARK    5  A    between atoms: N_8  and  C_9
REMARK    6  A    between atoms: C_9  and  C_10
REMARK    7  A    between atoms: N_19  and  C_20
REMARK    8  A    between atoms: C_20  and  C_21
REMARK    9  A    between atoms: C_20  and  C_22
REMARK   10  A    between atoms: C_25  and  O_26
REMARK   11  A    between atoms: C_25  and  C_27
REMARK   12  A    between atoms: C_27  and  C_28
REMARK   13  A    between atoms: C_27  and  C_29
REMARK                            x       y       z     vdW  Elec       q    Type
REMARK                         _______ _______ _______ _____ _____    ______ ____
ROOT
ATOM      1  N   UNL     1       4.820   4.719  16.368  0.00  0.00    +0.000 N 
ATOM      2  C   UNL     1       3.967   5.158  17.377  0.00  0.00    +0.000 A 
ATOM      3  N   UNL     1       3.547   6.440  17.341  0.00  0.00    +0.000 NA
ATOM      4  C   UNL     1       2.742   6.936  18.312  0.00  0.00    +0.000 A 
ATOM      5  N   UNL     1       2.428   8.292  18.244  0.00  0.00    +0.000 N 
ATOM      6  C   UNL     1       2.296   6.049  19.303  0.00  0.00    +0.000 A 
ATOM      7  N   UNL     1       1.437   6.230  20.370  0.00  0.00    +0.000 NA
ATOM      8  C   UNL     1       1.361   5.053  20.939  0.00  0.00    +0.000 A 
ATOM      9  N   UNL     1       2.132   4.118  20.292  0.00  0.00    +0.000 N 
ATOM     10  C   UNL     1       2.751   4.742  19.231  0.00  0.00    +0.000 A 
ATOM     11  N   UNL     1       3.599   4.243  18.307  0.00  0.00    +0.000 NA
ATOM     12  H   UNL     1       5.260   3.846  16.644  0.00  0.00    +0.000 HD
ATOM     13  H   UNL     1       1.881   8.464  17.407  0.00  0.00    +0.000 HD
ENDROOT
BRANCH   9  14
ATOM     14  C   UNL     1       2.180   2.726  20.707  0.00  0.00    +0.000 C 
ATOM     15  C   UNL     1       1.452   2.489  22.025  0.00  0.00    +0.000 C 
ATOM     16  C   UNL     1       1.738   1.774  19.602  0.00  0.00    +0.000 C 
ENDBRANCH   9  14
BRANCH   1  17
ATOM     17  C   UNL     1       5.708   5.684  15.682  0.00  0.00    +0.000 C 
BRANCH  17  19
ATOM     18  C   UNL     1       6.091   3.727  14.018  0.00  0.00    +0.000 C 
ATOM     19  C   UNL     1       5.966   5.227  14.227  0.00  0.00    +0.000 C 
ENDBRANCH  17  19
BRANCH  17  20
ATOM     20  C   UNL     1       7.077   5.778  16.464  0.00  0.00    +0.000 C 
BRANCH  20  21
ATOM     21  C   UNL     1       7.067   6.638  17.764  0.00  0.00    +0.000 C 
ATOM     22  C   UNL     1       7.710   5.915  18.949  0.00  0.00    +0.000 C 
ATOM     23  C   UNL     1       7.767   7.990  17.556  0.00  0.00    +0.000 C 
ENDBRANCH  20  21
BRANCH  20  24
ATOM     24  O   UNL     1       8.100   6.283  15.581  0.00  0.00    +0.000 OA
ATOM     25  H   UNL     1       8.504   5.530  15.120  0.00  0.00    +0.000 HD
ENDBRANCH  20  24
ENDBRANCH  17  20
ENDBRANCH   1  17
BRANCH   5  26
ATOM     26  C   UNL     1       1.877   8.900  19.445  0.00  0.00    +0.000 C 
BRANCH  26  27
ATOM     27  C   UNL     1       0.842   9.923  19.046  0.00  0.00    +0.000 A 
ATOM     28  C   UNL     1      -0.200   9.586  18.175  0.00  0.00    +0.000 A 
ATOM     29  C   UNL     1      -1.167  10.534  17.846  0.00  0.00    +0.000 A 
ATOM     30  C   UNL     1      -1.104  11.819  18.388  0.00  0.00    +0.000 A 
ATOM     31  C   UNL     1      -0.073  12.160  19.262  0.00  0.00    +0.000 A 
ATOM     32  C   UNL     1       0.889  11.214  19.595  0.00  0.00    +0.000 A 
ENDBRANCH  26  27
ENDBRANCH   5  26
TORSDOF 8
ENDMDL
MODEL 3
REMARK VINA RESULT:      -7.1      0.824      1.029
REMARK  Name = 
REMARK  13 active torsions:
REMARK  status: ('A' for Active; 'I' for Inactive)
REMARK    1  A    between atoms: C_1  and  C_2
REMARK    2  A    between atoms: C_2  and  C_3
REMARK    3  A    between atoms: C_3  and  N_4
REMARK    4  A    between atoms: C_3  and  C_25
REMARK    5  A    between atoms: N_8  and  C_9
REMARK    6  A    between atoms: C_9  and  C_10
REMARK    7  A    between atoms: N_19  and  C_20
REMARK    8  A    between atoms: C_20  and  C_21
REMARK    9  A    between atoms: C_20  and  C_22
REMARK   10  A    between atoms: C_25  and  O_26
REMARK   11  A    between atoms: C_25  and  C_27
REMARK   12  A    between atoms: C_27  and  C_28
REMARK   13  A    between atoms: C_27  and  C_29
REMARK                            x       y       z     vdW  Elec       q    Type
REMARK                         _______ _______ _______ _____ _____    ______ ____
ROOT
ATOM      1  N   UNL     1       4.724   4.603  16.246  0.00  0.00    +0.000 N 
ATOM      2  C   UNL     1       3.932   5.069  17.292  0.00  0.00    +0.000 A 
ATOM      3  N   UNL     1       3.558   6.365  17.276  0.00  0.00    +0.000 NA
ATOM      4  C   UNL     1       2.815   6.887  18.282  0.00  0.00    +0.000 A 
ATOM      5  N   UNL     1       2.549   8.255  18.230  0.00  0.00    +0.000 N 
ATOM      6  C   UNL     1       2.381   6.015  19.291  0.00  0.00    +0.000 A 
ATOM      7  N   UNL     1       1.577   6.224  20.395  0.00  0.00    +0.000 NA
ATOM      8  C   UNL     1       1.483   5.049  20.965  0.00  0.00    +0.000 A 
ATOM      9  N   UNL     1       2.190   4.088  20.284  0.00  0.00    +0.000 N 
ATOM     10  C   UNL     1       2.784   4.693  19.197  0.00  0.00    +0.000 A 
ATOM     11  N   UNL     1       3.572   4.166  18.236  0.00  0.00    +0.000 NA
ATOM     12  H   UNL     1       5.143   3.713  16.502  0.00  0.00    +0.000 HD
ATOM     13  H   UNL     1       1.971   8.449  17.418  0.00  0.00    +0.000 HD
ENDROOT
BRANCH   9  14
ATOM     14  C   UNL     1       2.205   2.694  20.694  0.00  0.00    +0.000 C 
ATOM     15  C   UNL     1       1.577   2.487  22.068  0.00  0.00    +0.000 C 
ATOM     16  C   UNL     1       1.629   1.768  19.629  0.00  0.00    +0.000 C 
ENDBRANCH   9  14
BRANCH   1  17
ATOM     17  C   UNL     1       5.616   5.536  15.523  0.00  0.00    +0.000 C 
BRANCH  17  19
ATOM     18  C   UNL     1       5.610   3.800  13.592  0.00  0.00    +0.000 C 
ATOM     19  C   UNL     1       5.551   5.262  14.002  0.00  0.00    +0.000 C 
ENDBRANCH  17  19
BRANCH  17  20
ATOM     20  C   UNL     1       7.096   5.346  16.040  0.00  0.00    +0.000 C 
BRANCH  20  21
ATOM     21  C   UNL     1       7.515   6.221  17.259  0.00  0.00    +0.000 C 
ATOM     22  C   UNL     1       6.775   7.559  17.303  0.00  0.00    +0.000 C 
ATOM     23  C   UNL     1       7.300   5.481  18.589  0.00  0.00    +0.000 C 
ENDBRANCH  20  21
BRANCH  20  24
ATOM     24  O   UNL     1       8.017   5.590  14.956  0.00  0.00    +0.000 OA
ATOM     25  H   UNL     1       7.935   4.862  14.317  0.00  0.00    +0.000 HD
ENDBRANCH  20  24
ENDBRANCH  17  20
ENDBRANCH   1  17
BRANCH   5  26
ATOM     26  C   UNL     1       2.073   8.879  19.455  0.00  0.00    +0.000 C 
BRANCH  26  27
ATOM     27  C   UNL     1       0.761   9.571  19.175  0.00  0.00    +0.000 A 
ATOM     28  C   UNL     1       0.139  10.351  20.156  0.00  0.00    +0.000 A 
ATOM     29  C   UNL     1      -1.054  11.012  19.867  0.00  0.00    +0.000 A 
ATOM     30  C   UNL     1      -1.627  10.904  18.599  0.00  0.00    +0.000 A 
ATOM     31  C   UNL     1      -1.009  10.135  17.614  0.00  0.00    +0.000 A 
ATOM     32  C   UNL     1       0.182   9.480  17.899  0.00  0.00    +0.000 A 
ENDBRANCH  26  27
ENDBRANCH   5  26
TORSDOF 8
ENDMDL
MODEL 4
REMARK VINA RESULT:      -7.1      0.804      1.021
REMARK  Name = 
REMARK  13 active torsions:
REMARK  status: ('A' for Active; 'I' for Inactive)
REMARK    1  A    between atoms: C_1  and  C_2
REMARK    2  A    between atoms: C_2  and  C_3
REMARK    3  A    between atoms: C_3  and  N_4
REMARK    4  A    between atoms: C_3  and  C_25
REMARK    5  A    between atoms: N_8  and  C_9
REMARK    6  A    between atoms: C_9  and  C_10
REMARK    7  A    between atoms: N_19  and  C_20
REMARK    8  A    between atoms: C_20  and  C_21
REMARK    9  A    between atoms: C_20  and  C_22
REMARK   10  A    between atoms: C_25  and  O_26
REMARK   11  A    between atoms: C_25  and  C_27
REMARK   12  A    between atoms: C_27  and  C_28
REMARK   13  A    between atoms: C_27  and  C_29
REMARK                            x       y       z     vdW  Elec       q    Type
REMARK                         _______ _______ _______ _____ _____    ______ ____
ROOT
ATOM      1  N   UNL     1       4.663   4.821  16.497  0.00  0.00    +0.000 N 
ATOM      2  C   UNL     1       3.843   5.342  17.495  0.00  0.00    +0.000 A 
ATOM      3  N   UNL     1       3.475   6.636  17.402  0.00  0.00    +0.000 NA
ATOM      4  C   UNL     1       2.705   7.211  18.359  0.00  0.00    +0.000 A 
ATOM      5  N   UNL     1       2.445   8.574  18.230  0.00  0.00    +0.000 N 
ATOM      6  C   UNL     1       2.239   6.392  19.398  0.00  0.00    +0.000 A 
ATOM      7  N   UNL     1       1.404   6.658  20.466  0.00  0.00    +0.000 NA
ATOM      8  C   UNL     1       1.290   5.514  21.092  0.00  0.00    +0.000 A 
ATOM      9  N   UNL     1       2.013   4.518  20.481  0.00  0.00    +0.000 N 
ATOM     10  C   UNL     1       2.640   5.065  19.383  0.00  0.00    +0.000 A 
ATOM     11  N   UNL     1       3.453   4.489  18.473  0.00  0.00    +0.000 NA
ATOM     12  H   UNL     1       5.071   3.945  16.809  0.00  0.00    +0.000 HD
ATOM     13  H   UNL     1       1.892   8.728  17.393  0.00  0.00    +0.000 HD
ENDROOT
BRANCH   9  14
ATOM     14  C   UNL     1       2.011   3.147  20.962  0.00  0.00    +0.000 C 
ATOM     15  C   UNL     1       1.108   2.242  20.131  0.00  0.00    +0.000 C 
ATOM     16  C   UNL     1       3.419   2.588  21.133  0.00  0.00    +0.000 C 
ENDBRANCH   9  14
BRANCH   1  17
ATOM     17  C   UNL     1       5.578   5.715  15.754  0.00  0.00    +0.000 C 
BRANCH  17  19
ATOM     18  C   UNL     1       6.131   3.741  14.159  0.00  0.00    +0.000 C 
ATOM     19  C   UNL     1       5.755   5.207  14.303  0.00  0.00    +0.000 C 
ENDBRANCH  17  19
BRANCH  17  20
ATOM     20  C   UNL     1       6.978   5.750  16.484  0.00  0.00    +0.000 C 
BRANCH  20  21
ATOM     21  C   UNL     1       7.052   6.603  17.786  0.00  0.00    +0.000 C 
ATOM     22  C   UNL     1       7.755   5.868  18.929  0.00  0.00    +0.000 C 
ATOM     23  C   UNL     1       7.753   7.949  17.543  0.00  0.00    +0.000 C 
ENDBRANCH  20  21
BRANCH  20  24
ATOM     24  O   UNL     1       7.987   6.217  15.564  0.00  0.00    +0.000 OA
ATOM     25  H   UNL     1       8.522   5.456  15.286  0.00  0.00    +0.000 HD
ENDBRANCH  20  24
ENDBRANCH  17  20
ENDBRANCH   1  17
BRANCH   5  26
ATOM     26  C   UNL     1       1.936   9.260  19.407  0.00  0.00    +0.000 C 
BRANCH  26  27
ATOM     27  C   UNL     1       0.585   9.849  19.086  0.00  0.00    +0.000 A 
ATOM     28  C   UNL     1      -0.043  10.728  19.974  0.00  0.00    +0.000 A 
ATOM     29  C   UNL     1      -1.276  11.290  19.645  0.00  0.00    +0.000 A 
ATOM     30  C   UNL     1      -1.883  10.983  18.426  0.00  0.00    +0.000 A 
ATOM     31  C   UNL     1      -1.260  10.114  17.532  0.00  0.00    +0.000 A 
ATOM     32  C   UNL     1      -0.030   9.557  17.858  0.00  0.00    +0.000 A 
ENDBRANCH  26  27
ENDBRANCH   5  26
TORSDOF 8
ENDMDL
MODEL 5
REMARK VINA RESULT:      -7.0      0.310      1.102
REMARK  Name = 
REMARK  13 active torsions:
REMARK  status: ('A' for Active; 'I' for Inactive)
REMARK    1  A    between atoms: C_1  and  C_2
REMARK    2  A    between atoms: C_2  and  C_3
REMARK    3  A    between atoms: C_3  and  N_4
REMARK    4  A    between atoms: C_3  and  C_25
REMARK    5  A    between atoms: N_8  and  C_9
REMARK    6  A    between atoms: C_9  and  C_10
REMARK    7  A    between atoms: N_19  and  C_20
REMARK    8  A    between atoms: C_20  and  C_21
REMARK    9  A    between atoms: C_20  and  C_22
REMARK   10  A    between atoms: C_25  and  O_26
REMARK   11  A    between atoms: C_25  and  C_27
REMARK   12  A    between atoms: C_27  and  C_28
REMARK   13  A    between atoms: C_27  and  C_29
REMARK                            x       y       z     vdW  Elec       q    Type
REMARK                         _______ _______ _______ _____ _____    ______ ____
ROOT
ATOM      1  N   UNL     1       4.972   4.921  16.309  0.00  0.00    +0.000 N 
ATOM      2  C   UNL     1       4.107   5.325  17.322  0.00  0.00    +0.000 A 
ATOM      3  N   UNL     1       3.658   6.597  17.304  0.00  0.00    +0.000 NA
ATOM      4  C   UNL     1       2.840   7.060  18.280  0.00  0.00    +0.000 A 
ATOM      5  N   UNL     1       2.496   8.410  18.232  0.00  0.00    +0.000 N 
ATOM      6  C   UNL     1       2.411   6.149  19.256  0.00  0.00    +0.000 A 
ATOM      7  N   UNL     1       1.545   6.294  20.323  0.00  0.00    +0.000 NA
ATOM      8  C   UNL     1       1.494   5.107  20.874  0.00  0.00    +0.000 A 
ATOM      9  N   UNL     1       2.288   4.200  20.215  0.00  0.00    +0.000 N 
ATOM     10  C   UNL     1       2.895   4.854  19.165  0.00  0.00    +0.000 A 
ATOM     11  N   UNL     1       3.756   4.388  18.237  0.00  0.00    +0.000 NA
ATOM     12  H   UNL     1       5.431   4.054  16.573  0.00  0.00    +0.000 HD
ATOM     13  H   UNL     1       1.946   8.583  17.396  0.00  0.00    +0.000 HD
ENDROOT
BRANCH   9  14
ATOM     14  C   UNL     1       2.366   2.803  20.609  0.00  0.00    +0.000 C 
ATOM     15  C   UNL     1       1.639   1.884  19.634  0.00  0.00    +0.000 C 
ATOM     16  C   UNL     1       3.796   2.358  20.894  0.00  0.00    +0.000 C 
ENDBRANCH   9  14
BRANCH   1  17
ATOM     17  C   UNL     1       5.840   5.915  15.641  0.00  0.00    +0.000 C 
BRANCH  17  19
ATOM     18  C   UNL     1       6.110   3.855  14.083  0.00  0.00    +0.000 C 
ATOM     19  C   UNL     1       6.531   5.278  14.412  0.00  0.00    +0.000 C 
ENDBRANCH  17  19
BRANCH  17  20
ATOM     20  C   UNL     1       6.931   6.426  16.663  0.00  0.00    +0.000 C 
BRANCH  20  21
ATOM     21  C   UNL     1       7.164   5.534  17.919  0.00  0.00    +0.000 C 
ATOM     22  C   UNL     1       7.952   4.262  17.596  0.00  0.00    +0.000 C 
ATOM     23  C   UNL     1       7.884   6.304  19.037  0.00  0.00    +0.000 C 
ENDBRANCH  20  21
BRANCH  20  24
ATOM     24  O   UNL     1       6.593   7.760  17.098  0.00  0.00    +0.000 OA
ATOM     25  H   UNL     1       5.978   7.690  17.846  0.00  0.00    +0.000 HD
ENDBRANCH  20  24
ENDBRANCH  17  20
ENDBRANCH   1  17
BRANCH   5  26
ATOM     26  C   UNL     1       1.927   8.987  19.440  0.00  0.00    +0.000 C 
BRANCH  26  27
ATOM     27  C   UNL     1       0.649   9.706  19.086  0.00  0.00    +0.000 A 
ATOM     28  C   UNL     1       0.018   9.483  17.857  0.00  0.00    +0.000 A 
ATOM     29  C   UNL     1      -1.181  10.129  17.562  0.00  0.00    +0.000 A 
ATOM     30  C   UNL     1      -1.760  10.994  18.492  0.00  0.00    +0.000 A 
ATOM     31  C   UNL     1      -1.142  11.215  19.721  0.00  0.00    +0.000 A 
ATOM     32  C   UNL     1       0.051  10.568  20.018  0.00  0.00    +0.000 A 
ENDBRANCH  26  27
ENDBRANCH   5  26
TORSDOF 8
ENDMDL
MODEL 6
REMARK VINA RESULT:      -6.9      4.787     10.149
REMARK  Name = 
REMARK  13 active torsions:
REMARK  status: ('A' for Active; 'I' for Inactive)
REMARK    1  A    between atoms: C_1  and  C_2
REMARK    2  A    between atoms: C_2  and  C_3
REMARK    3  A    between atoms: C_3  and  N_4
REMARK    4  A    between atoms: C_3  and  C_25
REMARK    5  A    between atoms: N_8  and  C_9
REMARK    6  A    between atoms: C_9  and  C_10
REMARK    7  A    between atoms: N_19  and  C_20
REMARK    8  A    between atoms: C_20  and  C_21
REMARK    9  A    between atoms: C_20  and  C_22
REMARK   10  A    between atoms: C_25  and  O_26
REMARK   11  A    between atoms: C_25  and  C_27
REMARK   12  A    between atoms: C_27  and  C_28
REMARK   13  A    between atoms: C_27  and  C_29
REMARK                            x       y       z     vdW  Elec       q    Type
REMARK                         _______ _______ _______ _____ _____    ______ ____
ROOT
ATOM      1  N   UNL     1      -2.343  13.732  20.117  0.00  0.00    +0.000 N 
ATOM      2  C   UNL     1      -1.093  13.408  19.597  0.00  0.00    +0.000 A 
ATOM      3  N   UNL     1      -0.902  12.153  19.140  0.00  0.00    +0.000 NA
ATOM      4  C   UNL     1       0.302  11.766  18.652  0.00  0.00    +0.000 A 
ATOM      5  N   UNL     1       0.436  10.428  18.283  0.00  0.00    +0.000 N 
ATOM      6  C   UNL     1       1.310  12.737  18.561  0.00  0.00    +0.000 A 
ATOM      7  N   UNL     1       2.597  12.673  18.063  0.00  0.00    +0.000 NA
ATOM      8  C   UNL     1       3.070  13.886  18.207  0.00  0.00    +0.000 A 
ATOM      9  N   UNL     1       2.150  14.732  18.777  0.00  0.00    +0.000 N 
ATOM     10  C   UNL     1       1.003  14.008  19.020  0.00  0.00    +0.000 A 
ATOM     11  N   UNL     1      -0.169  14.398  19.563  0.00  0.00    +0.000 NA
ATOM     12  H   UNL     1      -2.281  14.594  20.652  0.00  0.00    +0.000 HD
ATOM     13  H   UNL     1      -0.180  10.236  17.500  0.00  0.00    +0.000 HD
ENDROOT
BRANCH   9  14
ATOM     14  C   UNL     1       2.423  16.142  18.999  0.00  0.00    +0.000 C 
ATOM     15  C   UNL     1       2.568  16.478  20.479  0.00  0.00    +0.000 C 
ATOM     16  C   UNL     1       3.586  16.651  18.155  0.00  0.00    +0.000 C 
ENDBRANCH   9  14
BRANCH   1  17
ATOM     17  C   UNL     1      -3.188  12.677  20.719  0.00  0.00    +0.000 C 
BRANCH  17  19
ATOM     18  C   UNL     1      -4.488  11.830  18.636  0.00  0.00    +0.000 C 
ATOM     19  C   UNL     1      -4.532  12.576  19.960  0.00  0.00    +0.000 C 
ENDBRANCH  17  19
BRANCH  17  20
ATOM     20  C   UNL     1      -3.455  13.025  22.236  0.00  0.00    +0.000 C 
BRANCH  20  21
ATOM     21  C   UNL     1      -2.326  12.635  23.238  0.00  0.00    +0.000 C 
ATOM     22  C   UNL     1      -1.505  11.436  22.759  0.00  0.00    +0.000 C 
ATOM     23  C   UNL     1      -1.382  13.816  23.515  0.00  0.00    +0.000 C 
ENDBRANCH  20  21
BRANCH  20  24
ATOM     24  O   UNL     1      -4.686  12.405  22.661  0.00  0.00    +0.000 OA
ATOM     25  H   UNL     1      -5.381  13.084  22.670  0.00  0.00    +0.000 HD
ENDBRANCH  20  24
ENDBRANCH  17  20
ENDBRANCH   1  17
BRANCH   5  26
ATOM     26  C   UNL     1       1.791   9.930  18.102  0.00  0.00    +0.000 C 
BRANCH  26  27
ATOM     27  C   UNL     1       1.904   8.572  18.750  0.00  0.00    +0.000 A 
ATOM     28  C   UNL     1       2.463   7.492  18.058  0.00  0.00    +0.000 A 
ATOM     29  C   UNL     1       2.592   6.254  18.685  0.00  0.00    +0.000 A 
ATOM     30  C   UNL     1       2.172   6.089  20.005  0.00  0.00    +0.000 A 
ATOM     31  C   UNL     1       1.621   7.162  20.704  0.00  0.00    +0.000 A 
ATOM     32  C   UNL     1       1.497   8.397  20.082  0.00  0.00    +0.000 A 
ENDBRANCH  26  27
ENDBRANCH   5  26
TORSDOF 8
ENDMDL
MODEL 7
REMARK VINA RESULT:      -6.8      2.180      6.930
REMARK  Name = 
REMARK  13 active torsions:
REMARK  status: ('A' for Active; 'I' for Inactive)
REMARK    1  A    between atoms: C_1  and  C_2
REMARK    2  A    between atoms: C_2  and  C_3
REMARK    3  A    between atoms: C_3  and  N_4
REMARK    4  A    between atoms: C_3  and  C_25
REMARK    5  A    between atoms: N_8  and  C_9
REMARK    6  A    between atoms: C_9  and  C_10
REMARK    7  A    between atoms: N_19  and  C_20
REMARK    8  A    between atoms: C_20  and  C_21
REMARK    9  A    between atoms: C_20  and  C_22
REMARK   10  A    between atoms: C_25  and  O_26
REMARK   11  A    between atoms: C_25  and  C_27
REMARK   12  A    between atoms: C_27  and  C_28
REMARK   13  A    between atoms: C_27  and  C_29
REMARK                            x       y       z     vdW  Elec       q    Type
REMARK                         _______ _______ _______ _____ _____    ______ ____
ROOT
ATOM      1  N   UNL     1       2.498   9.030  18.177  0.00  0.00    +0.000 N 
ATOM      2  C   UNL     1       2.992   7.743  17.982  0.00  0.00    +0.000 A 
ATOM      3  N   UNL     1       2.104   6.743  17.808  0.00  0.00    +0.000 NA
ATOM      4  C   UNL     1       2.521   5.463  17.646  0.00  0.00    +0.000 A 
ATOM      5  N   UNL     1       1.535   4.481  17.562  0.00  0.00    +0.000 N 
ATOM      6  C   UNL     1       3.903   5.232  17.580  0.00  0.00    +0.000 A 
ATOM      7  N   UNL     1       4.626   4.074  17.364  0.00  0.00    +0.000 NA
ATOM      8  C   UNL     1       5.878   4.457  17.374  0.00  0.00    +0.000 A 
ATOM      9  N   UNL     1       6.000   5.809  17.588  0.00  0.00    +0.000 N 
ATOM     10  C   UNL     1       4.733   6.331  17.728  0.00  0.00    +0.000 A 
ATOM     11  N   UNL     1       4.340   7.603  17.950  0.00  0.00    +0.000 NA
ATOM     12  H   UNL     1       3.232   9.628  18.547  0.00  0.00    +0.000 HD
ATOM     13  H   UNL     1       0.987   4.632  16.721  0.00  0.00    +0.000 HD
ENDROOT
BRANCH   9  14
ATOM     14  C   UNL     1       7.288   6.482  17.598  0.00  0.00    +0.000 C 
ATOM     15  C   UNL     1       7.175   7.956  17.226  0.00  0.00    +0.000 C 
ATOM     16  C   UNL     1       8.055   6.252  18.896  0.00  0.00    +0.000 C 
ENDBRANCH   9  14
BRANCH   1  17
ATOM     17  C   UNL     1       1.163   9.224  18.783  0.00  0.00    +0.000 C 
BRANCH  17  19
ATOM     18  C   UNL     1      -1.121   9.897  17.746  0.00  0.00    +0.000 C 
ATOM     19  C   UNL     1       0.345  10.241  17.953  0.00  0.00    +0.000 C 
ENDBRANCH  17  19
BRANCH  17  20
ATOM     20  C   UNL     1       1.333   9.753  20.262  0.00  0.00    +0.000 C 
BRANCH  20  21
ATOM     21  C   UNL     1       0.951   8.754  21.396  0.00  0.00    +0.000 C 
ATOM     22  C   UNL     1      -0.523   8.856  21.794  0.00  0.00    +0.000 C 
ATOM     23  C   UNL     1       1.270   7.303  21.005  0.00  0.00    +0.000 C 
ENDBRANCH  20  21
BRANCH  20  24
ATOM     24  O   UNL     1       0.564  10.962  20.429  0.00  0.00    +0.000 OA
ATOM     25  H   UNL     1      -0.360  10.715  20.597  0.00  0.00    +0.000 HD
ENDBRANCH  20  24
ENDBRANCH  17  20
ENDBRANCH   1  17
BRANCH   5  26
ATOM     26  C   UNL     1       1.963   3.103  17.745  0.00  0.00    +0.000 C 
BRANCH  26  27
ATOM     27  C   UNL     1       2.097   2.823  19.222  0.00  0.00    +0.000 A 
ATOM     28  C   UNL     1       3.298   2.343  19.754  0.00  0.00    +0.000 A 
ATOM     29  C   UNL     1       3.414   2.125  21.126  0.00  0.00    +0.000 A 
ATOM     30  C   UNL     1       2.337   2.391  21.973  0.00  0.00    +0.000 A 
ATOM     31  C   UNL     1       1.139   2.877  21.451  0.00  0.00    +0.000 A 
ATOM     32  C   UNL     1       1.024   3.099  20.084  0.00  0.00    +0.000 A 
ENDBRANCH  26  27
ENDBRANCH   5  26
TORSDOF 8
ENDMDL
MODEL 8
REMARK VINA RESULT:      -6.8      4.818     10.158
REMARK  Name = 
REMARK  13 active torsions:
REMARK  status: ('A' for Active; 'I' for Inactive)
REMARK    1  A    between atoms: C_1  and  C_2
REMARK    2  A    between atoms: C_2  and  C_3
REMARK    3  A    between atoms: C_3  and  N_4
REMARK    4  A    between atoms: C_3  and  C_25
REMARK    5  A    between atoms: N_8  and  C_9
REMARK    6  A    between atoms: C_9  and  C_10
REMARK    7  A    between atoms: N_19  and  C_20
REMARK    8  A    between atoms: C_20  and  C_21
REMARK    9  A    between atoms: C_20  and  C_22
REMARK   10  A    between atoms: C_25  and  O_26
REMARK   11  A    between atoms: C_25  and  C_27
REMARK   12  A    between atoms: C_27  and  C_28
REMARK   13  A    between atoms: C_27  and  C_29
REMARK                            x       y       z     vdW  Elec       q    Type
REMARK                         _______ _______ _______ _____ _____    ______ ____
ROOT
ATOM      1  N   UNL     1      -2.377  13.739  20.127  0.00  0.00    +0.000 N 
ATOM      2  C   UNL     1      -1.123  13.426  19.607  0.00  0.00    +0.000 A 
ATOM      3  N   UNL     1      -0.927  12.179  19.132  0.00  0.00    +0.000 NA
ATOM      4  C   UNL     1       0.280  11.803  18.643  0.00  0.00    +0.000 A 
ATOM      5  N   UNL     1       0.421  10.471  18.255  0.00  0.00    +0.000 N 
ATOM      6  C   UNL     1       1.286  12.778  18.572  0.00  0.00    +0.000 A 
ATOM      7  N   UNL     1       2.575  12.726  18.078  0.00  0.00    +0.000 NA
ATOM      8  C   UNL     1       3.044  13.938  18.242  0.00  0.00    +0.000 A 
ATOM      9  N   UNL     1       2.119  14.773  18.821  0.00  0.00    +0.000 N 
ATOM     10  C   UNL     1       0.974  14.042  19.048  0.00  0.00    +0.000 A 
ATOM     11  N   UNL     1      -0.202  14.420  19.592  0.00  0.00    +0.000 NA
ATOM     12  H   UNL     1      -2.319  14.593  20.675  0.00  0.00    +0.000 HD
ATOM     13  H   UNL     1      -0.192  10.290  17.467  0.00  0.00    +0.000 HD
ENDROOT
BRANCH   9  14
ATOM     14  C   UNL     1       2.387  16.180  19.066  0.00  0.00    +0.000 C 
ATOM     15  C   UNL     1       1.513  17.093  18.213  0.00  0.00    +0.000 C 
ATOM     16  C   UNL     1       2.345  16.530  20.549  0.00  0.00    +0.000 C 
ENDBRANCH   9  14
BRANCH   1  17
ATOM     17  C   UNL     1      -3.221  12.672  20.708  0.00  0.00    +0.000 C 
BRANCH  17  19
ATOM     18  C   UNL     1      -4.543  11.812  18.645  0.00  0.00    +0.000 C 
ATOM     19  C   UNL     1      -4.567  12.588  19.951  0.00  0.00    +0.000 C 
ENDBRANCH  17  19
BRANCH  17  20
ATOM     20  C   UNL     1      -3.483  12.989  22.234  0.00  0.00    +0.000 C 
BRANCH  20  21
ATOM     21  C   UNL     1      -2.348  12.586  23.223  0.00  0.00    +0.000 C 
ATOM     22  C   UNL     1      -1.534  11.390  22.725  0.00  0.00    +0.000 C 
ATOM     23  C   UNL     1      -1.398  13.761  23.505  0.00  0.00    +0.000 C 
ENDBRANCH  20  21
BRANCH  20  24
ATOM     24  O   UNL     1      -4.709  12.354  22.651  0.00  0.00    +0.000 OA
ATOM     25  H   UNL     1      -5.164  12.949  23.271  0.00  0.00    +0.000 HD
ENDBRANCH  20  24
ENDBRANCH  17  20
ENDBRANCH   1  17
BRANCH   5  26
ATOM     26  C   UNL     1       1.778   9.980  18.072  0.00  0.00    +0.000 C 
BRANCH  26  27
ATOM     27  C   UNL     1       1.920   8.658  18.787  0.00  0.00    +0.000 A 
ATOM     28  C   UNL     1       1.465   8.500  20.100  0.00  0.00    +0.000 A 
ATOM     29  C   UNL     1       1.572   7.262  20.731  0.00  0.00    +0.000 A 
ATOM     30  C   UNL     1       2.129   6.175  20.054  0.00  0.00    +0.000 A 
ATOM     31  C   UNL     1       2.578   6.323  18.743  0.00  0.00    +0.000 A 
ATOM     32  C   UNL     1       2.466   7.555  18.111  0.00  0.00    +0.000 A 
ENDBRANCH  26  27
ENDBRANCH   5  26
TORSDOF 8
ENDMDL
MODEL 9
REMARK VINA RESULT:      -6.8      7.982     10.339
REMARK  Name = 
REMARK  13 active torsions:
REMARK  status: ('A' for Active; 'I' for Inactive)
REMARK    1  A    between atoms: C_1  and  C_2
REMARK    2  A    between atoms: C_2  and  C_3
REMARK    3  A    between atoms: C_3  and  N_4
REMARK    4  A    between atoms: C_3  and  C_25
REMARK    5  A    between atoms: N_8  and  C_9
REMARK    6  A    between atoms: C_9  and  C_10
REMARK    7  A    between atoms: N_19  and  C_20
REMARK    8  A    between atoms: C_20  and  C_21
REMARK    9  A    between atoms: C_20  and  C_22
REMARK   10  A    between atoms: C_25  and  O_26
REMARK   11  A    between atoms: C_25  and  C_27
REMARK   12  A    between atoms: C_27  and  C_28
REMARK   13  A    between atoms: C_27  and  C_29
REMARK                            x       y       z     vdW  Elec       q    Type
REMARK                         _______ _______ _______ _____ _____    ______ ____
ROOT
ATOM      1  N   UNL     1       9.189  14.675  17.503  0.00  0.00    +0.000 N 
ATOM      2  C   UNL     1       8.201  14.906  18.457  0.00  0.00    +0.000 A 
ATOM      3  N   UNL     1       8.590  15.191  19.717  0.00  0.00    +0.000 NA
ATOM      4  C   UNL     1       7.676  15.393  20.698  0.00  0.00    +0.000 A 
ATOM      5  N   UNL     1       8.165  15.594  21.988  0.00  0.00    +0.000 N 
ATOM      6  C   UNL     1       6.320  15.379  20.338  0.00  0.00    +0.000 A 
ATOM      7  N   UNL     1       5.177  15.607  21.079  0.00  0.00    +0.000 NA
ATOM      8  C   UNL     1       4.196  15.494  20.219  0.00  0.00    +0.000 A 
ATOM      9  N   UNL     1       4.650  15.201  18.956  0.00  0.00    +0.000 N 
ATOM     10  C   UNL     1       6.024  15.118  19.010  0.00  0.00    +0.000 A 
ATOM     11  N   UNL     1       6.915  14.856  18.031  0.00  0.00    +0.000 NA
ATOM     12  H   UNL     1       8.781  14.226  16.688  0.00  0.00    +0.000 HD
ATOM     13  H   UNL     1       8.694  16.460  22.011  0.00  0.00    +0.000 HD
ENDROOT
BRANCH   9  14
ATOM     14  C   UNL     1       3.756  15.070  17.818  0.00  0.00    +0.000 C 
ATOM     15  C   UNL     1       2.644  14.056  18.068  0.00  0.00    +0.000 C 
ATOM     16  C   UNL     1       3.235  16.416  17.328  0.00  0.00    +0.000 C 
ENDBRANCH   9  14
BRANCH   1  17
ATOM     17  C   UNL     1      10.507  14.150  17.920  0.00  0.00    +0.000 C 
BRANCH  17  19
ATOM     18  C   UNL     1      11.149  16.464  16.930  0.00  0.00    +0.000 C 
ATOM     19  C   UNL     1      11.617  15.176  17.588  0.00  0.00    +0.000 C 
ENDBRANCH  17  19
BRANCH  17  20
ATOM     20  C   UNL     1      10.790  12.793  17.163  0.00  0.00    +0.000 C 
BRANCH  20  21
ATOM     21  C   UNL     1      10.832  11.510  18.048  0.00  0.00    +0.000 C 
ATOM     22  C   UNL     1      11.801  11.642  19.225  0.00  0.00    +0.000 C 
ATOM     23  C   UNL     1       9.438  11.141  18.579  0.00  0.00    +0.000 C 
ENDBRANCH  20  21
BRANCH  20  24
ATOM     24  O   UNL     1      12.032  12.898  16.437  0.00  0.00    +0.000 OA
ATOM     25  H   UNL     1      12.460  13.734  16.685  0.00  0.00    +0.000 HD
ENDBRANCH  20  24
ENDBRANCH  17  20
ENDBRANCH   1  17
BRANCH   5  26
ATOM     26  C   UNL     1       7.214  15.456  23.080  0.00  0.00    +0.000 C 
BRANCH  26  27
ATOM     27  C   UNL     1       7.308  14.057  23.639  0.00  0.00    +0.000 A 
ATOM     28  C   UNL     1       8.363  13.692  24.482  0.00  0.00    +0.000 A 
ATOM     29  C   UNL     1       8.414  12.406  25.017  0.00  0.00    +0.000 A 
ATOM     30  C   UNL     1       7.412  11.482  24.719  0.00  0.00    +0.000 A 
ATOM     31  C   UNL     1       6.354  11.840  23.886  0.00  0.00    +0.000 A 
ATOM     32  C   UNL     1       6.299  13.123  23.356  0.00  0.00    +0.000 A 
ENDBRANCH  26  27
ENDBRANCH   5  26
TORSDOF 8
ENDMDL
