MODEL 1
REMARK VINA RESULT:      -7.0      0.000      0.000
REMARK  Name = 
REMARK  8 active torsions:
REMARK  status: ('A' for Active; 'I' for Inactive)
REMARK    1  A    between atoms: C_1  and  C_2
REMARK    2  A    between atoms: C_5  and  C_6
REMARK    3  A    between atoms: C_6  and  C_8
REMARK    4  A    between atoms: C_8  and  S_9
REMARK    5  A    between atoms: S_9  and  C_10
REMARK    6  A    between atoms: C_14  and  C_15
REMARK    7  A    between atoms: C_17  and  C_18
REMARK    8  A    between atoms: C_23  and  C_24
REMARK                            x       y       z     vdW  Elec       q    Type
REMARK                         _______ _______ _______ _____ _____    ______ ____
ROOT
ATOM      1  C   UNL     1       2.373   6.614  19.692  0.00  0.00    +0.000 A 
ATOM      2  N   UNL     1       2.016   5.721  20.643  0.00  0.00    +0.000 NA
ATOM      3  C   UNL     1       2.589   4.505  20.646  0.00  0.00    +0.000 A 
ATOM      4  N   UNL     1       2.002   3.606  21.526  0.00  0.00    +0.000 N 
ATOM      5  C   UNL     1       3.597   4.149  19.751  0.00  0.00    +0.000 A 
ATOM      6  C   UNL     1       3.986   5.062  18.743  0.00  0.00    +0.000 A 
ATOM      7  C   UNL     1       3.306   6.307  18.690  0.00  0.00    +0.000 A 
ATOM      8  H   UNL     1       1.330   4.081  22.121  0.00  0.00    +0.000 HD
ATOM      9  H   UNL     1       2.630   2.998  22.039  0.00  0.00    +0.000 HD
ENDROOT
BRANCH   6  10
ATOM     10  C   UNL     1       5.072   4.711  17.786  0.00  0.00    +0.000 A 
ATOM     11  C   UNL     1       6.492   4.901  17.947  0.00  0.00    +0.000 A 
ATOM     12  C   UNL     1       7.225   4.547  16.835  0.00  0.00    +0.000 A 
ATOM     13  S   UNL     1       6.238   3.909  15.602  0.00  0.00    +0.000 S 
ATOM     14  C   UNL     1       4.822   4.187  16.527  0.00  0.00    +0.000 A 
ENDBRANCH   6  10
BRANCH   5  15
ATOM     15  C   UNL     1       4.203   2.863  19.925  0.00  0.00    +0.000 C 
ATOM     16  N   UNL     1       4.659   1.806  20.098  0.00  0.00    +0.000 NA
ENDBRANCH   5  15
BRANCH   7  17
ATOM     17  C   UNL     1       3.495   7.229  17.605  0.00  0.00    +0.000 C 
ATOM     18  N   UNL     1       3.664   7.950  16.711  0.00  0.00    +0.000 NA
ENDBRANCH   7  17
BRANCH   1  19
ATOM     19  S   UNL     1       1.569   8.215  19.816  0.00  0.00    +0.000 S 
BRANCH  19  20
ATOM     20  C   UNL     1       0.710   8.065  21.428  0.00  0.00    +0.000 C 
BRANCH  20  21
ATOM     21  C   UNL     1       0.821   9.329  22.271  0.00  0.00    +0.000 C 
ATOM     22  O   UNL     1       1.723   9.532  23.083  0.00  0.00    +0.000 OA
BRANCH  21  27
ATOM     23  C   UNL     1      -3.299  13.429  21.807  0.00  0.00    +0.000 C 
ATOM     24  C   UNL     1      -2.249  12.362  21.917  0.00  0.00    +0.000 A 
ATOM     25  C   UNL     1      -2.052  11.666  23.112  0.00  0.00    +0.000 A 
ATOM     26  C   UNL     1      -1.056  10.686  23.207  0.00  0.00    +0.000 A 
ATOM     27  C   UNL     1      -0.239  10.383  22.109  0.00  0.00    +0.000 A 
ATOM     28  C   UNL     1      -0.443  11.074  20.908  0.00  0.00    +0.000 A 
ATOM     29  C   UNL     1      -1.440  12.056  20.815  0.00  0.00    +0.000 A 
ENDBRANCH  21  27
ENDBRANCH  20  21
ENDBRANCH  19  20
ENDBRANCH   1  19
TORSDOF 7
ENDMDL
MODEL 2
REMARK VINA RESULT:      -6.9      0.535      1.247
REMARK  Name = 
REMARK  8 active torsions:
REMARK  status: ('A' for Active; 'I' for Inactive)
REMARK    1  A    between atoms: C_1  and  C_2
REMARK    2  A    between atoms: C_5  and  C_6
REMARK    3  A    between atoms: C_6  and  C_8
REMARK    4  A    between atoms: C_8  and  S_9
REMARK    5  A    between atoms: S_9  and  C_10
REMARK    6  A    between atoms: C_14  and  C_15
REMARK    7  A    between atoms: C_17  and  C_18
REMARK    8  A    between atoms: C_23  and  C_24
REMARK                            x       y       z     vdW  Elec       q    Type
REMARK                         _______ _______ _______ _____ _____    ______ ____
ROOT
ATOM      1  C   UNL     1       2.242   6.809  19.804  0.00  0.00    +0.000 A 
ATOM      2  N   UNL     1       1.893   5.899  20.742  0.00  0.00    +0.000 NA
ATOM      3  C   UNL     1       2.424   4.666  20.685  0.00  0.00    +0.000 A 
ATOM      4  N   UNL     1       1.842   3.759  21.561  0.00  0.00    +0.000 N 
ATOM      5  C   UNL     1       3.383   4.305  19.739  0.00  0.00    +0.000 A 
ATOM      6  C   UNL     1       3.762   5.236  18.743  0.00  0.00    +0.000 A 
ATOM      7  C   UNL     1       3.123   6.503  18.755  0.00  0.00    +0.000 A 
ATOM      8  H   UNL     1       1.211   4.237  22.197  0.00  0.00    +0.000 HD
ATOM      9  H   UNL     1       2.470   3.115  22.030  0.00  0.00    +0.000 HD
ENDROOT
BRANCH   6  10
ATOM     10  C   UNL     1       4.797   4.879  17.733  0.00  0.00    +0.000 A 
ATOM     11  C   UNL     1       4.617   4.172  16.490  0.00  0.00    +0.000 A 
ATOM     12  C   UNL     1       5.796   3.924  15.822  0.00  0.00    +0.000 A 
ATOM     13  S   UNL     1       7.136   4.596  16.630  0.00  0.00    +0.000 S 
ATOM     14  C   UNL     1       6.146   5.144  17.916  0.00  0.00    +0.000 A 
ENDBRANCH   6  10
BRANCH   5  15
ATOM     15  C   UNL     1       3.951   2.995  19.849  0.00  0.00    +0.000 C 
ATOM     16  N   UNL     1       4.428   1.942  19.985  0.00  0.00    +0.000 NA
ENDBRANCH   5  15
BRANCH   7  17
ATOM     17  C   UNL     1       3.300   7.452  17.692  0.00  0.00    +0.000 C 
ATOM     18  N   UNL     1       3.427   8.243  16.852  0.00  0.00    +0.000 NA
ENDBRANCH   7  17
BRANCH   1  19
ATOM     19  S   UNL     1       1.498   8.431  20.009  0.00  0.00    +0.000 S 
BRANCH  19  20
ATOM     20  C   UNL     1       0.527   8.193  21.544  0.00  0.00    +0.000 C 
BRANCH  20  21
ATOM     21  C   UNL     1       0.536   9.424  22.441  0.00  0.00    +0.000 C 
ATOM     22  O   UNL     1       1.331   9.590  23.366  0.00  0.00    +0.000 OA
BRANCH  21  27
ATOM     23  C   UNL     1      -3.435  13.536  21.289  0.00  0.00    +0.000 C 
ATOM     24  C   UNL     1      -2.402  12.490  21.594  0.00  0.00    +0.000 A 
ATOM     25  C   UNL     1      -1.562  11.995  20.594  0.00  0.00    +0.000 A 
ATOM     26  C   UNL     1      -0.615  11.006  20.887  0.00  0.00    +0.000 A 
ATOM     27  C   UNL     1      -0.491  10.493  22.186  0.00  0.00    +0.000 A 
ATOM     28  C   UNL     1      -1.326  10.996  23.190  0.00  0.00    +0.000 A 
ATOM     29  C   UNL     1      -2.274  11.986  22.894  0.00  0.00    +0.000 A 
ENDBRANCH  21  27
ENDBRANCH  20  21
ENDBRANCH  19  20
ENDBRANCH   1  19
TORSDOF 7
ENDMDL
MODEL 3
REMARK VINA RESULT:      -6.7      4.150      9.501
REMARK  Name = 
REMARK  8 active torsions:
REMARK  status: ('A' for Active; 'I' for Inactive)
REMARK    1  A    between atoms: C_1  and  C_2
REMARK    2  A    between atoms: C_5  and  C_6
REMARK    3  A    between atoms: C_6  and  C_8
REMARK    4  A    between atoms: C_8  and  S_9
REMARK    5  A    between atoms: S_9  and  C_10
REMARK    6  A    between atoms: C_14  and  C_15
REMARK    7  A    between atoms: C_17  and  C_18
REMARK    8  A    between atoms: C_23  and  C_24
REMARK                            x       y       z     vdW  Elec       q    Type
REMARK                         _______ _______ _______ _____ _____    ______ ____
ROOT
ATOM      1  C   UNL     1      -0.195  10.431  18.738  0.00  0.00    +0.000 A 
ATOM      2  N   UNL     1      -0.804  10.002  17.609  0.00  0.00    +0.000 NA
ATOM      3  C   UNL     1      -2.071  10.380  17.367  0.00  0.00    +0.000 A 
ATOM      4  N   UNL     1      -2.663   9.719  16.299  0.00  0.00    +0.000 N 
ATOM      5  C   UNL     1      -2.763  11.261  18.197  0.00  0.00    +0.000 A 
ATOM      6  C   UNL     1      -2.151  11.721  19.387  0.00  0.00    +0.000 A 
ATOM      7  C   UNL     1      -0.849  11.239  19.681  0.00  0.00    +0.000 A 
ATOM      8  H   UNL     1      -1.973   9.167  15.798  0.00  0.00    +0.000 HD
ATOM      9  H   UNL     1      -3.249  10.277  15.688  0.00  0.00    +0.000 HD
ENDROOT
BRANCH   6  10
ATOM     10  C   UNL     1      -2.864  12.676  20.280  0.00  0.00    +0.000 A 
ATOM     11  C   UNL     1      -3.975  12.410  21.159  0.00  0.00    +0.000 A 
ATOM     12  C   UNL     1      -4.463  13.535  21.787  0.00  0.00    +0.000 A 
ATOM     13  S   UNL     1      -3.556  14.922  21.397  0.00  0.00    +0.000 S 
ATOM     14  C   UNL     1      -2.564  14.030  20.321  0.00  0.00    +0.000 A 
ENDBRANCH   6  10
BRANCH   5  15
ATOM     15  C   UNL     1      -4.068  11.671  17.774  0.00  0.00    +0.000 C 
ATOM     16  N   UNL     1      -5.109  12.046  17.411  0.00  0.00    +0.000 NA
ENDBRANCH   5  15
BRANCH   7  17
ATOM     17  C   UNL     1      -0.210  11.499  20.941  0.00  0.00    +0.000 C 
ATOM     18  N   UNL     1       0.279  11.694  21.975  0.00  0.00    +0.000 NA
ENDBRANCH   7  17
BRANCH   1  19
ATOM     19  S   UNL     1       1.508   9.893  18.930  0.00  0.00    +0.000 S 
BRANCH  19  20
ATOM     20  C   UNL     1       1.634   8.613  17.626  0.00  0.00    +0.000 C 
BRANCH  20  21
ATOM     21  C   UNL     1       2.706   7.573  17.925  0.00  0.00    +0.000 C 
ATOM     22  O   UNL     1       3.873   7.666  17.545  0.00  0.00    +0.000 OA
BRANCH  21  27
ATOM     23  C   UNL     1       1.222   2.774  20.887  0.00  0.00    +0.000 C 
ATOM     24  C   UNL     1       1.587   4.017  20.127  0.00  0.00    +0.000 A 
ATOM     25  C   UNL     1       1.724   3.996  18.736  0.00  0.00    +0.000 A 
ATOM     26  C   UNL     1       2.083   5.157  18.041  0.00  0.00    +0.000 A 
ATOM     27  C   UNL     1       2.312   6.361  18.723  0.00  0.00    +0.000 A 
ATOM     28  C   UNL     1       2.166   6.384  20.114  0.00  0.00    +0.000 A 
ATOM     29  C   UNL     1       1.807   5.220  20.809  0.00  0.00    +0.000 A 
ENDBRANCH  21  27
ENDBRANCH  20  21
ENDBRANCH  19  20
ENDBRANCH   1  19
TORSDOF 7
ENDMDL
MODEL 4
REMARK VINA RESULT:      -6.7      2.844      4.449
REMARK  Name = 
REMARK  8 active torsions:
REMARK  status: ('A' for Active; 'I' for Inactive)
REMARK    1  A    between atoms: C_1  and  C_2
REMARK    2  A    between atoms: C_5  and  C_6
REMARK    3  A    between atoms: C_6  and  C_8
REMARK    4  A    between atoms: C_8  and  S_9
REMARK    5  A    between atoms: S_9  and  C_10
REMARK    6  A    between atoms: C_14  and  C_15
REMARK    7  A    between atoms: C_17  and  C_18
REMARK    8  A    between atoms: C_23  and  C_24
REMARK                            x       y       z     vdW  Elec       q    Type
REMARK                         _______ _______ _______ _____ _____    ______ ____
ROOT
ATOM      1  C   UNL     1       2.749   8.276  18.105  0.00  0.00    +0.000 A 
ATOM      2  N   UNL     1       3.573   8.063  17.053  0.00  0.00    +0.000 NA
ATOM      3  C   UNL     1       4.049   6.825  16.836  0.00  0.00    +0.000 A 
ATOM      4  N   UNL     1       5.041   6.763  15.867  0.00  0.00    +0.000 N 
ATOM      5  C   UNL     1       3.667   5.728  17.609  0.00  0.00    +0.000 A 
ATOM      6  C   UNL     1       2.811   5.924  18.718  0.00  0.00    +0.000 A 
ATOM      7  C   UNL     1       2.392   7.252  18.995  0.00  0.00    +0.000 A 
ATOM      8  H   UNL     1       5.125   7.655  15.389  0.00  0.00    +0.000 HD
ATOM      9  H   UNL     1       5.007   5.972  15.234  0.00  0.00    +0.000 HD
ENDROOT
BRANCH   6  10
ATOM     10  C   UNL     1       2.377   4.766  19.547  0.00  0.00    +0.000 A 
ATOM     11  C   UNL     1       1.229   3.916  19.354  0.00  0.00    +0.000 A 
ATOM     12  C   UNL     1       1.059   2.983  20.353  0.00  0.00    +0.000 A 
ATOM     13  S   UNL     1       2.310   3.053  21.505  0.00  0.00    +0.000 S 
ATOM     14  C   UNL     1       3.032   4.389  20.711  0.00  0.00    +0.000 A 
ENDBRANCH   6  10
BRANCH   5  15
ATOM     15  C   UNL     1       4.160   4.444  17.211  0.00  0.00    +0.000 C 
ATOM     16  N   UNL     1       4.570   3.391  16.935  0.00  0.00    +0.000 NA
ENDBRANCH   5  15
BRANCH   7  17
ATOM     17  C   UNL     1       1.672   7.586  20.192  0.00  0.00    +0.000 C 
ATOM     18  N   UNL     1       1.086   7.887  21.147  0.00  0.00    +0.000 NA
ENDBRANCH   7  17
BRANCH   1  19
ATOM     19  S   UNL     1       2.148   9.960  18.267  0.00  0.00    +0.000 S 
BRANCH  19  20
ATOM     20  C   UNL     1       0.368   9.748  17.889  0.00  0.00    +0.000 C 
BRANCH  20  21
ATOM     21  C   UNL     1      -0.535  10.431  18.909  0.00  0.00    +0.000 C 
ATOM     22  O   UNL     1      -0.188  10.693  20.060  0.00  0.00    +0.000 OA
BRANCH  21  27
ATOM     23  C   UNL     1      -5.934  11.992  17.356  0.00  0.00    +0.000 C 
ATOM     24  C   UNL     1      -4.550  11.575  17.763  0.00  0.00    +0.000 A 
ATOM     25  C   UNL     1      -3.907  12.176  18.847  0.00  0.00    +0.000 A 
ATOM     26  C   UNL     1      -2.609  11.791  19.205  0.00  0.00    +0.000 A 
ATOM     27  C   UNL     1      -1.931  10.797  18.486  0.00  0.00    +0.000 A 
ATOM     28  C   UNL     1      -2.579  10.188  17.405  0.00  0.00    +0.000 A 
ATOM     29  C   UNL     1      -3.878  10.576  17.048  0.00  0.00    +0.000 A 
ENDBRANCH  21  27
ENDBRANCH  20  21
ENDBRANCH  19  20
ENDBRANCH   1  19
TORSDOF 7
ENDMDL
MODEL 5
REMARK VINA RESULT:      -6.7      4.142      9.485
REMARK  Name = 
REMARK  8 active torsions:
REMARK  status: ('A' for Active; 'I' for Inactive)
REMARK    1  A    between atoms: C_1  and  C_2
REMARK    2  A    between atoms: C_5  and  C_6
REMARK    3  A    between atoms: C_6  and  C_8
REMARK    4  A    between atoms: C_8  and  S_9
REMARK    5  A    between atoms: S_9  and  C_10
REMARK    6  A    between atoms: C_14  and  C_15
REMARK    7  A    between atoms: C_17  and  C_18
REMARK    8  A    between atoms: C_23  and  C_24
REMARK                            x       y       z     vdW  Elec       q    Type
REMARK                         _______ _______ _______ _____ _____    ______ ____
ROOT
ATOM      1  C   UNL     1      -0.285  10.375  18.843  0.00  0.00    +0.000 A 
ATOM      2  N   UNL     1      -0.854   9.959  17.688  0.00  0.00    +0.000 NA
ATOM      3  C   UNL     1      -2.094  10.376  17.383  0.00  0.00    +0.000 A 
ATOM      4  N   UNL     1      -2.657   9.727  16.292  0.00  0.00    +0.000 N 
ATOM      5  C   UNL     1      -2.795  11.287  18.174  0.00  0.00    +0.000 A 
ATOM      6  C   UNL     1      -2.225  11.734  19.389  0.00  0.00    +0.000 A 
ATOM      7  C   UNL     1      -0.955  11.211  19.748  0.00  0.00    +0.000 A 
ATOM      8  H   UNL     1      -1.963   9.150  15.828  0.00  0.00    +0.000 HD
ATOM      9  H   UNL     1      -3.193  10.301  15.651  0.00  0.00    +0.000 HD
ENDROOT
BRANCH   6  10
ATOM     10  C   UNL     1      -2.948  12.719  20.242  0.00  0.00    +0.000 A 
ATOM     11  C   UNL     1      -2.611  14.100  20.482  0.00  0.00    +0.000 A 
ATOM     12  C   UNL     1      -3.438  14.718  21.394  0.00  0.00    +0.000 A 
ATOM     13  S   UNL     1      -4.679  13.682  21.928  0.00  0.00    +0.000 S 
ATOM     14  C   UNL     1      -4.058  12.381  21.001  0.00  0.00    +0.000 A 
ENDBRANCH   6  10
BRANCH   5  15
ATOM     15  C   UNL     1      -4.064  11.736  17.687  0.00  0.00    +0.000 C 
ATOM     16  N   UNL     1      -5.112  12.055  17.293  0.00  0.00    +0.000 NA
ENDBRANCH   5  15
BRANCH   7  17
ATOM     17  C   UNL     1      -0.370  11.459  21.036  0.00  0.00    +0.000 C 
ATOM     18  N   UNL     1       0.122  11.685  22.063  0.00  0.00    +0.000 NA
ENDBRANCH   7  17
BRANCH   1  19
ATOM     19  S   UNL     1       1.388   9.782  19.119  0.00  0.00    +0.000 S 
BRANCH  19  20
ATOM     20  C   UNL     1       1.602   8.630  17.712  0.00  0.00    +0.000 C 
BRANCH  20  21
ATOM     21  C   UNL     1       2.692   7.595  17.960  0.00  0.00    +0.000 C 
ATOM     22  O   UNL     1       3.862   7.738  17.607  0.00  0.00    +0.000 OA
BRANCH  21  27
ATOM     23  C   UNL     1       1.187   2.759  20.850  0.00  0.00    +0.000 C 
ATOM     24  C   UNL     1       1.591   3.997  20.102  0.00  0.00    +0.000 A 
ATOM     25  C   UNL     1       1.886   5.183  20.780  0.00  0.00    +0.000 A 
ATOM     26  C   UNL     1       2.244   6.336  20.071  0.00  0.00    +0.000 A 
ATOM     27  C   UNL     1       2.313   6.325  18.670  0.00  0.00    +0.000 A 
ATOM     28  C   UNL     1       2.027   5.134  17.992  0.00  0.00    +0.000 A 
ATOM     29  C   UNL     1       1.668   3.981  18.704  0.00  0.00    +0.000 A 
ENDBRANCH  21  27
ENDBRANCH  20  21
ENDBRANCH  19  20
ENDBRANCH   1  19
TORSDOF 7
ENDMDL
MODEL 6
REMARK VINA RESULT:      -6.6      1.086      1.263
REMARK  Name = 
REMARK  8 active torsions:
REMARK  status: ('A' for Active; 'I' for Inactive)
REMARK    1  A    between atoms: C_1  and  C_2
REMARK    2  A    between atoms: C_5  and  C_6
REMARK    3  A    between atoms: C_6  and  C_8
REMARK    4  A    between atoms: C_8  and  S_9
REMARK    5  A    between atoms: S_9  and  C_10
REMARK    6  A    between atoms: C_14  and  C_15
REMARK    7  A    between atoms: C_17  and  C_18
REMARK    8  A    between atoms: C_23  and  C_24
REMARK                            x       y       z     vdW  Elec       q    Type
REMARK                         _______ _______ _______ _____ _____    ______ ____
ROOT
ATOM      1  C   UNL     1       1.654   6.687  20.229  0.00  0.00    +0.000 A 
ATOM      2  N   UNL     1       1.526   5.610  21.038  0.00  0.00    +0.000 NA
ATOM      3  C   UNL     1       2.325   4.548  20.841  0.00  0.00    +0.000 A 
ATOM      4  N   UNL     1       1.970   3.429  21.583  0.00  0.00    +0.000 N 
ATOM      5  C   UNL     1       3.337   4.537  19.881  0.00  0.00    +0.000 A 
ATOM      6  C   UNL     1       3.488   5.648  19.019  0.00  0.00    +0.000 A 
ATOM      7  C   UNL     1       2.576   6.725  19.173  0.00  0.00    +0.000 A 
ATOM      8  H   UNL     1       1.250   3.666  22.257  0.00  0.00    +0.000 HD
ATOM      9  H   UNL     1       2.731   2.891  21.983  0.00  0.00    +0.000 HD
ENDROOT
BRANCH   6  10
ATOM     10  C   UNL     1       4.573   5.667  17.998  0.00  0.00    +0.000 A 
ATOM     11  C   UNL     1       4.531   5.161  16.648  0.00  0.00    +0.000 A 
ATOM     12  C   UNL     1       5.736   5.253  15.988  0.00  0.00    +0.000 A 
ATOM     13  S   UNL     1       6.924   6.016  16.939  0.00  0.00    +0.000 S 
ATOM     14  C   UNL     1       5.847   6.144  18.266  0.00  0.00    +0.000 A 
ENDBRANCH   6  10
BRANCH   5  15
ATOM     15  C   UNL     1       4.190   3.388  19.841  0.00  0.00    +0.000 C 
ATOM     16  N   UNL     1       4.911   2.474  19.846  0.00  0.00    +0.000 NA
ENDBRANCH   5  15
BRANCH   7  17
ATOM     17  C   UNL     1       2.527   7.817  18.241  0.00  0.00    +0.000 C 
ATOM     18  N   UNL     1       2.490   8.676  17.462  0.00  0.00    +0.000 NA
ENDBRANCH   7  17
BRANCH   1  19
ATOM     19  S   UNL     1       0.560   8.058  20.617  0.00  0.00    +0.000 S 
BRANCH  19  20
ATOM     20  C   UNL     1       1.507   8.919  21.927  0.00  0.00    +0.000 C 
BRANCH  20  21
ATOM     21  C   UNL     1       0.609   9.668  22.905  0.00  0.00    +0.000 C 
ATOM     22  O   UNL     1       0.555   9.420  24.109  0.00  0.00    +0.000 OA
BRANCH  21  27
ATOM     23  C   UNL     1      -2.858  13.933  20.958  0.00  0.00    +0.000 C 
ATOM     24  C   UNL     1      -1.971  12.823  21.446  0.00  0.00    +0.000 A 
ATOM     25  C   UNL     1      -2.273  12.123  22.616  0.00  0.00    +0.000 A 
ATOM     26  C   UNL     1      -1.429  11.103  23.071  0.00  0.00    +0.000 A 
ATOM     27  C   UNL     1      -0.266  10.764  22.364  0.00  0.00    +0.000 A 
ATOM     28  C   UNL     1       0.031  11.460  21.186  0.00  0.00    +0.000 A 
ATOM     29  C   UNL     1      -0.815  12.482  20.733  0.00  0.00    +0.000 A 
ENDBRANCH  21  27
ENDBRANCH  20  21
ENDBRANCH  19  20
ENDBRANCH   1  19
TORSDOF 7
ENDMDL
MODEL 7
REMARK VINA RESULT:      -6.6      1.232      1.587
REMARK  Name = 
REMARK  8 active torsions:
REMARK  status: ('A' for Active; 'I' for Inactive)
REMARK    1  A    between atoms: C_1  and  C_2
REMARK    2  A    between atoms: C_5  and  C_6
REMARK    3  A    between atoms: C_6  and  C_8
REMARK    4  A    between atoms: C_8  and  S_9
REMARK    5  A    between atoms: S_9  and  C_10
REMARK    6  A    between atoms: C_14  and  C_15
REMARK    7  A    between atoms: C_17  and  C_18
REMARK    8  A    between atoms: C_23  and  C_24
REMARK                            x       y       z     vdW  Elec       q    Type
REMARK                         _______ _______ _______ _____ _____    ______ ____
ROOT
ATOM      1  C   UNL     1       2.321   6.592  19.807  0.00  0.00    +0.000 A 
ATOM      2  N   UNL     1       1.970   5.678  20.741  0.00  0.00    +0.000 NA
ATOM      3  C   UNL     1       2.548   4.465  20.716  0.00  0.00    +0.000 A 
ATOM      4  N   UNL     1       1.967   3.545  21.580  0.00  0.00    +0.000 N 
ATOM      5  C   UNL     1       3.556   4.131  19.811  0.00  0.00    +0.000 A 
ATOM      6  C   UNL     1       3.937   5.067  18.821  0.00  0.00    +0.000 A 
ATOM      7  C   UNL     1       3.252   6.309  18.796  0.00  0.00    +0.000 A 
ATOM      8  H   UNL     1       1.295   4.004  22.186  0.00  0.00    +0.000 HD
ATOM      9  H   UNL     1       2.600   2.929  22.078  0.00  0.00    +0.000 HD
ENDROOT
BRANCH   6  10
ATOM     10  C   UNL     1       5.023   4.739  17.855  0.00  0.00    +0.000 A 
ATOM     11  C   UNL     1       6.442   4.939  18.012  0.00  0.00    +0.000 A 
ATOM     12  C   UNL     1       7.172   4.609  16.892  0.00  0.00    +0.000 A 
ATOM     13  S   UNL     1       6.185   3.983  15.653  0.00  0.00    +0.000 S 
ATOM     14  C   UNL     1       4.771   4.234  16.588  0.00  0.00    +0.000 A 
ENDBRANCH   6  10
BRANCH   5  15
ATOM     15  C   UNL     1       4.167   2.845  19.957  0.00  0.00    +0.000 C 
ATOM     16  N   UNL     1       4.687   1.816  20.116  0.00  0.00    +0.000 NA
ENDBRANCH   5  15
BRANCH   7  17
ATOM     17  C   UNL     1       3.435   7.255  17.731  0.00  0.00    +0.000 C 
ATOM     18  N   UNL     1       3.556   8.005  16.853  0.00  0.00    +0.000 NA
ENDBRANCH   7  17
BRANCH   1  19
ATOM     19  S   UNL     1       1.511   8.187  19.967  0.00  0.00    +0.000 S 
BRANCH  19  20
ATOM     20  C   UNL     1       1.036   8.176  21.737  0.00  0.00    +0.000 C 
BRANCH  20  21
ATOM     21  C   UNL     1       0.591   9.546  22.233  0.00  0.00    +0.000 C 
ATOM     22  O   UNL     1       0.390   9.812  23.418  0.00  0.00    +0.000 OA
BRANCH  21  27
ATOM     23  C   UNL     1      -0.399  13.725  18.288  0.00  0.00    +0.000 C 
ATOM     24  C   UNL     1      -0.132  12.641  19.292  0.00  0.00    +0.000 A 
ATOM     25  C   UNL     1      -1.073  11.638  19.536  0.00  0.00    +0.000 A 
ATOM     26  C   UNL     1      -0.821  10.643  20.488  0.00  0.00    +0.000 A 
ATOM     27  C   UNL     1       0.378  10.633  21.215  0.00  0.00    +0.000 A 
ATOM     28  C   UNL     1       1.326  11.632  20.964  0.00  0.00    +0.000 A 
ATOM     29  C   UNL     1       1.070  12.628  20.011  0.00  0.00    +0.000 A 
ENDBRANCH  21  27
ENDBRANCH  20  21
ENDBRANCH  19  20
ENDBRANCH   1  19
TORSDOF 7
ENDMDL
MODEL 8
REMARK VINA RESULT:      -6.6      2.838      4.437
REMARK  Name = 
REMARK  8 active torsions:
REMARK  status: ('A' for Active; 'I' for Inactive)
REMARK    1  A    between atoms: C_1  and  C_2
REMARK    2  A    between atoms: C_5  and  C_6
REMARK    3  A    between atoms: C_6  and  C_8
REMARK    4  A    between atoms: C_8  and  S_9
REMARK    5  A    between atoms: S_9  and  C_10
REMARK    6  A    between atoms: C_14  and  C_15
REMARK    7  A    between atoms: C_17  and  C_18
REMARK    8  A    between atoms: C_23  and  C_24
REMARK                            x       y       z     vdW  Elec       q    Type
REMARK                         _______ _______ _______ _____ _____    ______ ____
ROOT
ATOM      1  C   UNL     1       3.004   7.988  18.093  0.00  0.00    +0.000 A 
ATOM      2  N   UNL     1       3.843   7.696  17.072  0.00  0.00    +0.000 NA
ATOM      3  C   UNL     1       4.240   6.424  16.897  0.00  0.00    +0.000 A 
ATOM      4  N   UNL     1       5.255   6.273  15.961  0.00  0.00    +0.000 N 
ATOM      5  C   UNL     1       3.762   5.374  17.680  0.00  0.00    +0.000 A 
ATOM      6  C   UNL     1       2.888   5.652  18.757  0.00  0.00    +0.000 A 
ATOM      7  C   UNL     1       2.552   7.011  18.993  0.00  0.00    +0.000 A 
ATOM      8  H   UNL     1       5.414   7.146  15.468  0.00  0.00    +0.000 HD
ATOM      9  H   UNL     1       5.186   5.472  15.344  0.00  0.00    +0.000 HD
ENDROOT
BRANCH   6  10
ATOM     10  C   UNL     1       2.351   4.545  19.597  0.00  0.00    +0.000 A 
ATOM     11  C   UNL     1       1.139   3.789  19.399  0.00  0.00    +0.000 A 
ATOM     12  C   UNL     1       0.882   2.888  20.409  0.00  0.00    +0.000 A 
ATOM     13  S   UNL     1       2.121   2.873  21.576  0.00  0.00    +0.000 S 
ATOM     14  C   UNL     1       2.959   4.134  20.773  0.00  0.00    +0.000 A 
ENDBRANCH   6  10
BRANCH   5  15
ATOM     15  C   UNL     1       4.177   4.050  17.325  0.00  0.00    +0.000 C 
ATOM     16  N   UNL     1       4.557   2.983  17.061  0.00  0.00    +0.000 NA
ENDBRANCH   5  15
BRANCH   7  17
ATOM     17  C   UNL     1       1.820   7.421  20.159  0.00  0.00    +0.000 C 
ATOM     18  N   UNL     1       1.254   7.774  21.109  0.00  0.00    +0.000 NA
ENDBRANCH   7  17
BRANCH   1  19
ATOM     19  S   UNL     1       2.515   9.713  18.200  0.00  0.00    +0.000 S 
BRANCH  19  20
ATOM     20  C   UNL     1       0.708   9.596  17.916  0.00  0.00    +0.000 C 
BRANCH  20  21
ATOM     21  C   UNL     1      -0.095  10.459  18.881  0.00  0.00    +0.000 C 
ATOM     22  O   UNL     1       0.360  10.916  19.929  0.00  0.00    +0.000 OA
BRANCH  21  27
ATOM     23  C   UNL     1      -5.653  11.490  17.452  0.00  0.00    +0.000 C 
ATOM     24  C   UNL     1      -4.217  11.241  17.813  0.00  0.00    +0.000 A 
ATOM     25  C   UNL     1      -3.446  10.318  17.101  0.00  0.00    +0.000 A 
ATOM     26  C   UNL     1      -2.113  10.081  17.459  0.00  0.00    +0.000 A 
ATOM     27  C   UNL     1      -1.527  10.762  18.535  0.00  0.00    +0.000 A 
ATOM     28  C   UNL     1      -2.296  11.693  19.242  0.00  0.00    +0.000 A 
ATOM     29  C   UNL     1      -3.631  11.928  18.883  0.00  0.00    +0.000 A 
ENDBRANCH  21  27
ENDBRANCH  20  21
ENDBRANCH  19  20
ENDBRANCH   1  19
TORSDOF 7
ENDMDL
MODEL 9
REMARK VINA RESULT:      -6.5      1.168      1.803
REMARK  Name = 
REMARK  8 active torsions:
REMARK  status: ('A' for Active; 'I' for Inactive)
REMARK    1  A    between atoms: C_1  and  C_2
REMARK    2  A    between atoms: C_5  and  C_6
REMARK    3  A    between atoms: C_6  and  C_8
REMARK    4  A    between atoms: C_8  and  S_9
REMARK    5  A    between atoms: S_9  and  C_10
REMARK    6  A    between atoms: C_14  and  C_15
REMARK    7  A    between atoms: C_17  and  C_18
REMARK    8  A    between atoms: C_23  and  C_24
REMARK                            x       y       z     vdW  Elec       q    Type
REMARK                         _______ _______ _______ _____ _____    ______ ____
ROOT
ATOM      1  C   UNL     1       2.072   6.598  19.946  0.00  0.00    +0.000 A 
ATOM      2  N   UNL     1       1.782   5.655  20.872  0.00  0.00    +0.000 NA
ATOM      3  C   UNL     1       2.435   4.481  20.833  0.00  0.00    +0.000 A 
ATOM      4  N   UNL     1       1.916   3.518  21.689  0.00  0.00    +0.000 N 
ATOM      5  C   UNL     1       3.458   4.220  19.922  0.00  0.00    +0.000 A 
ATOM      6  C   UNL     1       3.777   5.187  18.940  0.00  0.00    +0.000 A 
ATOM      7  C   UNL     1       3.015   6.385  18.930  0.00  0.00    +0.000 A 
ATOM      8  H   UNL     1       1.219   3.928  22.302  0.00  0.00    +0.000 HD
ATOM      9  H   UNL     1       2.588   2.938  22.180  0.00  0.00    +0.000 HD
ENDROOT
BRANCH   6  10
ATOM     10  C   UNL     1       4.877   4.938  17.967  0.00  0.00    +0.000 A 
ATOM     11  C   UNL     1       4.788   4.331  16.663  0.00  0.00    +0.000 A 
ATOM     12  C   UNL     1       6.010   4.166  16.048  0.00  0.00    +0.000 A 
ATOM     13  S   UNL     1       7.282   4.801  16.984  0.00  0.00    +0.000 S 
ATOM     14  C   UNL     1       6.205   5.220  18.250  0.00  0.00    +0.000 A 
ENDBRANCH   6  10
BRANCH   5  15
ATOM     15  C   UNL     1       4.150   2.973  20.053  0.00  0.00    +0.000 C 
ATOM     16  N   UNL     1       4.669   1.939  20.175  0.00  0.00    +0.000 NA
ENDBRANCH   5  15
BRANCH   7  17
ATOM     17  C   UNL     1       3.134   7.350  17.873  0.00  0.00    +0.000 C 
ATOM     18  N   UNL     1       3.256   8.145  17.036  0.00  0.00    +0.000 NA
ENDBRANCH   7  17
BRANCH   1  19
ATOM     19  S   UNL     1       1.163   8.137  20.124  0.00  0.00    +0.000 S 
BRANCH  19  20
ATOM     20  C   UNL     1       1.533   8.578  21.863  0.00  0.00    +0.000 C 
BRANCH  20  21
ATOM     21  C   UNL     1       0.687   9.739  22.368  0.00  0.00    +0.000 C 
ATOM     22  O   UNL     1       0.243   9.815  23.513  0.00  0.00    +0.000 OA
BRANCH  21  27
ATOM     23  C   UNL     1      -0.390  14.048  18.589  0.00  0.00    +0.000 C 
ATOM     24  C   UNL     1      -0.119  12.949  19.576  0.00  0.00    +0.000 A 
ATOM     25  C   UNL     1       1.188  12.619  19.944  0.00  0.00    +0.000 A 
ATOM     26  C   UNL     1       1.429  11.580  20.851  0.00  0.00    +0.000 A 
ATOM     27  C   UNL     1       0.368  10.852  21.407  0.00  0.00    +0.000 A 
ATOM     28  C   UNL     1      -0.942  11.189  21.046  0.00  0.00    +0.000 A 
ATOM     29  C   UNL     1      -1.181  12.229  20.137  0.00  0.00    +0.000 A 
ENDBRANCH  21  27
ENDBRANCH  20  21
ENDBRANCH  19  20
ENDBRANCH   1  19
TORSDOF 7
ENDMDL
