MODEL 1
REMARK VINA RESULT:      -9.2      0.000      0.000
REMARK  Name = 
REMARK  7 active torsions:
REMARK  status: ('A' for Active; 'I' for Inactive)
REMARK    1  A    between atoms: C_1  and  C_2
REMARK    2  A    between atoms: C_4  and  C_5
REMARK    3  A    between atoms: C_5  and  N_6
REMARK    4  A    between atoms: C_10  and  C_11
REMARK    5  A    between atoms: C_11  and  N_12
REMARK    6  A    between atoms: C_15  and  N_16
REMARK    7  A    between atoms: C_19  and  C_20
REMARK                            x       y       z     vdW  Elec       q    Type
REMARK                         _______ _______ _______ _____ _____    ______ ____
ROOT
ATOM      1  N   UNL     1       1.992   7.034  20.636  0.00  0.00    +0.000 N 
ATOM      2  C   UNL     1       1.394   8.278  20.630  0.00  0.00    +0.000 A 
ATOM      3  C   UNL     1       1.196   9.033  19.345  0.00  0.00    +0.000 A 
ATOM      4  C   UNL     1       0.534  10.197  19.386  0.00  0.00    +0.000 A 
ATOM      5  N   UNL     1       0.108  10.661  20.645  0.00  0.00    +0.000 N 
ATOM      6  N   UNL     1      -0.549  11.810  20.926  0.00  0.00    +0.000 NA
ATOM      7  C   UNL     1      -0.636  11.765  22.258  0.00  0.00    +0.000 A 
ATOM      8  N   UNL     1      -0.064  10.659  22.842  0.00  0.00    +0.000 NA
ATOM      9  C   UNL     1       0.380   9.958  21.818  0.00  0.00    +0.000 A 
ATOM     10  N   UNL     1       1.011   8.743  21.798  0.00  0.00    +0.000 NA
ATOM     11  H   UNL     1       2.187   6.694  21.573  0.00  0.00    +0.000 HD
ENDROOT
BRANCH   7  12
ATOM     12  C   UNL     1      -1.313  12.844  23.041  0.00  0.00    +0.000 A 
ATOM     13  C   UNL     1      -2.679  13.009  23.186  0.00  0.00    +0.000 A 
ATOM     14  C   UNL     1      -2.871  14.159  23.991  0.00  0.00    +0.000 A 
ATOM     15  C   UNL     1      -1.616  14.635  24.282  0.00  0.00    +0.000 A 
ATOM     16  O   UNL     1      -0.667  13.837  23.730  0.00  0.00    +0.000 OA
ENDBRANCH   7  12
BRANCH   4  17
ATOM     17  N   UNL     1       0.270  10.969  18.262  0.00  0.00    +0.000 N 
ATOM     18  H   UNL     1      -0.699  11.261  18.161  0.00  0.00    +0.000 HD
ATOM     19  H   UNL     1       0.651  10.543  17.413  0.00  0.00    +0.000 HD
ENDBRANCH   4  17
BRANCH   1  20
ATOM     20  C   UNL     1       2.835   6.520  19.569  0.00  0.00    +0.000 C 
BRANCH  20  25
ATOM     21  N   UNL     1       4.037   4.532  18.705  0.00  0.00    +0.000 NA
ATOM     22  C   UNL     1       3.696   3.214  18.180  0.00  0.00    +0.000 C 
ATOM     23  C   UNL     1       2.303   3.524  17.685  0.00  0.00    +0.000 C 
ATOM     24  C   UNL     1       1.710   4.341  18.830  0.00  0.00    +0.000 C 
ATOM     25  C   UNL     1       2.923   4.981  19.545  0.00  0.00    +0.000 C 
BRANCH  21  26
ATOM     26  C   UNL     1       5.411   4.666  19.174  0.00  0.00    +0.000 C 
BRANCH  26  30
ATOM     27  C   UNL     1       7.001   4.815  14.354  0.00  0.00    +0.000 C 
ATOM     28  C   UNL     1       6.843   4.868  15.818  0.00  0.00    +0.000 A 
ATOM     29  C   UNL     1       5.793   5.172  16.643  0.00  0.00    +0.000 A 
ATOM     30  C   UNL     1       6.255   4.825  17.938  0.00  0.00    +0.000 A 
ATOM     31  N   UNL     1       7.545   4.463  17.911  0.00  0.00    +0.000 NA
ATOM     32  O   UNL     1       7.909   4.485  16.571  0.00  0.00    +0.000 OA
ENDBRANCH  26  30
ENDBRANCH  21  26
ENDBRANCH  20  25
ENDBRANCH   1  20
TORSDOF 6
ENDMDL
MODEL 2
REMARK VINA RESULT:      -9.0      1.351      1.524
REMARK  Name = 
REMARK  7 active torsions:
REMARK  status: ('A' for Active; 'I' for Inactive)
REMARK    1  A    between atoms: C_1  and  C_2
REMARK    2  A    between atoms: C_4  and  C_5
REMARK    3  A    between atoms: C_5  and  N_6
REMARK    4  A    between atoms: C_10  and  C_11
REMARK    5  A    between atoms: C_11  and  N_12
REMARK    6  A    between atoms: C_15  and  N_16
REMARK    7  A    between atoms: C_19  and  C_20
REMARK                            x       y       z     vdW  Elec       q    Type
REMARK                         _______ _______ _______ _____ _____    ______ ____
ROOT
ATOM      1  N   UNL     1       2.426   6.780  20.290  0.00  0.00    +0.000 N 
ATOM      2  C   UNL     1       1.765   7.992  20.292  0.00  0.00    +0.000 A 
ATOM      3  C   UNL     1       1.479   8.715  19.005  0.00  0.00    +0.000 A 
ATOM      4  C   UNL     1       0.760   9.845  19.056  0.00  0.00    +0.000 A 
ATOM      5  N   UNL     1       0.361  10.306  20.325  0.00  0.00    +0.000 N 
ATOM      6  N   UNL     1      -0.343  11.424  20.615  0.00  0.00    +0.000 NA
ATOM      7  C   UNL     1      -0.376  11.397  21.950  0.00  0.00    +0.000 A 
ATOM      8  N   UNL     1       0.275  10.330  22.526  0.00  0.00    +0.000 NA
ATOM      9  C   UNL     1       0.714   9.636  21.495  0.00  0.00    +0.000 A 
ATOM     10  N   UNL     1       1.405   8.455  21.467  0.00  0.00    +0.000 NA
ATOM     11  H   UNL     1       2.675   6.465  21.224  0.00  0.00    +0.000 HD
ENDROOT
BRANCH   7  12
ATOM     12  C   UNL     1      -1.076  12.452  22.745  0.00  0.00    +0.000 A 
ATOM     13  C   UNL     1      -2.436  12.520  22.986  0.00  0.00    +0.000 A 
ATOM     14  C   UNL     1      -2.659  13.684  23.763  0.00  0.00    +0.000 A 
ATOM     15  C   UNL     1      -1.426  14.263  23.942  0.00  0.00    +0.000 A 
ATOM     16  O   UNL     1      -0.461  13.518  23.349  0.00  0.00    +0.000 OA
ENDBRANCH   7  12
BRANCH   4  17
ATOM     17  N   UNL     1       0.413  10.584  17.933  0.00  0.00    +0.000 N 
ATOM     18  H   UNL     1      -0.474  10.326  17.507  0.00  0.00    +0.000 HD
ATOM     19  H   UNL     1       1.183  10.632  17.259  0.00  0.00    +0.000 HD
ENDBRANCH   4  17
BRANCH   1  20
ATOM     20  C   UNL     1       3.252   6.292  19.199  0.00  0.00    +0.000 C 
BRANCH  20  25
ATOM     21  N   UNL     1       4.366   4.303  18.225  0.00  0.00    +0.000 NA
ATOM     22  C   UNL     1       3.966   3.042  17.608  0.00  0.00    +0.000 C 
ATOM     23  C   UNL     1       2.602   3.459  17.110  0.00  0.00    +0.000 C 
ATOM     24  C   UNL     1       2.029   4.230  18.296  0.00  0.00    +0.000 C 
ATOM     25  C   UNL     1       3.260   4.755  19.073  0.00  0.00    +0.000 C 
BRANCH  21  26
ATOM     26  C   UNL     1       5.735   4.331  18.726  0.00  0.00    +0.000 C 
BRANCH  26  30
ATOM     27  C   UNL     1       8.171   8.661  17.680  0.00  0.00    +0.000 C 
ATOM     28  C   UNL     1       7.478   7.361  17.662  0.00  0.00    +0.000 A 
ATOM     29  C   UNL     1       7.429   6.306  18.534  0.00  0.00    +0.000 A 
ATOM     30  C   UNL     1       6.412   5.467  18.009  0.00  0.00    +0.000 A 
ATOM     31  N   UNL     1       5.973   5.921  16.827  0.00  0.00    +0.000 NA
ATOM     32  O   UNL     1       6.643   7.118  16.616  0.00  0.00    +0.000 OA
ENDBRANCH  26  30
ENDBRANCH  21  26
ENDBRANCH  20  25
ENDBRANCH   1  20
TORSDOF 6
ENDMDL
MODEL 3
REMARK VINA RESULT:      -9.0      4.425      8.114
REMARK  Name = 
REMARK  7 active torsions:
REMARK  status: ('A' for Active; 'I' for Inactive)
REMARK    1  A    between atoms: C_1  and  C_2
REMARK    2  A    between atoms: C_4  and  C_5
REMARK    3  A    between atoms: C_5  and  N_6
REMARK    4  A    between atoms: C_10  and  C_11
REMARK    5  A    between atoms: C_11  and  N_12
REMARK    6  A    between atoms: C_15  and  N_16
REMARK    7  A    between atoms: C_19  and  C_20
REMARK                            x       y       z     vdW  Elec       q    Type
REMARK                         _______ _______ _______ _____ _____    ______ ____
ROOT
ATOM      1  N   UNL     1       5.205   4.974  16.445  0.00  0.00    +0.000 N 
ATOM      2  C   UNL     1       6.096   5.734  17.177  0.00  0.00    +0.000 A 
ATOM      3  C   UNL     1       6.819   5.149  18.358  0.00  0.00    +0.000 A 
ATOM      4  C   UNL     1       7.735   5.903  18.981  0.00  0.00    +0.000 A 
ATOM      5  N   UNL     1       7.925   7.217  18.513  0.00  0.00    +0.000 N 
ATOM      6  N   UNL     1       8.770   8.155  18.998  0.00  0.00    +0.000 NA
ATOM      7  C   UNL     1       8.491   9.211  18.230  0.00  0.00    +0.000 A 
ATOM      8  N   UNL     1       7.510   9.001  17.288  0.00  0.00    +0.000 NA
ATOM      9  C   UNL     1       7.178   7.737  17.458  0.00  0.00    +0.000 A 
ATOM     10  N   UNL     1       6.270   6.972  16.774  0.00  0.00    +0.000 NA
ATOM     11  H   UNL     1       4.687   5.521  15.762  0.00  0.00    +0.000 HD
ENDROOT
BRANCH   7  12
ATOM     12  C   UNL     1       9.204  10.515  18.390  0.00  0.00    +0.000 A 
ATOM     13  C   UNL     1       8.836  11.718  17.815  0.00  0.00    +0.000 A 
ATOM     14  C   UNL     1       9.797  12.678  18.220  0.00  0.00    +0.000 A 
ATOM     15  C   UNL     1      10.699  12.005  19.007  0.00  0.00    +0.000 A 
ATOM     16  O   UNL     1      10.340  10.702  19.133  0.00  0.00    +0.000 OA
ENDBRANCH   7  12
BRANCH   4  17
ATOM     17  N   UNL     1       8.482   5.462  20.066  0.00  0.00    +0.000 N 
ATOM     18  H   UNL     1       9.230   4.813  19.835  0.00  0.00    +0.000 HD
ATOM     19  H   UNL     1       7.883   5.131  20.827  0.00  0.00    +0.000 HD
ENDBRANCH   4  17
BRANCH   1  20
ATOM     20  C   UNL     1       4.564   3.762  16.927  0.00  0.00    +0.000 C 
BRANCH  20  25
ATOM     21  N   UNL     1       3.221   4.037  18.993  0.00  0.00    +0.000 NA
ATOM     22  C   UNL     1       1.923   3.598  19.496  0.00  0.00    +0.000 C 
ATOM     23  C   UNL     1       1.768   2.351  18.659  0.00  0.00    +0.000 C 
ATOM     24  C   UNL     1       2.210   2.815  17.274  0.00  0.00    +0.000 C 
ATOM     25  C   UNL     1       3.165   4.005  17.528  0.00  0.00    +0.000 C 
BRANCH  21  26
ATOM     26  C   UNL     1       3.786   5.191  19.681  0.00  0.00    +0.000 C 
BRANCH  26  30
ATOM     27  C   UNL     1       1.829   9.513  17.873  0.00  0.00    +0.000 C 
ATOM     28  C   UNL     1       2.106   8.228  18.537  0.00  0.00    +0.000 A 
ATOM     29  C   UNL     1       2.871   7.141  18.208  0.00  0.00    +0.000 A 
ATOM     30  C   UNL     1       2.864   6.342  19.380  0.00  0.00    +0.000 A 
ATOM     31  N   UNL     1       2.040   6.849  20.307  0.00  0.00    +0.000 NA
ATOM     32  O   UNL     1       1.569   8.041  19.774  0.00  0.00    +0.000 OA
ENDBRANCH  26  30
ENDBRANCH  21  26
ENDBRANCH  20  25
ENDBRANCH   1  20
TORSDOF 6
ENDMDL
MODEL 4
REMARK VINA RESULT:      -8.9      1.024      1.056
REMARK  Name = 
REMARK  7 active torsions:
REMARK  status: ('A' for Active; 'I' for Inactive)
REMARK    1  A    between atoms: C_1  and  C_2
REMARK    2  A    between atoms: C_4  and  C_5
REMARK    3  A    between atoms: C_5  and  N_6
REMARK    4  A    between atoms: C_10  and  C_11
REMARK    5  A    between atoms: C_11  and  N_12
REMARK    6  A    between atoms: C_15  and  N_16
REMARK    7  A    between atoms: C_19  and  C_20
REMARK                            x       y       z     vdW  Elec       q    Type
REMARK                         _______ _______ _______ _____ _____    ______ ____
ROOT
ATOM      1  N   UNL     1       1.919   6.804  20.720  0.00  0.00    +0.000 N 
ATOM      2  C   UNL     1       1.394   8.081  20.705  0.00  0.00    +0.000 A 
ATOM      3  C   UNL     1       1.338   8.877  19.431  0.00  0.00    +0.000 A 
ATOM      4  C   UNL     1       0.741  10.076  19.455  0.00  0.00    +0.000 A 
ATOM      5  N   UNL     1       0.247  10.533  20.691  0.00  0.00    +0.000 N 
ATOM      6  N   UNL     1      -0.365  11.711  20.954  0.00  0.00    +0.000 NA
ATOM      7  C   UNL     1      -0.556  11.640  22.274  0.00  0.00    +0.000 A 
ATOM      8  N   UNL     1      -0.093  10.488  22.867  0.00  0.00    +0.000 NA
ATOM      9  C   UNL     1       0.388   9.787  21.860  0.00  0.00    +0.000 A 
ATOM     10  N   UNL     1       0.949   8.539  21.853  0.00  0.00    +0.000 NA
ATOM     11  H   UNL     1       2.022   6.430  21.660  0.00  0.00    +0.000 HD
ENDROOT
BRANCH   7  12
ATOM     12  C   UNL     1      -1.230  12.737  23.034  0.00  0.00    +0.000 A 
ATOM     13  C   UNL     1      -2.580  12.817  23.321  0.00  0.00    +0.000 A 
ATOM     14  C   UNL     1      -2.777  14.022  24.041  0.00  0.00    +0.000 A 
ATOM     15  C   UNL     1      -1.541  14.611  24.142  0.00  0.00    +0.000 A 
ATOM     16  O   UNL     1      -0.595  13.835  23.555  0.00  0.00    +0.000 OA
ENDBRANCH   7  12
BRANCH   4  17
ATOM     17  N   UNL     1       0.608  10.889  18.337  0.00  0.00    +0.000 N 
ATOM     18  H   UNL     1       0.989  11.826  18.441  0.00  0.00    +0.000 HD
ATOM     19  H   UNL     1      -0.350  10.882  17.976  0.00  0.00    +0.000 HD
ENDBRANCH   4  17
BRANCH   1  20
ATOM     20  C   UNL     1       2.812   6.268  19.706  0.00  0.00    +0.000 C 
BRANCH  20  25
ATOM     21  N   UNL     1       3.489   4.245  18.443  0.00  0.00    +0.000 NA
ATOM     22  C   UNL     1       2.923   2.939  18.122  0.00  0.00    +0.000 C 
ATOM     23  C   UNL     1       1.459   3.292  18.247  0.00  0.00    +0.000 C 
ATOM     24  C   UNL     1       1.419   4.125  19.525  0.00  0.00    +0.000 C 
ATOM     25  C   UNL     1       2.838   4.727  19.664  0.00  0.00    +0.000 C 
BRANCH  21  26
ATOM     26  C   UNL     1       4.937   4.337  18.297  0.00  0.00    +0.000 C 
BRANCH  26  30
ATOM     27  C   UNL     1       6.913   4.674  13.633  0.00  0.00    +0.000 C 
ATOM     28  C   UNL     1       6.114   4.776  14.866  0.00  0.00    +0.000 A 
ATOM     29  C   UNL     1       5.840   3.907  15.888  0.00  0.00    +0.000 A 
ATOM     30  C   UNL     1       5.184   4.705  16.860  0.00  0.00    +0.000 A 
ATOM     31  N   UNL     1       4.959   5.942  16.397  0.00  0.00    +0.000 NA
ATOM     32  O   UNL     1       5.552   5.984  15.143  0.00  0.00    +0.000 OA
ENDBRANCH  26  30
ENDBRANCH  21  26
ENDBRANCH  20  25
ENDBRANCH   1  20
TORSDOF 6
ENDMDL
MODEL 5
REMARK VINA RESULT:      -8.6      1.229      1.335
REMARK  Name = 
REMARK  7 active torsions:
REMARK  status: ('A' for Active; 'I' for Inactive)
REMARK    1  A    between atoms: C_1  and  C_2
REMARK    2  A    between atoms: C_4  and  C_5
REMARK    3  A    between atoms: C_5  and  N_6
REMARK    4  A    between atoms: C_10  and  C_11
REMARK    5  A    between atoms: C_11  and  N_12
REMARK    6  A    between atoms: C_15  and  N_16
REMARK    7  A    between atoms: C_19  and  C_20
REMARK                            x       y       z     vdW  Elec       q    Type
REMARK                         _______ _______ _______ _____ _____    ______ ____
ROOT
ATOM      1  N   UNL     1       1.829   6.519  20.840  0.00  0.00    +0.000 N 
ATOM      2  C   UNL     1       1.512   7.843  20.610  0.00  0.00    +0.000 A 
ATOM      3  C   UNL     1       1.599   8.427  19.228  0.00  0.00    +0.000 A 
ATOM      4  C   UNL     1       1.198   9.693  19.045  0.00  0.00    +0.000 A 
ATOM      5  N   UNL     1       0.767  10.409  20.178  0.00  0.00    +0.000 N 
ATOM      6  N   UNL     1       0.345  11.694  20.234  0.00  0.00    +0.000 NA
ATOM      7  C   UNL     1       0.128  11.861  21.541  0.00  0.00    +0.000 A 
ATOM      8  N   UNL     1       0.396  10.760  22.321  0.00  0.00    +0.000 NA
ATOM      9  C   UNL     1       0.773   9.844  21.452  0.00  0.00    +0.000 A 
ATOM     10  N   UNL     1       1.131   8.538  21.657  0.00  0.00    +0.000 NA
ATOM     11  H   UNL     1       1.860   6.286  21.829  0.00  0.00    +0.000 HD
ENDROOT
BRANCH   7  12
ATOM     12  C   UNL     1      -0.373  13.155  22.099  0.00  0.00    +0.000 A 
ATOM     13  C   UNL     1      -0.544  14.332  21.394  0.00  0.00    +0.000 A 
ATOM     14  C   UNL     1      -1.020  15.298  22.316  0.00  0.00    +0.000 A 
ATOM     15  C   UNL     1      -1.102  14.659  23.529  0.00  0.00    +0.000 A 
ATOM     16  O   UNL     1      -0.733  13.359  23.406  0.00  0.00    +0.000 OA
ENDBRANCH   7  12
BRANCH   4  17
ATOM     17  N   UNL     1       1.209  10.331  17.811  0.00  0.00    +0.000 N 
ATOM     18  H   UNL     1       0.591   9.924  17.114  0.00  0.00    +0.000 HD
ATOM     19  H   UNL     1       2.163  10.474  17.468  0.00  0.00    +0.000 HD
ENDBRANCH   4  17
BRANCH   1  20
ATOM     20  C   UNL     1       2.638   5.699  19.954  0.00  0.00    +0.000 C 
BRANCH  20  25
ATOM     21  N   UNL     1       3.251   3.410  19.224  0.00  0.00    +0.000 NA
ATOM     22  C   UNL     1       2.575   2.137  19.000  0.00  0.00    +0.000 C 
ATOM     23  C   UNL     1       1.186   2.665  18.730  0.00  0.00    +0.000 C 
ATOM     24  C   UNL     1       1.010   3.726  19.813  0.00  0.00    +0.000 C 
ATOM     25  C   UNL     1       2.444   4.185  20.171  0.00  0.00    +0.000 C 
BRANCH  21  26
ATOM     26  C   UNL     1       4.696   3.314  19.398  0.00  0.00    +0.000 C 
BRANCH  26  30
ATOM     27  C   UNL     1       5.904   4.369  14.581  0.00  0.00    +0.000 C 
ATOM     28  C   UNL     1       5.752   4.311  16.045  0.00  0.00    +0.000 A 
ATOM     29  C   UNL     1       4.716   3.973  16.874  0.00  0.00    +0.000 A 
ATOM     30  C   UNL     1       5.301   3.927  18.165  0.00  0.00    +0.000 A 
ATOM     31  N   UNL     1       6.575   4.341  18.133  0.00  0.00    +0.000 NA
ATOM     32  O   UNL     1       6.857   4.576  16.794  0.00  0.00    +0.000 OA
ENDBRANCH  26  30
ENDBRANCH  21  26
ENDBRANCH  20  25
ENDBRANCH   1  20
TORSDOF 6
ENDMDL
MODEL 6
REMARK VINA RESULT:      -8.6      1.380      1.593
REMARK  Name = 
REMARK  7 active torsions:
REMARK  status: ('A' for Active; 'I' for Inactive)
REMARK    1  A    between atoms: C_1  and  C_2
REMARK    2  A    between atoms: C_4  and  C_5
REMARK    3  A    between atoms: C_5  and  N_6
REMARK    4  A    between atoms: C_10  and  C_11
REMARK    5  A    between atoms: C_11  and  N_12
REMARK    6  A    between atoms: C_15  and  N_16
REMARK    7  A    between atoms: C_19  and  C_20
REMARK                            x       y       z     vdW  Elec       q    Type
REMARK                         _______ _______ _______ _____ _____    ______ ____
ROOT
ATOM      1  N   UNL     1       1.561   7.097  20.831  0.00  0.00    +0.000 N 
ATOM      2  C   UNL     1       1.090   8.395  20.846  0.00  0.00    +0.000 A 
ATOM      3  C   UNL     1       1.100   9.233  19.599  0.00  0.00    +0.000 A 
ATOM      4  C   UNL     1       0.553  10.456  19.649  0.00  0.00    +0.000 A 
ATOM      5  N   UNL     1       0.046  10.892  20.888  0.00  0.00    +0.000 N 
ATOM      6  N   UNL     1      -0.523  12.086  21.176  0.00  0.00    +0.000 NA
ATOM      7  C   UNL     1      -0.751  11.979  22.487  0.00  0.00    +0.000 A 
ATOM      8  N   UNL     1      -0.351  10.790  23.052  0.00  0.00    +0.000 NA
ATOM      9  C   UNL     1       0.126  10.103  22.034  0.00  0.00    +0.000 A 
ATOM     10  N   UNL     1       0.635   8.833  21.998  0.00  0.00    +0.000 NA
ATOM     11  H   UNL     1       1.625   6.689  21.760  0.00  0.00    +0.000 HD
ENDROOT
BRANCH   7  12
ATOM     12  C   UNL     1      -1.398  13.078  23.268  0.00  0.00    +0.000 A 
ATOM     13  C   UNL     1      -2.755  13.229  23.488  0.00  0.00    +0.000 A 
ATOM     14  C   UNL     1      -2.918  14.408  24.259  0.00  0.00    +0.000 A 
ATOM     15  C   UNL     1      -1.655  14.912  24.454  0.00  0.00    +0.000 A 
ATOM     16  O   UNL     1      -0.728  14.107  23.877  0.00  0.00    +0.000 OA
ENDBRANCH   7  12
BRANCH   4  17
ATOM     17  N   UNL     1       0.482  11.310  18.556  0.00  0.00    +0.000 N 
ATOM     18  H   UNL     1      -0.440  11.390  18.134  0.00  0.00    +0.000 HD
ATOM     19  H   UNL     1       1.220  11.113  17.874  0.00  0.00    +0.000 HD
ENDBRANCH   4  17
BRANCH   1  20
ATOM     20  C   UNL     1       2.456   6.557  19.821  0.00  0.00    +0.000 C 
BRANCH  20  25
ATOM     21  N   UNL     1       2.557   4.293  18.816  0.00  0.00    +0.000 NA
ATOM     22  C   UNL     1       2.239   2.925  19.215  0.00  0.00    +0.000 C 
ATOM     23  C   UNL     1       1.201   3.235  20.268  0.00  0.00    +0.000 C 
ATOM     24  C   UNL     1       1.834   4.391  21.038  0.00  0.00    +0.000 C 
ATOM     25  C   UNL     1       2.798   5.069  20.036  0.00  0.00    +0.000 C 
BRANCH  21  26
ATOM     26  C   UNL     1       3.469   4.404  17.684  0.00  0.00    +0.000 C 
BRANCH  26  30
ATOM     27  C   UNL     1       7.954   6.673  18.391  0.00  0.00    +0.000 C 
ATOM     28  C   UNL     1       6.716   5.881  18.475  0.00  0.00    +0.000 A 
ATOM     29  C   UNL     1       5.435   6.082  18.032  0.00  0.00    +0.000 A 
ATOM     30  C   UNL     1       4.789   4.840  18.258  0.00  0.00    +0.000 A 
ATOM     31  N   UNL     1       5.589   3.991  18.917  0.00  0.00    +0.000 NA
ATOM     32  O   UNL     1       6.805   4.649  19.046  0.00  0.00    +0.000 OA
ENDBRANCH  26  30
ENDBRANCH  21  26
ENDBRANCH  20  25
ENDBRANCH   1  20
TORSDOF 6
ENDMDL
MODEL 7
REMARK VINA RESULT:      -8.6      1.169      1.336
REMARK  Name = 
REMARK  7 active torsions:
REMARK  status: ('A' for Active; 'I' for Inactive)
REMARK    1  A    between atoms: C_1  and  C_2
REMARK    2  A    between atoms: C_4  and  C_5
REMARK    3  A    between atoms: C_5  and  N_6
REMARK    4  A    between atoms: C_10  and  C_11
REMARK    5  A    between atoms: C_11  and  N_12
REMARK    6  A    between atoms: C_15  and  N_16
REMARK    7  A    between atoms: C_19  and  C_20
REMARK                            x       y       z     vdW  Elec       q    Type
REMARK                         _______ _______ _______ _____ _____    ______ ____
ROOT
ATOM      1  N   UNL     1       2.049   6.963  20.237  0.00  0.00    +0.000 N 
ATOM      2  C   UNL     1       1.386   8.170  20.332  0.00  0.00    +0.000 A 
ATOM      3  C   UNL     1       1.363   9.131  19.176  0.00  0.00    +0.000 A 
ATOM      4  C   UNL     1       0.635  10.249  19.291  0.00  0.00    +0.000 A 
ATOM      5  N   UNL     1      -0.025  10.474  20.514  0.00  0.00    +0.000 N 
ATOM      6  N   UNL     1      -0.789  11.536  20.861  0.00  0.00    +0.000 NA
ATOM      7  C   UNL     1      -1.097  11.258  22.130  0.00  0.00    +0.000 A 
ATOM      8  N   UNL     1      -0.567  10.085  22.614  0.00  0.00    +0.000 NA
ATOM      9  C   UNL     1       0.086   9.586  21.583  0.00  0.00    +0.000 A 
ATOM     10  N   UNL     1       0.783   8.413  21.474  0.00  0.00    +0.000 NA
ATOM     11  H   UNL     1       2.102   6.471  21.125  0.00  0.00    +0.000 HD
ENDROOT
BRANCH   7  12
ATOM     12  C   UNL     1      -1.961  12.163  22.949  0.00  0.00    +0.000 A 
ATOM     13  C   UNL     1      -1.668  13.469  23.300  0.00  0.00    +0.000 A 
ATOM     14  C   UNL     1      -2.751  13.936  24.085  0.00  0.00    +0.000 A 
ATOM     15  C   UNL     1      -3.635  12.889  24.177  0.00  0.00    +0.000 A 
ATOM     16  O   UNL     1      -3.178  11.819  23.478  0.00  0.00    +0.000 OA
ENDBRANCH   7  12
BRANCH   4  17
ATOM     17  N   UNL     1       0.519  11.197  18.282  0.00  0.00    +0.000 N 
ATOM     18  H   UNL     1      -0.415  11.296  17.893  0.00  0.00    +0.000 HD
ATOM     19  H   UNL     1       1.241  11.076  17.566  0.00  0.00    +0.000 HD
ENDBRANCH   4  17
BRANCH   1  20
ATOM     20  C   UNL     1       3.089   6.668  19.267  0.00  0.00    +0.000 C 
BRANCH  20  25
ATOM     21  N   UNL     1       4.806   5.043  18.519  0.00  0.00    +0.000 NA
ATOM     22  C   UNL     1       5.045   3.607  18.627  0.00  0.00    +0.000 C 
ATOM     23  C   UNL     1       3.617   3.156  18.821  0.00  0.00    +0.000 C 
ATOM     24  C   UNL     1       3.075   4.169  19.827  0.00  0.00    +0.000 C 
ATOM     25  C   UNL     1       3.941   5.436  19.635  0.00  0.00    +0.000 C 
BRANCH  21  26
ATOM     26  C   UNL     1       5.983   5.836  18.188  0.00  0.00    +0.000 C 
BRANCH  26  30
ATOM     27  C   UNL     1       6.024   3.884  13.501  0.00  0.00    +0.000 C 
ATOM     28  C   UNL     1       6.181   4.691  14.723  0.00  0.00    +0.000 A 
ATOM     29  C   UNL     1       5.395   4.896  15.827  0.00  0.00    +0.000 A 
ATOM     30  C   UNL     1       6.228   5.616  16.720  0.00  0.00    +0.000 A 
ATOM     31  N   UNL     1       7.392   5.942  16.140  0.00  0.00    +0.000 NA
ATOM     32  O   UNL     1       7.360   5.351  14.884  0.00  0.00    +0.000 OA
ENDBRANCH  26  30
ENDBRANCH  21  26
ENDBRANCH  20  25
ENDBRANCH   1  20
TORSDOF 6
ENDMDL
MODEL 8
REMARK VINA RESULT:      -8.4      1.601      1.778
REMARK  Name = 
REMARK  7 active torsions:
REMARK  status: ('A' for Active; 'I' for Inactive)
REMARK    1  A    between atoms: C_1  and  C_2
REMARK    2  A    between atoms: C_4  and  C_5
REMARK    3  A    between atoms: C_5  and  N_6
REMARK    4  A    between atoms: C_10  and  C_11
REMARK    5  A    between atoms: C_11  and  N_12
REMARK    6  A    between atoms: C_15  and  N_16
REMARK    7  A    between atoms: C_19  and  C_20
REMARK                            x       y       z     vdW  Elec       q    Type
REMARK                         _______ _______ _______ _____ _____    ______ ____
ROOT
ATOM      1  N   UNL     1       1.867   6.516  20.931  0.00  0.00    +0.000 N 
ATOM      2  C   UNL     1       1.566   7.831  20.639  0.00  0.00    +0.000 A 
ATOM      3  C   UNL     1       1.716   8.365  19.242  0.00  0.00    +0.000 A 
ATOM      4  C   UNL     1       1.329   9.624  18.995  0.00  0.00    +0.000 A 
ATOM      5  N   UNL     1       0.850  10.382  20.081  0.00  0.00    +0.000 N 
ATOM      6  N   UNL     1       0.431  11.668  20.071  0.00  0.00    +0.000 NA
ATOM      7  C   UNL     1       0.157  11.884  21.360  0.00  0.00    +0.000 A 
ATOM      8  N   UNL     1       0.385  10.811  22.191  0.00  0.00    +0.000 NA
ATOM      9  C   UNL     1       0.797   9.863  21.373  0.00  0.00    +0.000 A 
ATOM     10  N   UNL     1       1.140   8.565  21.642  0.00  0.00    +0.000 NA
ATOM     11  H   UNL     1       1.853   6.319  21.928  0.00  0.00    +0.000 HD
ENDROOT
BRANCH   7  12
ATOM     12  C   UNL     1      -0.365  13.198  21.848  0.00  0.00    +0.000 A 
ATOM     13  C   UNL     1      -1.053  13.412  23.028  0.00  0.00    +0.000 A 
ATOM     14  C   UNL     1      -1.365  14.794  23.077  0.00  0.00    +0.000 A 
ATOM     15  C   UNL     1      -0.860  15.339  21.922  0.00  0.00    +0.000 A 
ATOM     16  O   UNL     1      -0.237  14.389  21.181  0.00  0.00    +0.000 OA
ENDBRANCH   7  12
BRANCH   4  17
ATOM     17  N   UNL     1       1.398  10.216  17.741  0.00  0.00    +0.000 N 
ATOM     18  H   UNL     1       2.043  10.999  17.672  0.00  0.00    +0.000 HD
ATOM     19  H   UNL     1       0.467  10.428  17.372  0.00  0.00    +0.000 HD
ENDBRANCH   4  17
BRANCH   1  20
ATOM     20  C   UNL     1       2.712   5.662  20.113  0.00  0.00    +0.000 C 
BRANCH  20  25
ATOM     21  N   UNL     1       3.155   3.360  19.307  0.00  0.00    +0.000 NA
ATOM     22  C   UNL     1       2.393   2.137  19.075  0.00  0.00    +0.000 C 
ATOM     23  C   UNL     1       1.033   2.759  18.863  0.00  0.00    +0.000 C 
ATOM     24  C   UNL     1       0.958   3.800  19.977  0.00  0.00    +0.000 C 
ATOM     25  C   UNL     1       2.429   4.158  20.298  0.00  0.00    +0.000 C 
BRANCH  21  26
ATOM     26  C   UNL     1       4.595   3.169  19.431  0.00  0.00    +0.000 C 
BRANCH  26  30
ATOM     27  C   UNL     1       7.024   7.134  17.392  0.00  0.00    +0.000 C 
ATOM     28  C   UNL     1       6.298   5.884  17.676  0.00  0.00    +0.000 A 
ATOM     29  C   UNL     1       6.312   5.001  18.723  0.00  0.00    +0.000 A 
ATOM     30  C   UNL     1       5.224   4.130  18.459  0.00  0.00    +0.000 A 
ATOM     31  N   UNL     1       4.675   4.388  17.264  0.00  0.00    +0.000 NA
ATOM     32  O   UNL     1       5.352   5.498  16.777  0.00  0.00    +0.000 OA
ENDBRANCH  26  30
ENDBRANCH  21  26
ENDBRANCH  20  25
ENDBRANCH   1  20
TORSDOF 6
ENDMDL
MODEL 9
REMARK VINA RESULT:      -8.2      2.321      3.073
REMARK  Name = 
REMARK  7 active torsions:
REMARK  status: ('A' for Active; 'I' for Inactive)
REMARK    1  A    between atoms: C_1  and  C_2
REMARK    2  A    between atoms: C_4  and  C_5
REMARK    3  A    between atoms: C_5  and  N_6
REMARK    4  A    between atoms: C_10  and  C_11
REMARK    5  A    between atoms: C_11  and  N_12
REMARK    6  A    between atoms: C_15  and  N_16
REMARK    7  A    between atoms: C_19  and  C_20
REMARK                            x       y       z     vdW  Elec       q    Type
REMARK                         _______ _______ _______ _____ _____    ______ ____
ROOT
ATOM      1  N   UNL     1       1.941   5.365  21.278  0.00  0.00    +0.000 N 
ATOM      2  C   UNL     1       1.911   6.531  20.540  0.00  0.00    +0.000 A 
ATOM      3  C   UNL     1       2.633   6.630  19.225  0.00  0.00    +0.000 A 
ATOM      4  C   UNL     1       2.501   7.756  18.509  0.00  0.00    +0.000 A 
ATOM      5  N   UNL     1       1.730   8.794  19.064  0.00  0.00    +0.000 N 
ATOM      6  N   UNL     1       1.483  10.015  18.537  0.00  0.00    +0.000 NA
ATOM      7  C   UNL     1       0.766  10.598  19.501  0.00  0.00    +0.000 A 
ATOM      8  N   UNL     1       0.551   9.822  20.616  0.00  0.00    +0.000 NA
ATOM      9  C   UNL     1       1.139   8.680  20.322  0.00  0.00    +0.000 A 
ATOM     10  N   UNL     1       1.218   7.524  21.051  0.00  0.00    +0.000 NA
ATOM     11  H   UNL     1       1.531   5.472  22.202  0.00  0.00    +0.000 HD
ENDROOT
BRANCH   7  12
ATOM     12  C   UNL     1       0.240  11.991  19.361  0.00  0.00    +0.000 A 
ATOM     13  C   UNL     1       0.738  12.968  18.518  0.00  0.00    +0.000 A 
ATOM     14  C   UNL     1      -0.049  14.128  18.723  0.00  0.00    +0.000 A 
ATOM     15  C   UNL     1      -0.972  13.797  19.684  0.00  0.00    +0.000 A 
ATOM     16  O   UNL     1      -0.820  12.503  20.063  0.00  0.00    +0.000 OA
ENDBRANCH   7  12
BRANCH   4  17
ATOM     17  N   UNL     1       3.100   7.951  17.272  0.00  0.00    +0.000 N 
ATOM     18  H   UNL     1       3.848   7.299  17.050  0.00  0.00    +0.000 HD
ATOM     19  H   UNL     1       3.365   8.930  17.131  0.00  0.00    +0.000 HD
ENDBRANCH   4  17
BRANCH   1  20
ATOM     20  C   UNL     1       2.938   4.319  21.127  0.00  0.00    +0.000 C 
BRANCH  20  25
ATOM     21  N   UNL     1       2.739   2.827  19.157  0.00  0.00    +0.000 NA
ATOM     22  C   UNL     1       1.702   2.022  18.519  0.00  0.00    +0.000 C 
ATOM     23  C   UNL     1       0.493   2.784  19.011  0.00  0.00    +0.000 C 
ATOM     24  C   UNL     1       0.822   3.028  20.481  0.00  0.00    +0.000 C 
ATOM     25  C   UNL     1       2.366   3.002  20.564  0.00  0.00    +0.000 C 
BRANCH  21  26
ATOM     26  C   UNL     1       4.104   2.461  18.799  0.00  0.00    +0.000 C 
BRANCH  26  30
ATOM     27  C   UNL     1       5.556   5.840  15.300  0.00  0.00    +0.000 C 
ATOM     28  C   UNL     1       5.266   5.072  16.523  0.00  0.00    +0.000 A 
ATOM     29  C   UNL     1       4.247   4.235  16.892  0.00  0.00    +0.000 A 
ATOM     30  C   UNL     1       4.688   3.666  18.114  0.00  0.00    +0.000 A 
ATOM     31  N   UNL     1       5.836   4.224  18.522  0.00  0.00    +0.000 NA
ATOM     32  O   UNL     1       6.200   5.105  17.512  0.00  0.00    +0.000 OA
ENDBRANCH  26  30
ENDBRANCH  21  26
ENDBRANCH  20  25
ENDBRANCH   1  20
TORSDOF 6
ENDMDL
