MODEL 1
REMARK VINA RESULT:      -8.1      0.000      0.000
REMARK  Name = 
REMARK  5 active torsions:
REMARK  status: ('A' for Active; 'I' for Inactive)
REMARK    1  A    between atoms: C_2  and  C_3
REMARK    2  A    between atoms: C_3  and  C_4
REMARK    3  A    between atoms: C_8  and  C_9
REMARK    4  A    between atoms: C_16  and  O_17
REMARK    5  A    between atoms: O_17  and  C_18
REMARK                            x       y       z     vdW  Elec       q    Type
REMARK                         _______ _______ _______ _____ _____    ______ ____
ROOT
ATOM      1  C   UNL     1       4.112   3.638  18.270  0.00  0.00    +0.000 A 
ATOM      2  N   UNL     1       4.084   2.302  17.942  0.00  0.00    +0.000 N 
ATOM      3  N   UNL     1       3.221   1.548  18.646  0.00  0.00    +0.000 NA
ATOM      4  C   UNL     1       2.638   2.408  19.492  0.00  0.00    +0.000 A 
ATOM      5  C   UNL     1       1.664   2.162  20.466  0.00  0.00    +0.000 A 
ATOM      6  C   UNL     1       1.300   3.330  21.145  0.00  0.00    +0.000 A 
ATOM      7  N   UNL     1       1.766   4.612  20.939  0.00  0.00    +0.000 NA
ATOM      8  C   UNL     1       2.710   4.859  19.978  0.00  0.00    +0.000 A 
ATOM      9  C   UNL     1       3.159   3.734  19.271  0.00  0.00    +0.000 A 
ATOM     10  H   UNL     1       4.653   1.835  17.244  0.00  0.00    +0.000 HD
ENDROOT
BRANCH   1  15
ATOM     11  C   UNL     1       6.940   6.105  17.782  0.00  0.00    +0.000 A 
ATOM     12  C   UNL     1       6.784   6.438  16.434  0.00  0.00    +0.000 A 
ATOM     13  C   UNL     1       5.767   5.847  15.683  0.00  0.00    +0.000 A 
ATOM     14  C   UNL     1       4.882   4.942  16.280  0.00  0.00    +0.000 A 
ATOM     15  C   UNL     1       5.028   4.582  17.625  0.00  0.00    +0.000 A 
ATOM     16  C   UNL     1       6.094   5.136  18.340  0.00  0.00    +0.000 A 
BRANCH  11  17
ATOM     17  C   UNL     1       8.043   6.694  18.626  0.00  0.00    +0.000 C 
BRANCH  17  19
ATOM     18  N   UNL     1       8.333   9.386  17.993  0.00  0.00    +0.000 NA
ATOM     19  C   UNL     1       8.202   8.166  18.279  0.00  0.00    +0.000 C 
ENDBRANCH  17  19
ENDBRANCH  11  17
ENDBRANCH   1  15
BRANCH   8  20
ATOM     20  O   UNL     1       3.165   6.136  19.762  0.00  0.00    +0.000 OA
BRANCH  20  21
ATOM     21  C   UNL     1       2.206   7.048  19.222  0.00  0.00    +0.000 C 
ATOM     22  C   UNL     1       2.807   7.819  18.044  0.00  0.00    +0.000 C 
ATOM     23  C   UNL     1       1.906   8.969  17.642  0.00  0.00    +0.000 C 
ATOM     24  O   UNL     1       1.668   9.833  18.751  0.00  0.00    +0.000 OA
ATOM     25  C   UNL     1       0.992   9.167  19.815  0.00  0.00    +0.000 C 
ATOM     26  C   UNL     1       1.837   8.023  20.347  0.00  0.00    +0.000 C 
ENDBRANCH  20  21
ENDBRANCH   8  20
TORSDOF 5
ENDMDL
MODEL 2
REMARK VINA RESULT:      -8.1      1.051      1.133
REMARK  Name = 
REMARK  5 active torsions:
REMARK  status: ('A' for Active; 'I' for Inactive)
REMARK    1  A    between atoms: C_2  and  C_3
REMARK    2  A    between atoms: C_3  and  C_4
REMARK    3  A    between atoms: C_8  and  C_9
REMARK    4  A    between atoms: C_16  and  O_17
REMARK    5  A    between atoms: O_17  and  C_18
REMARK                            x       y       z     vdW  Elec       q    Type
REMARK                         _______ _______ _______ _____ _____    ______ ____
ROOT
ATOM      1  C   UNL     1       3.952   3.530  18.156  0.00  0.00    +0.000 A 
ATOM      2  N   UNL     1       3.856   2.194  17.838  0.00  0.00    +0.000 N 
ATOM      3  N   UNL     1       3.021   1.472  18.605  0.00  0.00    +0.000 NA
ATOM      4  C   UNL     1       2.528   2.354  19.485  0.00  0.00    +0.000 A 
ATOM      5  C   UNL     1       1.617   2.143  20.526  0.00  0.00    +0.000 A 
ATOM      6  C   UNL     1       1.340   3.325  21.223  0.00  0.00    +0.000 A 
ATOM      7  N   UNL     1       1.833   4.590  20.978  0.00  0.00    +0.000 NA
ATOM      8  C   UNL     1       2.715   4.802  19.952  0.00  0.00    +0.000 A 
ATOM      9  C   UNL     1       3.076   3.661  19.221  0.00  0.00    +0.000 A 
ATOM     10  H   UNL     1       4.359   1.706  17.104  0.00  0.00    +0.000 HD
ENDROOT
BRANCH   1  15
ATOM     11  C   UNL     1       6.728   6.013  17.489  0.00  0.00    +0.000 A 
ATOM     12  C   UNL     1       6.573   6.235  16.118  0.00  0.00    +0.000 A 
ATOM     13  C   UNL     1       5.574   5.565  15.411  0.00  0.00    +0.000 A 
ATOM     14  C   UNL     1       4.706   4.690  16.073  0.00  0.00    +0.000 A 
ATOM     15  C   UNL     1       4.851   4.440  17.443  0.00  0.00    +0.000 A 
ATOM     16  C   UNL     1       5.900   5.072  18.117  0.00  0.00    +0.000 A 
BRANCH  11  17
ATOM     17  C   UNL     1       7.813   6.691  18.288  0.00  0.00    +0.000 C 
BRANCH  17  19
ATOM     18  N   UNL     1       8.241   5.261  20.635  0.00  0.00    +0.000 NA
ATOM     19  C   UNL     1       8.047   5.909  19.571  0.00  0.00    +0.000 C 
ENDBRANCH  17  19
ENDBRANCH  11  17
ENDBRANCH   1  15
BRANCH   8  20
ATOM     20  O   UNL     1       3.196   6.063  19.697  0.00  0.00    +0.000 OA
BRANCH  20  21
ATOM     21  C   UNL     1       2.245   6.988  19.168  0.00  0.00    +0.000 C 
ATOM     22  C   UNL     1       2.859   7.781  18.011  0.00  0.00    +0.000 C 
ATOM     23  C   UNL     1       1.965   8.942  17.624  0.00  0.00    +0.000 C 
ATOM     24  O   UNL     1       1.721   9.785  18.749  0.00  0.00    +0.000 OA
ATOM     25  C   UNL     1       1.033   9.099  19.792  0.00  0.00    +0.000 C 
ATOM     26  C   UNL     1       1.869   7.942  20.309  0.00  0.00    +0.000 C 
ENDBRANCH  20  21
ENDBRANCH   8  20
TORSDOF 5
ENDMDL
MODEL 3
REMARK VINA RESULT:      -7.8      1.714      2.527
REMARK  Name = 
REMARK  5 active torsions:
REMARK  status: ('A' for Active; 'I' for Inactive)
REMARK    1  A    between atoms: C_2  and  C_3
REMARK    2  A    between atoms: C_3  and  C_4
REMARK    3  A    between atoms: C_8  and  C_9
REMARK    4  A    between atoms: C_16  and  O_17
REMARK    5  A    between atoms: O_17  and  C_18
REMARK                            x       y       z     vdW  Elec       q    Type
REMARK                         _______ _______ _______ _____ _____    ______ ____
ROOT
ATOM      1  C   UNL     1       4.657   3.679  19.123  0.00  0.00    +0.000 A 
ATOM      2  N   UNL     1       5.164   2.587  19.789  0.00  0.00    +0.000 N 
ATOM      3  N   UNL     1       4.320   1.980  20.641  0.00  0.00    +0.000 NA
ATOM      4  C   UNL     1       3.188   2.692  20.554  0.00  0.00    +0.000 A 
ATOM      5  C   UNL     1       1.979   2.510  21.234  0.00  0.00    +0.000 A 
ATOM      6  C   UNL     1       1.023   3.462  20.861  0.00  0.00    +0.000 A 
ATOM      7  N   UNL     1       1.151   4.475  19.933  0.00  0.00    +0.000 NA
ATOM      8  C   UNL     1       2.329   4.647  19.255  0.00  0.00    +0.000 A 
ATOM      9  C   UNL     1       3.357   3.756  19.595  0.00  0.00    +0.000 A 
ATOM     10  H   UNL     1       6.104   2.211  19.712  0.00  0.00    +0.000 HD
ENDROOT
BRANCH   1  15
ATOM     11  C   UNL     1       6.316   4.844  15.928  0.00  0.00    +0.000 A 
ATOM     12  C   UNL     1       7.043   5.948  16.383  0.00  0.00    +0.000 A 
ATOM     13  C   UNL     1       6.980   6.318  17.727  0.00  0.00    +0.000 A 
ATOM     14  C   UNL     1       6.214   5.574  18.630  0.00  0.00    +0.000 A 
ATOM     15  C   UNL     1       5.464   4.473  18.195  0.00  0.00    +0.000 A 
ATOM     16  C   UNL     1       5.491   4.161  16.832  0.00  0.00    +0.000 A 
BRANCH  11  17
ATOM     17  C   UNL     1       6.328   4.425  14.479  0.00  0.00    +0.000 C 
BRANCH  17  19
ATOM     18  N   UNL     1       8.389   5.752  13.166  0.00  0.00    +0.000 NA
ATOM     19  C   UNL     1       7.455   5.150  13.761  0.00  0.00    +0.000 C 
ENDBRANCH  17  19
ENDBRANCH  11  17
ENDBRANCH   1  15
BRANCH   8  20
ATOM     20  O   UNL     1       2.454   5.646  18.321  0.00  0.00    +0.000 OA
BRANCH  20  21
ATOM     21  C   UNL     1       2.582   6.968  18.846  0.00  0.00    +0.000 C 
ATOM     22  C   UNL     1       1.774   7.110  20.138  0.00  0.00    +0.000 C 
ATOM     23  C   UNL     1       1.680   8.564  20.554  0.00  0.00    +0.000 C 
ATOM     24  O   UNL     1       1.113   9.350  19.507  0.00  0.00    +0.000 OA
ATOM     25  C   UNL     1       1.918   9.336  18.330  0.00  0.00    +0.000 C 
ATOM     26  C   UNL     1       2.031   7.925  17.781  0.00  0.00    +0.000 C 
ENDBRANCH  20  21
ENDBRANCH   8  20
TORSDOF 5
ENDMDL
MODEL 4
REMARK VINA RESULT:      -7.6      1.470      2.194
REMARK  Name = 
REMARK  5 active torsions:
REMARK  status: ('A' for Active; 'I' for Inactive)
REMARK    1  A    between atoms: C_2  and  C_3
REMARK    2  A    between atoms: C_3  and  C_4
REMARK    3  A    between atoms: C_8  and  C_9
REMARK    4  A    between atoms: C_16  and  O_17
REMARK    5  A    between atoms: O_17  and  C_18
REMARK                            x       y       z     vdW  Elec       q    Type
REMARK                         _______ _______ _______ _____ _____    ______ ____
ROOT
ATOM      1  C   UNL     1       4.189   3.442  18.352  0.00  0.00    +0.000 A 
ATOM      2  N   UNL     1       4.146   2.071  18.230  0.00  0.00    +0.000 N 
ATOM      3  N   UNL     1       3.238   1.447  19.000  0.00  0.00    +0.000 NA
ATOM      4  C   UNL     1       2.637   2.435  19.677  0.00  0.00    +0.000 A 
ATOM      5  C   UNL     1       1.617   2.355  20.631  0.00  0.00    +0.000 A 
ATOM      6  C   UNL     1       1.248   3.619  21.107  0.00  0.00    +0.000 A 
ATOM      7  N   UNL     1       1.751   4.847  20.730  0.00  0.00    +0.000 NA
ATOM      8  C   UNL     1       2.741   4.930  19.787  0.00  0.00    +0.000 A 
ATOM      9  C   UNL     1       3.196   3.704  19.281  0.00  0.00    +0.000 A 
ATOM     10  H   UNL     1       4.735   1.495  17.638  0.00  0.00    +0.000 HD
ENDROOT
BRANCH   1  15
ATOM     11  C   UNL     1       6.301   4.788  15.515  0.00  0.00    +0.000 A 
ATOM     12  C   UNL     1       7.030   5.788  16.167  0.00  0.00    +0.000 A 
ATOM     13  C   UNL     1       6.822   6.029  17.525  0.00  0.00    +0.000 A 
ATOM     14  C   UNL     1       5.905   5.258  18.248  0.00  0.00    +0.000 A 
ATOM     15  C   UNL     1       5.152   4.262  17.614  0.00  0.00    +0.000 A 
ATOM     16  C   UNL     1       5.330   4.082  16.238  0.00  0.00    +0.000 A 
BRANCH  11  17
ATOM     17  C   UNL     1       6.469   4.512  14.042  0.00  0.00    +0.000 C 
BRANCH  17  19
ATOM     18  N   UNL     1       8.685   5.905  13.101  0.00  0.00    +0.000 NA
ATOM     19  C   UNL     1       7.680   5.274  13.528  0.00  0.00    +0.000 C 
ENDBRANCH  17  19
ENDBRANCH  11  17
ENDBRANCH   1  15
BRANCH   8  20
ATOM     20  O   UNL     1       3.232   6.152  19.400  0.00  0.00    +0.000 OA
BRANCH  20  21
ATOM     21  C   UNL     1       2.251   7.111  19.000  0.00  0.00    +0.000 C 
ATOM     22  C   UNL     1       2.822   8.043  17.928  0.00  0.00    +0.000 C 
ATOM     23  C   UNL     1       1.897   9.220  17.695  0.00  0.00    +0.000 C 
ATOM     24  O   UNL     1       1.664   9.925  18.913  0.00  0.00    +0.000 OA
ATOM     25  C   UNL     1       1.015   9.111  19.888  0.00  0.00    +0.000 C 
ATOM     26  C   UNL     1       1.885   7.921  20.250  0.00  0.00    +0.000 C 
ENDBRANCH  20  21
ENDBRANCH   8  20
TORSDOF 5
ENDMDL
MODEL 5
REMARK VINA RESULT:      -7.6      1.742      2.380
REMARK  Name = 
REMARK  5 active torsions:
REMARK  status: ('A' for Active; 'I' for Inactive)
REMARK    1  A    between atoms: C_2  and  C_3
REMARK    2  A    between atoms: C_3  and  C_4
REMARK    3  A    between atoms: C_8  and  C_9
REMARK    4  A    between atoms: C_16  and  O_17
REMARK    5  A    between atoms: O_17  and  C_18
REMARK                            x       y       z     vdW  Elec       q    Type
REMARK                         _______ _______ _______ _____ _____    ______ ____
ROOT
ATOM      1  C   UNL     1       4.303   3.514  18.433  0.00  0.00    +0.000 A 
ATOM      2  N   UNL     1       4.332   2.175  18.117  0.00  0.00    +0.000 N 
ATOM      3  N   UNL     1       3.292   1.449  18.565  0.00  0.00    +0.000 NA
ATOM      4  C   UNL     1       2.523   2.333  19.216  0.00  0.00    +0.000 A 
ATOM      5  C   UNL     1       1.315   2.120  19.890  0.00  0.00    +0.000 A 
ATOM      6  C   UNL     1       0.809   3.304  20.437  0.00  0.00    +0.000 A 
ATOM      7  N   UNL     1       1.345   4.573  20.358  0.00  0.00    +0.000 NA
ATOM      8  C   UNL     1       2.520   4.787  19.689  0.00  0.00    +0.000 A 
ATOM      9  C   UNL     1       3.117   3.644  19.136  0.00  0.00    +0.000 A 
ATOM     10  H   UNL     1       5.057   1.687  17.603  0.00  0.00    +0.000 HD
ENDROOT
BRANCH   1  15
ATOM     11  C   UNL     1       6.839   5.371  16.325  0.00  0.00    +0.000 A 
ATOM     12  C   UNL     1       7.487   6.144  17.294  0.00  0.00    +0.000 A 
ATOM     13  C   UNL     1       7.087   6.068  18.628  0.00  0.00    +0.000 A 
ATOM     14  C   UNL     1       6.057   5.201  19.010  0.00  0.00    +0.000 A 
ATOM     15  C   UNL     1       5.382   4.429  18.055  0.00  0.00    +0.000 A 
ATOM     16  C   UNL     1       5.756   4.571  16.715  0.00  0.00    +0.000 A 
BRANCH  11  17
ATOM     17  C   UNL     1       7.216   5.443  14.866  0.00  0.00    +0.000 C 
BRANCH  17  19
ATOM     18  N   UNL     1       5.736   3.561  13.451  0.00  0.00    +0.000 NA
ATOM     19  C   UNL     1       6.406   4.414  14.093  0.00  0.00    +0.000 C 
ENDBRANCH  17  19
ENDBRANCH  11  17
ENDBRANCH   1  15
BRANCH   8  20
ATOM     20  O   UNL     1       3.049   6.051  19.596  0.00  0.00    +0.000 OA
BRANCH  20  21
ATOM     21  C   UNL     1       2.158   7.056  19.108  0.00  0.00    +0.000 C 
ATOM     22  C   UNL     1       2.826   7.865  17.993  0.00  0.00    +0.000 C 
ATOM     23  C   UNL     1       2.005   9.094  17.658  0.00  0.00    +0.000 C 
ATOM     24  O   UNL     1       1.804   9.895  18.821  0.00  0.00    +0.000 OA
ATOM     25  C   UNL     1       1.069   9.203  19.828  0.00  0.00    +0.000 C 
ATOM     26  C   UNL     1       1.832   7.975  20.292  0.00  0.00    +0.000 C 
ENDBRANCH  20  21
ENDBRANCH   8  20
TORSDOF 5
ENDMDL
MODEL 6
REMARK VINA RESULT:      -7.5      1.028      1.380
REMARK  Name = 
REMARK  5 active torsions:
REMARK  status: ('A' for Active; 'I' for Inactive)
REMARK    1  A    between atoms: C_2  and  C_3
REMARK    2  A    between atoms: C_3  and  C_4
REMARK    3  A    between atoms: C_8  and  C_9
REMARK    4  A    between atoms: C_16  and  O_17
REMARK    5  A    between atoms: O_17  and  C_18
REMARK                            x       y       z     vdW  Elec       q    Type
REMARK                         _______ _______ _______ _____ _____    ______ ____
ROOT
ATOM      1  C   UNL     1       4.638   3.867  19.085  0.00  0.00    +0.000 A 
ATOM      2  N   UNL     1       5.239   2.778  19.673  0.00  0.00    +0.000 N 
ATOM      3  N   UNL     1       4.457   2.053  20.492  0.00  0.00    +0.000 NA
ATOM      4  C   UNL     1       3.272   2.678  20.462  0.00  0.00    +0.000 A 
ATOM      5  C   UNL     1       2.091   2.358  21.141  0.00  0.00    +0.000 A 
ATOM      6  C   UNL     1       1.058   3.253  20.839  0.00  0.00    +0.000 A 
ATOM      7  N   UNL     1       1.093   4.330  19.978  0.00  0.00    +0.000 NA
ATOM      8  C   UNL     1       2.244   4.638  19.302  0.00  0.00    +0.000 A 
ATOM      9  C   UNL     1       3.343   3.811  19.573  0.00  0.00    +0.000 A 
ATOM     10  H   UNL     1       6.204   2.482  19.564  0.00  0.00    +0.000 HD
ENDROOT
BRANCH   1  15
ATOM     11  C   UNL     1       7.122   6.462  17.895  0.00  0.00    +0.000 A 
ATOM     12  C   UNL     1       6.767   6.583  16.548  0.00  0.00    +0.000 A 
ATOM     13  C   UNL     1       5.729   5.810  16.028  0.00  0.00    +0.000 A 
ATOM     14  C   UNL     1       5.020   4.931  16.854  0.00  0.00    +0.000 A 
ATOM     15  C   UNL     1       5.367   4.780  18.203  0.00  0.00    +0.000 A 
ATOM     16  C   UNL     1       6.454   5.517  18.685  0.00  0.00    +0.000 A 
BRANCH  11  17
ATOM     17  C   UNL     1       8.258   7.254  18.494  0.00  0.00    +0.000 C 
BRANCH  17  19
ATOM     18  N   UNL     1       8.050   9.904  17.676  0.00  0.00    +0.000 NA
ATOM     19  C   UNL     1       8.144   8.703  18.047  0.00  0.00    +0.000 C 
ENDBRANCH  17  19
ENDBRANCH  11  17
ENDBRANCH   1  15
BRANCH   8  20
ATOM     20  O   UNL     1       2.277   5.701  18.433  0.00  0.00    +0.000 OA
BRANCH  20  21
ATOM     21  C   UNL     1       2.446   6.985  19.037  0.00  0.00    +0.000 C 
ATOM     22  C   UNL     1       1.590   7.097  20.301  0.00  0.00    +0.000 C 
ATOM     23  C   UNL     1       1.548   8.529  20.794  0.00  0.00    +0.000 C 
ATOM     24  O   UNL     1       1.067   9.399  19.771  0.00  0.00    +0.000 OA
ATOM     25  C   UNL     1       1.921   9.408  18.630  0.00  0.00    +0.000 C 
ATOM     26  C   UNL     1       1.989   8.025  18.007  0.00  0.00    +0.000 C 
ENDBRANCH  20  21
ENDBRANCH   8  20
TORSDOF 5
ENDMDL
MODEL 7
REMARK VINA RESULT:      -7.1      2.560      4.776
REMARK  Name = 
REMARK  5 active torsions:
REMARK  status: ('A' for Active; 'I' for Inactive)
REMARK    1  A    between atoms: C_2  and  C_3
REMARK    2  A    between atoms: C_3  and  C_4
REMARK    3  A    between atoms: C_8  and  C_9
REMARK    4  A    between atoms: C_16  and  O_17
REMARK    5  A    between atoms: O_17  and  C_18
REMARK                            x       y       z     vdW  Elec       q    Type
REMARK                         _______ _______ _______ _____ _____    ______ ____
ROOT
ATOM      1  C   UNL     1       2.949   7.559  18.086  0.00  0.00    +0.000 A 
ATOM      2  N   UNL     1       2.776   8.636  17.248  0.00  0.00    +0.000 N 
ATOM      3  N   UNL     1       1.914   9.574  17.676  0.00  0.00    +0.000 NA
ATOM      4  C   UNL     1       1.479   9.115  18.857  0.00  0.00    +0.000 A 
ATOM      5  C   UNL     1       0.556   9.688  19.739  0.00  0.00    +0.000 A 
ATOM      6  C   UNL     1       0.370   8.902  20.882  0.00  0.00    +0.000 A 
ATOM      7  N   UNL     1       0.988   7.710  21.202  0.00  0.00    +0.000 NA
ATOM      8  C   UNL     1       1.902   7.153  20.347  0.00  0.00    +0.000 A 
ATOM      9  C   UNL     1       2.123   7.860  19.156  0.00  0.00    +0.000 A 
ATOM     10  H   UNL     1       3.216   8.781  16.345  0.00  0.00    +0.000 HD
ENDROOT
BRANCH   1  15
ATOM     11  C   UNL     1       6.075   5.490  17.567  0.00  0.00    +0.000 A 
ATOM     12  C   UNL     1       5.538   4.307  17.050  0.00  0.00    +0.000 A 
ATOM     13  C   UNL     1       4.158   4.181  16.884  0.00  0.00    +0.000 A 
ATOM     14  C   UNL     1       3.308   5.245  17.208  0.00  0.00    +0.000 A 
ATOM     15  C   UNL     1       3.821   6.434  17.743  0.00  0.00    +0.000 A 
ATOM     16  C   UNL     1       5.200   6.512  17.961  0.00  0.00    +0.000 A 
BRANCH  11  17
ATOM     17  C   UNL     1       7.556   5.660  17.793  0.00  0.00    +0.000 C 
BRANCH  17  19
ATOM     18  N   UNL     1       8.102   5.367  20.504  0.00  0.00    +0.000 NA
ATOM     19  C   UNL     1       7.855   5.499  19.275  0.00  0.00    +0.000 C 
ENDBRANCH  17  19
ENDBRANCH  11  17
ENDBRANCH   1  15
BRANCH   8  20
ATOM     20  O   UNL     1       2.529   5.975  20.670  0.00  0.00    +0.000 OA
BRANCH  20  21
ATOM     21  C   UNL     1       1.670   4.845  20.834  0.00  0.00    +0.000 C 
ATOM     22  C   UNL     1       2.353   3.775  21.688  0.00  0.00    +0.000 C 
ATOM     23  C   UNL     1       1.574   2.476  21.643  0.00  0.00    +0.000 C 
ATOM     24  O   UNL     1       1.416   2.032  20.296  0.00  0.00    +0.000 OA
ATOM     25  C   UNL     1       0.669   2.958  19.511  0.00  0.00    +0.000 C 
ATOM     26  C   UNL     1       1.392   4.291  19.432  0.00  0.00    +0.000 C 
ENDBRANCH  20  21
ENDBRANCH   8  20
TORSDOF 5
ENDMDL
MODEL 8
REMARK VINA RESULT:      -7.1      1.169      1.616
REMARK  Name = 
REMARK  5 active torsions:
REMARK  status: ('A' for Active; 'I' for Inactive)
REMARK    1  A    between atoms: C_2  and  C_3
REMARK    2  A    between atoms: C_3  and  C_4
REMARK    3  A    between atoms: C_8  and  C_9
REMARK    4  A    between atoms: C_16  and  O_17
REMARK    5  A    between atoms: O_17  and  C_18
REMARK                            x       y       z     vdW  Elec       q    Type
REMARK                         _______ _______ _______ _____ _____    ______ ____
ROOT
ATOM      1  C   UNL     1       4.443   3.544  18.861  0.00  0.00    +0.000 A 
ATOM      2  N   UNL     1       5.172   2.524  19.428  0.00  0.00    +0.000 N 
ATOM      3  N   UNL     1       4.628   1.956  20.519  0.00  0.00    +0.000 NA
ATOM      4  C   UNL     1       3.479   2.620  20.704  0.00  0.00    +0.000 A 
ATOM      5  C   UNL     1       2.515   2.451  21.704  0.00  0.00    +0.000 A 
ATOM      6  C   UNL     1       1.443   3.337  21.549  0.00  0.00    +0.000 A 
ATOM      7  N   UNL     1       1.256   4.279  20.558  0.00  0.00    +0.000 NA
ATOM      8  C   UNL     1       2.192   4.439  19.571  0.00  0.00    +0.000 A 
ATOM      9  C   UNL     1       3.320   3.612  19.669  0.00  0.00    +0.000 A 
ATOM     10  H   UNL     1       6.074   2.175  19.119  0.00  0.00    +0.000 HD
ENDROOT
BRANCH   1  15
ATOM     11  C   UNL     1       6.026   6.271  16.768  0.00  0.00    +0.000 A 
ATOM     12  C   UNL     1       5.814   5.782  15.476  0.00  0.00    +0.000 A 
ATOM     13  C   UNL     1       5.168   4.559  15.290  0.00  0.00    +0.000 A 
ATOM     14  C   UNL     1       4.706   3.830  16.390  0.00  0.00    +0.000 A 
ATOM     15  C   UNL     1       4.920   4.291  17.695  0.00  0.00    +0.000 A 
ATOM     16  C   UNL     1       5.627   5.486  17.860  0.00  0.00    +0.000 A 
BRANCH  11  17
ATOM     17  C   UNL     1       6.746   7.572  17.020  0.00  0.00    +0.000 C 
BRANCH  17  19
ATOM     18  N   UNL     1       8.585   7.211  19.075  0.00  0.00    +0.000 NA
ATOM     19  C   UNL     1       7.752   7.374  18.143  0.00  0.00    +0.000 C 
ENDBRANCH  17  19
ENDBRANCH  11  17
ENDBRANCH   1  15
BRANCH   8  20
ATOM     20  O   UNL     1       2.001   5.366  18.576  0.00  0.00    +0.000 OA
BRANCH  20  21
ATOM     21  C   UNL     1       2.363   6.708  18.907  0.00  0.00    +0.000 C 
ATOM     22  C   UNL     1       1.516   7.216  20.077  0.00  0.00    +0.000 C 
ATOM     23  C   UNL     1       1.696   8.710  20.258  0.00  0.00    +0.000 C 
ATOM     24  O   UNL     1       1.375   9.404  19.054  0.00  0.00    +0.000 OA
ATOM     25  C   UNL     1       2.237   9.040  17.979  0.00  0.00    +0.000 C 
ATOM     26  C   UNL     1       2.094   7.561  17.662  0.00  0.00    +0.000 C 
ENDBRANCH  20  21
ENDBRANCH   8  20
TORSDOF 5
ENDMDL
MODEL 9
REMARK VINA RESULT:      -7.0      2.244      5.285
REMARK  Name = 
REMARK  5 active torsions:
REMARK  status: ('A' for Active; 'I' for Inactive)
REMARK    1  A    between atoms: C_2  and  C_3
REMARK    2  A    between atoms: C_3  and  C_4
REMARK    3  A    between atoms: C_8  and  C_9
REMARK    4  A    between atoms: C_16  and  O_17
REMARK    5  A    between atoms: O_17  and  C_18
REMARK                            x       y       z     vdW  Elec       q    Type
REMARK                         _______ _______ _______ _____ _____    ______ ____
ROOT
ATOM      1  C   UNL     1       2.208   5.463  20.017  0.00  0.00    +0.000 A 
ATOM      2  N   UNL     1       1.186   4.935  20.774  0.00  0.00    +0.000 N 
ATOM      3  N   UNL     1       1.383   3.684  21.225  0.00  0.00    +0.000 NA
ATOM      4  C   UNL     1       2.591   3.344  20.754  0.00  0.00    +0.000 A 
ATOM      5  C   UNL     1       3.292   2.143  20.912  0.00  0.00    +0.000 A 
ATOM      6  C   UNL     1       4.536   2.179  20.272  0.00  0.00    +0.000 A 
ATOM      7  N   UNL     1       5.100   3.224  19.570  0.00  0.00    +0.000 NA
ATOM      8  C   UNL     1       4.422   4.405  19.425  0.00  0.00    +0.000 A 
ATOM      9  C   UNL     1       3.147   4.445  20.007  0.00  0.00    +0.000 A 
ATOM     10  H   UNL     1       0.306   5.384  21.006  0.00  0.00    +0.000 HD
ENDROOT
BRANCH   1  15
ATOM     11  C   UNL     1       1.399   9.131  19.559  0.00  0.00    +0.000 A 
ATOM     12  C   UNL     1       1.910   9.367  18.280  0.00  0.00    +0.000 A 
ATOM     13  C   UNL     1       2.529   8.334  17.575  0.00  0.00    +0.000 A 
ATOM     14  C   UNL     1       2.617   7.053  18.131  0.00  0.00    +0.000 A 
ATOM     15  C   UNL     1       2.127   6.796  19.418  0.00  0.00    +0.000 A 
ATOM     16  C   UNL     1       1.570   7.862  20.131  0.00  0.00    +0.000 A 
BRANCH  11  17
ATOM     17  C   UNL     1       0.749  10.224  20.371  0.00  0.00    +0.000 C 
BRANCH  17  19
ATOM     18  N   UNL     1       0.999   9.619  23.074  0.00  0.00    +0.000 NA
ATOM     19  C   UNL     1       0.886   9.893  21.849  0.00  0.00    +0.000 C 
ENDBRANCH  17  19
ENDBRANCH  11  17
ENDBRANCH   1  15
BRANCH   8  20
ATOM     20  O   UNL     1       4.988   5.452  18.739  0.00  0.00    +0.000 OA
BRANCH  20  21
ATOM     21  C   UNL     1       5.785   5.090  17.611  0.00  0.00    +0.000 C 
ATOM     22  C   UNL     1       6.664   6.266  17.178  0.00  0.00    +0.000 C 
ATOM     23  C   UNL     1       7.304   5.989  15.833  0.00  0.00    +0.000 C 
ATOM     24  O   UNL     1       6.309   5.706  14.851  0.00  0.00    +0.000 OA
ATOM     25  C   UNL     1       5.560   4.535  15.170  0.00  0.00    +0.000 C 
ATOM     26  C   UNL     1       4.816   4.722  16.481  0.00  0.00    +0.000 C 
ENDBRANCH  20  21
ENDBRANCH   8  20
TORSDOF 5
ENDMDL
