MODEL 1
REMARK VINA RESULT:      -8.2      0.000      0.000
REMARK  Name = 
REMARK  5 active torsions:
REMARK  status: ('A' for Active; 'I' for Inactive)
REMARK    1  A    between atoms: C_1  and  C_2
REMARK    2  A    between atoms: C_5  and  N_6
REMARK    3  A    between atoms: C_9  and  C_10
REMARK    4  A    between atoms: C_23  and  O_24
REMARK    5  A    between atoms: C_28  and  C_29
REMARK                            x       y       z     vdW  Elec       q    Type
REMARK                         _______ _______ _______ _____ _____    ______ ____
ROOT
ATOM      1  N   UNL     1       4.227   3.465  16.216  0.00  0.00    +0.000 NA
ATOM      2  C   UNL     1       5.391   3.981  15.939  0.00  0.00    +0.000 A 
ATOM      3  C   UNL     1       6.335   4.626  16.885  0.00  0.00    +0.000 A 
ATOM      4  C   UNL     1       7.064   5.642  16.412  0.00  0.00    +0.000 A 
ATOM      5  O   UNL     1       7.263   5.920  15.079  0.00  0.00    +0.000 OA
ATOM      6  C   UNL     1       6.866   4.947  14.198  0.00  0.00    +0.000 A 
ATOM      7  C   UNL     1       7.458   4.954  12.938  0.00  0.00    +0.000 A 
ATOM      8  C   UNL     1       7.067   4.007  11.994  0.00  0.00    +0.000 A 
ATOM      9  C   UNL     1       6.061   3.093  12.316  0.00  0.00    +0.000 A 
ATOM     10  C   UNL     1       5.459   3.085  13.573  0.00  0.00    +0.000 A 
ATOM     11  C   UNL     1       5.889   3.999  14.534  0.00  0.00    +0.000 A 
ENDROOT
BRANCH   4  12
ATOM     12  C   UNL     1       7.477   6.699  17.333  0.00  0.00    +0.000 A 
ATOM     13  C   UNL     1       8.028   6.300  18.578  0.00  0.00    +0.000 A 
ATOM     14  C   UNL     1       8.597   7.232  19.447  0.00  0.00    +0.000 A 
ATOM     15  C   UNL     1       8.616   8.542  19.026  0.00  0.00    +0.000 A 
ATOM     16  C   UNL     1       8.058   8.935  17.828  0.00  0.00    +0.000 A 
ATOM     17  C   UNL     1       7.467   8.042  16.960  0.00  0.00    +0.000 A 
ATOM     18  O   UNL     1       8.223  10.267  17.600  0.00  0.00    +0.000 OA
ATOM     19  C   UNL     1       9.125  10.601  18.673  0.00  0.00    +0.000 C 
ATOM     20  O   UNL     1       9.202   9.576  19.686  0.00  0.00    +0.000 OA
ENDBRANCH   4  12
BRANCH   1  25
ATOM     21  C   UNL     1       1.433   3.513  21.252  0.00  0.00    +0.000 C 
ATOM     22  C   UNL     1       2.246   3.524  19.987  0.00  0.00    +0.000 A 
ATOM     23  C   UNL     1       2.776   2.325  19.505  0.00  0.00    +0.000 A 
ATOM     24  C   UNL     1       3.521   2.300  18.321  0.00  0.00    +0.000 A 
ATOM     25  C   UNL     1       3.636   3.426  17.502  0.00  0.00    +0.000 A 
ATOM     26  C   UNL     1       3.187   4.638  18.042  0.00  0.00    +0.000 A 
ATOM     27  C   UNL     1       2.538   4.710  19.296  0.00  0.00    +0.000 A 
ATOM     28  C   UNL     1       2.202   6.053  19.882  0.00  0.00    +0.000 C 
ENDBRANCH   1  25
BRANCH   9  29
ATOM     29  O   UNL     1       5.652   2.162  11.404  0.00  0.00    +0.000 OA
ATOM     30  H   UNL     1       4.895   1.675  11.770  0.00  0.00    +0.000 HD
ENDBRANCH   9  29
TORSDOF 3
ENDMDL
MODEL 2
REMARK VINA RESULT:      -7.9      0.531      1.197
REMARK  Name = 
REMARK  5 active torsions:
REMARK  status: ('A' for Active; 'I' for Inactive)
REMARK    1  A    between atoms: C_1  and  C_2
REMARK    2  A    between atoms: C_5  and  N_6
REMARK    3  A    between atoms: C_9  and  C_10
REMARK    4  A    between atoms: C_23  and  O_24
REMARK    5  A    between atoms: C_28  and  C_29
REMARK                            x       y       z     vdW  Elec       q    Type
REMARK                         _______ _______ _______ _____ _____    ______ ____
ROOT
ATOM      1  N   UNL     1       4.100   3.656  16.164  0.00  0.00    +0.000 NA
ATOM      2  C   UNL     1       5.293   4.117  15.916  0.00  0.00    +0.000 A 
ATOM      3  C   UNL     1       6.234   4.739  16.880  0.00  0.00    +0.000 A 
ATOM      4  C   UNL     1       7.021   5.714  16.412  0.00  0.00    +0.000 A 
ATOM      5  O   UNL     1       7.274   5.958  15.082  0.00  0.00    +0.000 OA
ATOM      6  C   UNL     1       6.863   4.986  14.206  0.00  0.00    +0.000 A 
ATOM      7  C   UNL     1       7.494   4.943  12.965  0.00  0.00    +0.000 A 
ATOM      8  C   UNL     1       7.092   3.997  12.026  0.00  0.00    +0.000 A 
ATOM      9  C   UNL     1       6.038   3.133  12.332  0.00  0.00    +0.000 A 
ATOM     10  C   UNL     1       5.397   3.174  13.569  0.00  0.00    +0.000 A 
ATOM     11  C   UNL     1       5.836   4.087  14.527  0.00  0.00    +0.000 A 
ENDROOT
BRANCH   4  12
ATOM     12  C   UNL     1       7.450   6.769  17.327  0.00  0.00    +0.000 A 
ATOM     13  C   UNL     1       8.034   6.368  18.558  0.00  0.00    +0.000 A 
ATOM     14  C   UNL     1       8.618   7.300  19.416  0.00  0.00    +0.000 A 
ATOM     15  C   UNL     1       8.620   8.611  19.000  0.00  0.00    +0.000 A 
ATOM     16  C   UNL     1       8.032   9.006  17.818  0.00  0.00    +0.000 A 
ATOM     17  C   UNL     1       7.425   8.113  16.961  0.00  0.00    +0.000 A 
ATOM     18  O   UNL     1       8.184  10.340  17.592  0.00  0.00    +0.000 OA
ATOM     19  C   UNL     1       9.109  10.674  18.644  0.00  0.00    +0.000 C 
ATOM     20  O   UNL     1       9.217   9.646  19.651  0.00  0.00    +0.000 OA
ENDBRANCH   4  12
BRANCH   1  25
ATOM     21  C   UNL     1       1.942   3.864  21.499  0.00  0.00    +0.000 C 
ATOM     22  C   UNL     1       2.455   3.724  20.092  0.00  0.00    +0.000 A 
ATOM     23  C   UNL     1       1.786   4.374  19.054  0.00  0.00    +0.000 A 
ATOM     24  C   UNL     1       2.250   4.278  17.737  0.00  0.00    +0.000 A 
ATOM     25  C   UNL     1       3.468   3.667  17.431  0.00  0.00    +0.000 A 
ATOM     26  C   UNL     1       4.076   2.937  18.460  0.00  0.00    +0.000 A 
ATOM     27  C   UNL     1       3.560   2.917  19.776  0.00  0.00    +0.000 A 
ATOM     28  C   UNL     1       4.177   2.009  20.803  0.00  0.00    +0.000 C 
ENDBRANCH   1  25
BRANCH   9  29
ATOM     29  O   UNL     1       5.617   2.203  11.424  0.00  0.00    +0.000 OA
ATOM     30  H   UNL     1       4.663   2.314  11.279  0.00  0.00    +0.000 HD
ENDBRANCH   9  29
TORSDOF 3
ENDMDL
MODEL 3
REMARK VINA RESULT:      -7.9      3.499      6.856
REMARK  Name = 
REMARK  5 active torsions:
REMARK  status: ('A' for Active; 'I' for Inactive)
REMARK    1  A    between atoms: C_1  and  C_2
REMARK    2  A    between atoms: C_5  and  N_6
REMARK    3  A    between atoms: C_9  and  C_10
REMARK    4  A    between atoms: C_23  and  O_24
REMARK    5  A    between atoms: C_28  and  C_29
REMARK                            x       y       z     vdW  Elec       q    Type
REMARK                         _______ _______ _______ _____ _____    ______ ____
ROOT
ATOM      1  N   UNL     1       1.628   6.677  19.834  0.00  0.00    +0.000 NA
ATOM      2  C   UNL     1       2.583   5.811  19.655  0.00  0.00    +0.000 A 
ATOM      3  C   UNL     1       3.868   6.025  18.943  0.00  0.00    +0.000 A 
ATOM      4  C   UNL     1       4.369   4.981  18.274  0.00  0.00    +0.000 A 
ATOM      5  O   UNL     1       3.994   3.671  18.455  0.00  0.00    +0.000 OA
ATOM      6  C   UNL     1       3.216   3.416  19.556  0.00  0.00    +0.000 A 
ATOM      7  C   UNL     1       3.214   2.112  20.043  0.00  0.00    +0.000 A 
ATOM      8  C   UNL     1       2.417   1.792  21.139  0.00  0.00    +0.000 A 
ATOM      9  C   UNL     1       1.605   2.778  21.706  0.00  0.00    +0.000 A 
ATOM     10  C   UNL     1       1.597   4.084  21.221  0.00  0.00    +0.000 A 
ATOM     11  C   UNL     1       2.436   4.414  20.157  0.00  0.00    +0.000 A 
ENDROOT
BRANCH   4  12
ATOM     12  C   UNL     1       5.181   5.234  17.086  0.00  0.00    +0.000 A 
ATOM     13  C   UNL     1       6.312   6.080  17.236  0.00  0.00    +0.000 A 
ATOM     14  C   UNL     1       7.231   6.244  16.200  0.00  0.00    +0.000 A 
ATOM     15  C   UNL     1       7.001   5.532  15.045  0.00  0.00    +0.000 A 
ATOM     16  C   UNL     1       5.890   4.730  14.889  0.00  0.00    +0.000 A 
ATOM     17  C   UNL     1       4.951   4.567  15.884  0.00  0.00    +0.000 A 
ATOM     18  O   UNL     1       5.884   4.095  13.684  0.00  0.00    +0.000 OA
ATOM     19  C   UNL     1       7.206   4.421  13.216  0.00  0.00    +0.000 C 
ATOM     20  O   UNL     1       7.824   5.490  13.964  0.00  0.00    +0.000 OA
ENDBRANCH   4  12
BRANCH   1  25
ATOM     21  C   UNL     1       1.927  12.232  18.344  0.00  0.00    +0.000 C 
ATOM     22  C   UNL     1       1.755  10.780  18.698  0.00  0.00    +0.000 A 
ATOM     23  C   UNL     1       2.186   9.803  17.800  0.00  0.00    +0.000 A 
ATOM     24  C   UNL     1       2.057   8.444  18.108  0.00  0.00    +0.000 A 
ATOM     25  C   UNL     1       1.640   8.015  19.370  0.00  0.00    +0.000 A 
ATOM     26  C   UNL     1       1.120   8.997  20.223  0.00  0.00    +0.000 A 
ATOM     27  C   UNL     1       1.126  10.370  19.884  0.00  0.00    +0.000 A 
ATOM     28  C   UNL     1       0.432  11.359  20.778  0.00  0.00    +0.000 C 
ENDBRANCH   1  25
BRANCH   9  29
ATOM     29  O   UNL     1       0.806   2.487  22.775  0.00  0.00    +0.000 OA
ATOM     30  H   UNL     1       0.973   1.571  23.053  0.00  0.00    +0.000 HD
ENDBRANCH   9  29
TORSDOF 3
ENDMDL
MODEL 4
REMARK VINA RESULT:      -7.7      0.650      1.145
REMARK  Name = 
REMARK  5 active torsions:
REMARK  status: ('A' for Active; 'I' for Inactive)
REMARK    1  A    between atoms: C_1  and  C_2
REMARK    2  A    between atoms: C_5  and  N_6
REMARK    3  A    between atoms: C_9  and  C_10
REMARK    4  A    between atoms: C_23  and  O_24
REMARK    5  A    between atoms: C_28  and  C_29
REMARK                            x       y       z     vdW  Elec       q    Type
REMARK                         _______ _______ _______ _____ _____    ______ ____
ROOT
ATOM      1  N   UNL     1       4.160   3.689  16.246  0.00  0.00    +0.000 NA
ATOM      2  C   UNL     1       5.347   4.159  15.985  0.00  0.00    +0.000 A 
ATOM      3  C   UNL     1       6.289   4.796  16.938  0.00  0.00    +0.000 A 
ATOM      4  C   UNL     1       7.064   5.776  16.457  0.00  0.00    +0.000 A 
ATOM      5  O   UNL     1       7.303   6.014  15.124  0.00  0.00    +0.000 OA
ATOM      6  C   UNL     1       6.894   5.033  14.257  0.00  0.00    +0.000 A 
ATOM      7  C   UNL     1       7.515   4.988  13.011  0.00  0.00    +0.000 A 
ATOM      8  C   UNL     1       7.114   4.032  12.081  0.00  0.00    +0.000 A 
ATOM      9  C   UNL     1       6.071   3.160  12.401  0.00  0.00    +0.000 A 
ATOM     10  C   UNL     1       5.440   3.203  13.643  0.00  0.00    +0.000 A 
ATOM     11  C   UNL     1       5.878   4.126  14.592  0.00  0.00    +0.000 A 
ENDROOT
BRANCH   4  12
ATOM     12  C   UNL     1       7.490   6.841  17.362  0.00  0.00    +0.000 A 
ATOM     13  C   UNL     1       8.069   6.453  18.599  0.00  0.00    +0.000 A 
ATOM     14  C   UNL     1       8.651   7.395  19.448  0.00  0.00    +0.000 A 
ATOM     15  C   UNL     1       8.656   8.701  19.018  0.00  0.00    +0.000 A 
ATOM     16  C   UNL     1       8.071   9.083  17.829  0.00  0.00    +0.000 A 
ATOM     17  C   UNL     1       7.467   8.181  16.980  0.00  0.00    +0.000 A 
ATOM     18  O   UNL     1       8.225  10.415  17.589  0.00  0.00    +0.000 OA
ATOM     19  C   UNL     1       9.147  10.760  18.640  0.00  0.00    +0.000 C 
ATOM     20  O   UNL     1       9.251   9.743  19.659  0.00  0.00    +0.000 OA
ENDBRANCH   4  12
BRANCH   1  25
ATOM     21  C   UNL     1       1.678   3.262  21.426  0.00  0.00    +0.000 C 
ATOM     22  C   UNL     1       2.260   3.445  20.050  0.00  0.00    +0.000 A 
ATOM     23  C   UNL     1       3.347   4.302  19.878  0.00  0.00    +0.000 A 
ATOM     24  C   UNL     1       3.922   4.479  18.614  0.00  0.00    +0.000 A 
ATOM     25  C   UNL     1       3.538   3.702  17.518  0.00  0.00    +0.000 A 
ATOM     26  C   UNL     1       2.387   2.921  17.680  0.00  0.00    +0.000 A 
ATOM     27  C   UNL     1       1.713   2.820  18.918  0.00  0.00    +0.000 A 
ATOM     28  C   UNL     1       0.408   2.077  18.996  0.00  0.00    +0.000 C 
ENDBRANCH   1  25
BRANCH   9  29
ATOM     29  O   UNL     1       5.651   2.221  11.503  0.00  0.00    +0.000 OA
ATOM     30  H   UNL     1       6.381   1.602  11.331  0.00  0.00    +0.000 HD
ENDBRANCH   9  29
TORSDOF 3
ENDMDL
MODEL 5
REMARK VINA RESULT:      -7.4      9.422     10.843
REMARK  Name = 
REMARK  5 active torsions:
REMARK  status: ('A' for Active; 'I' for Inactive)
REMARK    1  A    between atoms: C_1  and  C_2
REMARK    2  A    between atoms: C_5  and  N_6
REMARK    3  A    between atoms: C_9  and  C_10
REMARK    4  A    between atoms: C_23  and  O_24
REMARK    5  A    between atoms: C_28  and  C_29
REMARK                            x       y       z     vdW  Elec       q    Type
REMARK                         _______ _______ _______ _____ _____    ______ ____
ROOT
ATOM      1  N   UNL     1       8.109  15.119  18.449  0.00  0.00    +0.000 NA
ATOM      2  C   UNL     1       8.623  14.114  19.099  0.00  0.00    +0.000 A 
ATOM      3  C   UNL     1       8.058  13.431  20.289  0.00  0.00    +0.000 A 
ATOM      4  C   UNL     1       8.931  12.962  21.187  0.00  0.00    +0.000 A 
ATOM      5  O   UNL     1      10.272  12.759  20.957  0.00  0.00    +0.000 OA
ATOM      6  C   UNL     1      10.673  12.834  19.647  0.00  0.00    +0.000 A 
ATOM      7  C   UNL     1      11.858  12.186  19.309  0.00  0.00    +0.000 A 
ATOM      8  C   UNL     1      12.328  12.259  18.000  0.00  0.00    +0.000 A 
ATOM      9  C   UNL     1      11.621  13.011  17.059  0.00  0.00    +0.000 A 
ATOM     10  C   UNL     1      10.437  13.668  17.392  0.00  0.00    +0.000 A 
ATOM     11  C   UNL     1       9.941  13.551  18.689  0.00  0.00    +0.000 A 
ENDROOT
BRANCH   4  12
ATOM     12  C   UNL     1       8.528  12.896  22.590  0.00  0.00    +0.000 A 
ATOM     13  C   UNL     1       8.690  14.070  23.372  0.00  0.00    +0.000 A 
ATOM     14  C   UNL     1       8.183  14.147  24.669  0.00  0.00    +0.000 A 
ATOM     15  C   UNL     1       7.503  13.047  25.137  0.00  0.00    +0.000 A 
ATOM     16  C   UNL     1       7.366  11.897  24.389  0.00  0.00    +0.000 A 
ATOM     17  C   UNL     1       7.877  11.781  23.115  0.00  0.00    +0.000 A 
ATOM     18  O   UNL     1       6.628  10.952  25.035  0.00  0.00    +0.000 OA
ATOM     19  C   UNL     1       6.149  11.722  26.154  0.00  0.00    +0.000 C 
ATOM     20  O   UNL     1       6.862  12.963  26.334  0.00  0.00    +0.000 OA
ENDBRANCH   4  12
BRANCH   1  25
ATOM     21  C   UNL     1       2.977  17.295  19.898  0.00  0.00    +0.000 C 
ATOM     22  C   UNL     1       4.316  16.786  19.439  0.00  0.00    +0.000 A 
ATOM     23  C   UNL     1       5.478  17.365  19.952  0.00  0.00    +0.000 A 
ATOM     24  C   UNL     1       6.738  16.902  19.559  0.00  0.00    +0.000 A 
ATOM     25  C   UNL     1       6.887  15.759  18.769  0.00  0.00    +0.000 A 
ATOM     26  C   UNL     1       5.720  15.250  18.183  0.00  0.00    +0.000 A 
ATOM     27  C   UNL     1       4.441  15.779  18.469  0.00  0.00    +0.000 A 
ATOM     28  C   UNL     1       3.244  15.282  17.708  0.00  0.00    +0.000 C 
ENDBRANCH   1  25
BRANCH   9  29
ATOM     29  O   UNL     1      12.066  13.107  15.771  0.00  0.00    +0.000 OA
ATOM     30  H   UNL     1      12.429  13.997  15.630  0.00  0.00    +0.000 HD
ENDBRANCH   9  29
TORSDOF 3
ENDMDL
MODEL 6
REMARK VINA RESULT:      -7.3     10.338     14.641
REMARK  Name = 
REMARK  5 active torsions:
REMARK  status: ('A' for Active; 'I' for Inactive)
REMARK    1  A    between atoms: C_1  and  C_2
REMARK    2  A    between atoms: C_5  and  N_6
REMARK    3  A    between atoms: C_9  and  C_10
REMARK    4  A    between atoms: C_23  and  O_24
REMARK    5  A    between atoms: C_28  and  C_29
REMARK                            x       y       z     vdW  Elec       q    Type
REMARK                         _______ _______ _______ _____ _____    ______ ____
ROOT
ATOM      1  N   UNL     1      -0.856  12.643  23.247  0.00  0.00    +0.000 NA
ATOM      2  C   UNL     1      -2.086  13.067  23.324  0.00  0.00    +0.000 A 
ATOM      3  C   UNL     1      -3.294  12.429  22.745  0.00  0.00    +0.000 A 
ATOM      4  C   UNL     1      -4.262  13.246  22.318  0.00  0.00    +0.000 A 
ATOM      5  O   UNL     1      -4.389  14.572  22.661  0.00  0.00    +0.000 OA
ATOM      6  C   UNL     1      -3.589  15.003  23.689  0.00  0.00    +0.000 A 
ATOM      7  C   UNL     1      -4.000  16.143  24.376  0.00  0.00    +0.000 A 
ATOM      8  C   UNL     1      -3.208  16.642  25.407  0.00  0.00    +0.000 A 
ATOM      9  C   UNL     1      -1.997  16.013  25.707  0.00  0.00    +0.000 A 
ATOM     10  C   UNL     1      -1.576  14.876  25.020  0.00  0.00    +0.000 A 
ATOM     11  C   UNL     1      -2.396  14.347  24.024  0.00  0.00    +0.000 A 
ENDROOT
BRANCH   4  12
ATOM     12  C   UNL     1      -5.109  12.811  21.210  0.00  0.00    +0.000 A 
ATOM     13  C   UNL     1      -6.502  12.695  21.458  0.00  0.00    +0.000 A 
ATOM     14  C   UNL     1      -7.401  12.445  20.421  0.00  0.00    +0.000 A 
ATOM     15  C   UNL     1      -6.875  12.343  19.154  0.00  0.00    +0.000 A 
ATOM     16  C   UNL     1      -5.520  12.430  18.914  0.00  0.00    +0.000 A 
ATOM     17  C   UNL     1      -4.605  12.651  19.920  0.00  0.00    +0.000 A 
ATOM     18  O   UNL     1      -5.230  12.335  17.587  0.00  0.00    +0.000 OA
ATOM     19  C   UNL     1      -6.556  12.401  17.029  0.00  0.00    +0.000 C 
ATOM     20  O   UNL     1      -7.594  12.192  18.009  0.00  0.00    +0.000 OA
ENDBRANCH   4  12
BRANCH   1  25
ATOM     21  C   UNL     1       1.277   8.064  20.480  0.00  0.00    +0.000 C 
ATOM     22  C   UNL     1       0.635   9.247  21.152  0.00  0.00    +0.000 A 
ATOM     23  C   UNL     1       0.019   9.075  22.393  0.00  0.00    +0.000 A 
ATOM     24  C   UNL     1      -0.571  10.160  23.052  0.00  0.00    +0.000 A 
ATOM     25  C   UNL     1      -0.439  11.467  22.578  0.00  0.00    +0.000 A 
ATOM     26  C   UNL     1       0.092  11.613  21.290  0.00  0.00    +0.000 A 
ATOM     27  C   UNL     1       0.586  10.514  20.550  0.00  0.00    +0.000 A 
ATOM     28  C   UNL     1       1.016  10.712  19.123  0.00  0.00    +0.000 C 
ENDBRANCH   1  25
BRANCH   9  29
ATOM     29  O   UNL     1      -1.197  16.490  26.706  0.00  0.00    +0.000 OA
ATOM     30  H   UNL     1      -1.137  15.820  27.408  0.00  0.00    +0.000 HD
ENDBRANCH   9  29
TORSDOF 3
ENDMDL
MODEL 7
REMARK VINA RESULT:      -7.3      9.108     12.452
REMARK  Name = 
REMARK  5 active torsions:
REMARK  status: ('A' for Active; 'I' for Inactive)
REMARK    1  A    between atoms: C_1  and  C_2
REMARK    2  A    between atoms: C_5  and  N_6
REMARK    3  A    between atoms: C_9  and  C_10
REMARK    4  A    between atoms: C_23  and  O_24
REMARK    5  A    between atoms: C_28  and  C_29
REMARK                            x       y       z     vdW  Elec       q    Type
REMARK                         _______ _______ _______ _____ _____    ______ ____
ROOT
ATOM      1  N   UNL     1      -0.886  11.257  21.483  0.00  0.00    +0.000 NA
ATOM      2  C   UNL     1      -1.392  12.452  21.377  0.00  0.00    +0.000 A 
ATOM      3  C   UNL     1      -1.159  13.432  20.288  0.00  0.00    +0.000 A 
ATOM      4  C   UNL     1      -1.150  14.725  20.632  0.00  0.00    +0.000 A 
ATOM      5  O   UNL     1      -1.657  15.237  21.803  0.00  0.00    +0.000 OA
ATOM      6  C   UNL     1      -2.419  14.377  22.552  0.00  0.00    +0.000 A 
ATOM      7  C   UNL     1      -3.320  14.946  23.449  0.00  0.00    +0.000 A 
ATOM      8  C   UNL     1      -4.096  14.118  24.257  0.00  0.00    +0.000 A 
ATOM      9  C   UNL     1      -3.929  12.734  24.179  0.00  0.00    +0.000 A 
ATOM     10  C   UNL     1      -3.025  12.157  23.288  0.00  0.00    +0.000 A 
ATOM     11  C   UNL     1      -2.288  12.985  22.443  0.00  0.00    +0.000 A 
ENDROOT
BRANCH   4  12
ATOM     12  C   UNL     1      -0.325  15.651  19.858  0.00  0.00    +0.000 A 
ATOM     13  C   UNL     1       1.072  15.400  19.814  0.00  0.00    +0.000 A 
ATOM     14  C   UNL     1       1.909  16.132  18.972  0.00  0.00    +0.000 A 
ATOM     15  C   UNL     1       1.313  17.083  18.176  0.00  0.00    +0.000 A 
ATOM     16  C   UNL     1      -0.039  17.345  18.236  0.00  0.00    +0.000 A 
ATOM     17  C   UNL     1      -0.888  16.657  19.075  0.00  0.00    +0.000 A 
ATOM     18  O   UNL     1      -0.415  18.297  17.337  0.00  0.00    +0.000 OA
ATOM     19  C   UNL     1       0.802  18.429  16.579  0.00  0.00    +0.000 C 
ATOM     20  O   UNL     1       1.943  17.831  17.231  0.00  0.00    +0.000 OA
ENDBRANCH   4  12
BRANCH   1  25
ATOM     21  C   UNL     1       2.419   8.469  17.678  0.00  0.00    +0.000 C 
ATOM     22  C   UNL     1       1.640   9.223  18.720  0.00  0.00    +0.000 A 
ATOM     23  C   UNL     1       1.272  10.547  18.473  0.00  0.00    +0.000 A 
ATOM     24  C   UNL     1       0.531  11.269  19.414  0.00  0.00    +0.000 A 
ATOM     25  C   UNL     1       0.004  10.661  20.556  0.00  0.00    +0.000 A 
ATOM     26  C   UNL     1       0.460   9.367  20.841  0.00  0.00    +0.000 A 
ATOM     27  C   UNL     1       1.310   8.658  19.963  0.00  0.00    +0.000 A 
ATOM     28  C   UNL     1       1.875   7.331  20.386  0.00  0.00    +0.000 C 
ENDBRANCH   1  25
BRANCH   9  29
ATOM     29  O   UNL     1      -4.670  11.901  24.968  0.00  0.00    +0.000 OA
ATOM     30  H   UNL     1      -5.357  11.482  24.425  0.00  0.00    +0.000 HD
ENDBRANCH   9  29
TORSDOF 3
ENDMDL
MODEL 8
REMARK VINA RESULT:      -7.2      9.448     10.881
REMARK  Name = 
REMARK  5 active torsions:
REMARK  status: ('A' for Active; 'I' for Inactive)
REMARK    1  A    between atoms: C_1  and  C_2
REMARK    2  A    between atoms: C_5  and  N_6
REMARK    3  A    between atoms: C_9  and  C_10
REMARK    4  A    between atoms: C_23  and  O_24
REMARK    5  A    between atoms: C_28  and  C_29
REMARK                            x       y       z     vdW  Elec       q    Type
REMARK                         _______ _______ _______ _____ _____    ______ ____
ROOT
ATOM      1  N   UNL     1       8.085  15.071  18.427  0.00  0.00    +0.000 NA
ATOM      2  C   UNL     1       8.601  14.095  19.119  0.00  0.00    +0.000 A 
ATOM      3  C   UNL     1       8.029  13.451  20.327  0.00  0.00    +0.000 A 
ATOM      4  C   UNL     1       8.897  13.023  21.251  0.00  0.00    +0.000 A 
ATOM      5  O   UNL     1      10.242  12.823  21.042  0.00  0.00    +0.000 OA
ATOM      6  C   UNL     1      10.656  12.854  19.735  0.00  0.00    +0.000 A 
ATOM      7  C   UNL     1      11.850  12.205  19.433  0.00  0.00    +0.000 A 
ATOM      8  C   UNL     1      12.333  12.234  18.127  0.00  0.00    +0.000 A 
ATOM      9  C   UNL     1      11.630  12.945  17.152  0.00  0.00    +0.000 A 
ATOM     10  C   UNL     1      10.437  13.603  17.448  0.00  0.00    +0.000 A 
ATOM     11  C   UNL     1       9.928  13.529  18.744  0.00  0.00    +0.000 A 
ENDROOT
BRANCH   4  12
ATOM     12  C   UNL     1       8.479  13.004  22.651  0.00  0.00    +0.000 A 
ATOM     13  C   UNL     1       8.049  11.762  23.187  0.00  0.00    +0.000 A 
ATOM     14  C   UNL     1       7.789  11.617  24.550  0.00  0.00    +0.000 A 
ATOM     15  C   UNL     1       7.993  12.723  25.343  0.00  0.00    +0.000 A 
ATOM     16  C   UNL     1       8.386  13.937  24.820  0.00  0.00    +0.000 A 
ATOM     17  C   UNL     1       8.627  14.118  23.476  0.00  0.00    +0.000 A 
ATOM     18  O   UNL     1       8.560  14.878  25.789  0.00  0.00    +0.000 OA
ATOM     19  C   UNL     1       8.445  14.057  26.967  0.00  0.00    +0.000 C 
ATOM     20  O   UNL     1       7.881  12.756  26.698  0.00  0.00    +0.000 OA
ENDBRANCH   4  12
BRANCH   1  25
ATOM     21  C   UNL     1       2.931  17.261  19.774  0.00  0.00    +0.000 C 
ATOM     22  C   UNL     1       4.273  16.741  19.337  0.00  0.00    +0.000 A 
ATOM     23  C   UNL     1       5.430  17.393  19.764  0.00  0.00    +0.000 A 
ATOM     24  C   UNL     1       6.694  16.922  19.389  0.00  0.00    +0.000 A 
ATOM     25  C   UNL     1       6.854  15.712  18.711  0.00  0.00    +0.000 A 
ATOM     26  C   UNL     1       5.689  15.121  18.205  0.00  0.00    +0.000 A 
ATOM     27  C   UNL     1       4.403  15.647  18.467  0.00  0.00    +0.000 A 
ATOM     28  C   UNL     1       3.204  15.050  17.785  0.00  0.00    +0.000 C 
ENDBRANCH   1  25
BRANCH   9  29
ATOM     29  O   UNL     1      12.088  12.998  15.866  0.00  0.00    +0.000 OA
ATOM     30  H   UNL     1      11.782  12.208  15.391  0.00  0.00    +0.000 HD
ENDBRANCH   9  29
TORSDOF 3
ENDMDL
MODEL 9
REMARK VINA RESULT:      -7.2      6.750     10.222
REMARK  Name = 
REMARK  5 active torsions:
REMARK  status: ('A' for Active; 'I' for Inactive)
REMARK    1  A    between atoms: C_1  and  C_2
REMARK    2  A    between atoms: C_5  and  N_6
REMARK    3  A    between atoms: C_9  and  C_10
REMARK    4  A    between atoms: C_23  and  O_24
REMARK    5  A    between atoms: C_28  and  C_29
REMARK                            x       y       z     vdW  Elec       q    Type
REMARK                         _______ _______ _______ _____ _____    ______ ____
ROOT
ATOM      1  N   UNL     1       0.231   9.903  21.125  0.00  0.00    +0.000 NA
ATOM      2  C   UNL     1       0.262  11.204  21.071  0.00  0.00    +0.000 A 
ATOM      3  C   UNL     1       1.087  12.045  20.169  0.00  0.00    +0.000 A 
ATOM      4  C   UNL     1       1.522  13.211  20.660  0.00  0.00    +0.000 A 
ATOM      5  O   UNL     1       1.011  13.841  21.771  0.00  0.00    +0.000 OA
ATOM      6  C   UNL     1      -0.168  13.337  22.258  0.00  0.00    +0.000 A 
ATOM      7  C   UNL     1      -0.949  14.188  23.035  0.00  0.00    +0.000 A 
ATOM      8  C   UNL     1      -2.140  13.715  23.581  0.00  0.00    +0.000 A 
ATOM      9  C   UNL     1      -2.509  12.385  23.370  0.00  0.00    +0.000 A 
ATOM     10  C   UNL     1      -1.729  11.525  22.599  0.00  0.00    +0.000 A 
ATOM     11  C   UNL     1      -0.565  12.015  22.010  0.00  0.00    +0.000 A 
ENDROOT
BRANCH   4  12
ATOM     12  C   UNL     1       2.786  13.752  20.168  0.00  0.00    +0.000 A 
ATOM     13  C   UNL     1       2.966  13.815  18.761  0.00  0.00    +0.000 A 
ATOM     14  C   UNL     1       4.069  14.464  18.204  0.00  0.00    +0.000 A 
ATOM     15  C   UNL     1       4.950  15.055  19.079  0.00  0.00    +0.000 A 
ATOM     16  C   UNL     1       4.790  14.973  20.446  0.00  0.00    +0.000 A 
ATOM     17  C   UNL     1       3.726  14.318  21.028  0.00  0.00    +0.000 A 
ATOM     18  O   UNL     1       5.758  15.659  21.115  0.00  0.00    +0.000 OA
ATOM     19  C   UNL     1       6.393  16.343  20.018  0.00  0.00    +0.000 C 
ATOM     20  O   UNL     1       6.029  15.805  18.729  0.00  0.00    +0.000 OA
ENDBRANCH   4  12
BRANCH   1  25
ATOM     21  C   UNL     1       2.995   6.043  17.864  0.00  0.00    +0.000 C 
ATOM     22  C   UNL     1       2.361   7.074  18.757  0.00  0.00    +0.000 A 
ATOM     23  C   UNL     1       2.156   8.366  18.269  0.00  0.00    +0.000 A 
ATOM     24  C   UNL     1       1.552   9.343  19.069  0.00  0.00    +0.000 A 
ATOM     25  C   UNL     1       0.998   9.033  20.313  0.00  0.00    +0.000 A 
ATOM     26  C   UNL     1       1.297   7.765  20.830  0.00  0.00    +0.000 A 
ATOM     27  C   UNL     1       2.013   6.798  20.089  0.00  0.00    +0.000 A 
ATOM     28  C   UNL     1       2.420   5.509  20.746  0.00  0.00    +0.000 C 
ENDBRANCH   1  25
BRANCH   9  29
ATOM     29  O   UNL     1      -3.667  11.894  23.904  0.00  0.00    +0.000 OA
ATOM     30  H   UNL     1      -4.307  11.749  23.188  0.00  0.00    +0.000 HD
ENDBRANCH   9  29
TORSDOF 3
ENDMDL
