MODEL 1
REMARK VINA RESULT:      -7.8      0.000      0.000
REMARK  Name = 
REMARK  6 active torsions:
REMARK  status: ('A' for Active; 'I' for Inactive)
REMARK    1  A    between atoms: C_2  and  O_3
REMARK    2  A    between atoms: C_2  and  C_4
REMARK    3  A    between atoms: C_5  and  C_6
REMARK    4  A    between atoms: C_10  and  O_11
REMARK    5  A    between atoms: O_11  and  C_12
REMARK    6  A    between atoms: C_12  and  C_13
REMARK                            x       y       z     vdW  Elec       q    Type
REMARK                         _______ _______ _______ _____ _____    ______ ____
ROOT
ATOM      1  C   UNL     1       5.714   4.659  15.824  0.00  0.00    +0.000 A 
ATOM      2  C   UNL     1       7.021   4.482  16.298  0.00  0.00    +0.000 A 
ATOM      3  C   UNL     1       7.378   4.902  17.578  0.00  0.00    +0.000 A 
ATOM      4  C   UNL     1       6.434   5.516  18.397  0.00  0.00    +0.000 A 
ATOM      5  C   UNL     1       5.139   5.740  17.930  0.00  0.00    +0.000 A 
ATOM      6  C   UNL     1       4.776   5.284  16.658  0.00  0.00    +0.000 A 
ENDROOT
BRANCH   1   8
ATOM      7  C   UNL     1       6.275   3.788  13.560  0.00  0.00    +0.000 C 
ATOM      8  C   UNL     1       5.376   4.111  14.500  0.00  0.00    +0.000 C 
BRANCH   7  10
ATOM      9  O   UNL     1       4.879   3.417  11.694  0.00  0.00    +0.000 OA
ATOM     10  C   UNL     1       5.953   3.216  12.238  0.00  0.00    +0.000 C 
BRANCH  10  11
ATOM     11  O   UNL     1       6.910   2.433  11.707  0.00  0.00    +0.000 OA
ATOM     12  H   UNL     1       7.722   2.902  11.449  0.00  0.00    +0.000 HD
ENDBRANCH  10  11
ENDBRANCH   7  10
ENDBRANCH   1   8
BRANCH   5  13
ATOM     13  O   UNL     1       4.153   6.384  18.633  0.00  0.00    +0.000 OA
BRANCH  13  14
ATOM     14  C   UNL     1       2.829   6.222  18.118  0.00  0.00    +0.000 C 
BRANCH  14  15
ATOM     15  C   UNL     1       2.158   5.059  18.800  0.00  0.00    +0.000 A 
ATOM     16  C   UNL     1       2.032   5.022  20.195  0.00  0.00    +0.000 A 
ATOM     17  C   UNL     1       1.398   3.945  20.817  0.00  0.00    +0.000 A 
ATOM     18  C   UNL     1       0.886   2.899  20.054  0.00  0.00    +0.000 A 
ATOM     19  C   UNL     1       1.003   2.926  18.664  0.00  0.00    +0.000 A 
ATOM     20  C   UNL     1       1.636   4.000  18.040  0.00  0.00    +0.000 A 
ENDBRANCH  14  15
ENDBRANCH  13  14
ENDBRANCH   5  13
TORSDOF 6
ENDMDL
MODEL 2
REMARK VINA RESULT:      -7.7      0.305      1.138
REMARK  Name = 
REMARK  6 active torsions:
REMARK  status: ('A' for Active; 'I' for Inactive)
REMARK    1  A    between atoms: C_2  and  O_3
REMARK    2  A    between atoms: C_2  and  C_4
REMARK    3  A    between atoms: C_5  and  C_6
REMARK    4  A    between atoms: C_10  and  O_11
REMARK    5  A    between atoms: O_11  and  C_12
REMARK    6  A    between atoms: C_12  and  C_13
REMARK                            x       y       z     vdW  Elec       q    Type
REMARK                         _______ _______ _______ _____ _____    ______ ____
ROOT
ATOM      1  C   UNL     1       5.749   4.500  15.918  0.00  0.00    +0.000 A 
ATOM      2  C   UNL     1       7.068   4.427  16.387  0.00  0.00    +0.000 A 
ATOM      3  C   UNL     1       7.410   4.942  17.636  0.00  0.00    +0.000 A 
ATOM      4  C   UNL     1       6.439   5.549  18.427  0.00  0.00    +0.000 A 
ATOM      5  C   UNL     1       5.130   5.671  17.962  0.00  0.00    +0.000 A 
ATOM      6  C   UNL     1       4.784   5.120  16.724  0.00  0.00    +0.000 A 
ENDROOT
BRANCH   1   8
ATOM      7  C   UNL     1       6.223   3.892  13.550  0.00  0.00    +0.000 C 
ATOM      8  C   UNL     1       5.432   3.856  14.632  0.00  0.00    +0.000 C 
BRANCH   7  10
ATOM      9  O   UNL     1       4.866   3.388  11.687  0.00  0.00    +0.000 OA
ATOM     10  C   UNL     1       5.930   3.232  12.263  0.00  0.00    +0.000 C 
BRANCH  10  11
ATOM     11  O   UNL     1       6.902   2.423  11.804  0.00  0.00    +0.000 OA
ATOM     12  H   UNL     1       6.886   2.271  10.844  0.00  0.00    +0.000 HD
ENDBRANCH  10  11
ENDBRANCH   7  10
ENDBRANCH   1   8
BRANCH   5  13
ATOM     13  O   UNL     1       4.114   6.299  18.637  0.00  0.00    +0.000 OA
BRANCH  13  14
ATOM     14  C   UNL     1       2.795   5.994  18.178  0.00  0.00    +0.000 C 
BRANCH  14  15
ATOM     15  C   UNL     1       2.205   4.895  19.023  0.00  0.00    +0.000 A 
ATOM     16  C   UNL     1       1.504   3.835  18.434  0.00  0.00    +0.000 A 
ATOM     17  C   UNL     1       0.972   2.816  19.225  0.00  0.00    +0.000 A 
ATOM     18  C   UNL     1       1.134   2.846  20.608  0.00  0.00    +0.000 A 
ATOM     19  C   UNL     1       1.833   3.895  21.206  0.00  0.00    +0.000 A 
ATOM     20  C   UNL     1       2.365   4.915  20.418  0.00  0.00    +0.000 A 
ENDBRANCH  14  15
ENDBRANCH  13  14
ENDBRANCH   5  13
TORSDOF 6
ENDMDL
MODEL 3
REMARK VINA RESULT:      -7.6      1.492      2.238
REMARK  Name = 
REMARK  6 active torsions:
REMARK  status: ('A' for Active; 'I' for Inactive)
REMARK    1  A    between atoms: C_2  and  O_3
REMARK    2  A    between atoms: C_2  and  C_4
REMARK    3  A    between atoms: C_5  and  C_6
REMARK    4  A    between atoms: C_10  and  O_11
REMARK    5  A    between atoms: O_11  and  C_12
REMARK    6  A    between atoms: C_12  and  C_13
REMARK                            x       y       z     vdW  Elec       q    Type
REMARK                         _______ _______ _______ _____ _____    ______ ____
ROOT
ATOM      1  C   UNL     1       5.744   4.683  15.971  0.00  0.00    +0.000 A 
ATOM      2  C   UNL     1       5.119   5.932  15.848  0.00  0.00    +0.000 A 
ATOM      3  C   UNL     1       4.593   6.578  16.964  0.00  0.00    +0.000 A 
ATOM      4  C   UNL     1       4.675   5.979  18.218  0.00  0.00    +0.000 A 
ATOM      5  C   UNL     1       5.255   4.718  18.356  0.00  0.00    +0.000 A 
ATOM      6  C   UNL     1       5.813   4.089  17.238  0.00  0.00    +0.000 A 
ENDROOT
BRANCH   1   8
ATOM      7  C   UNL     1       5.773   4.033  13.567  0.00  0.00    +0.000 C 
ATOM      8  C   UNL     1       6.361   4.095  14.770  0.00  0.00    +0.000 C 
BRANCH   7  10
ATOM      9  O   UNL     1       7.225   4.083  11.707  0.00  0.00    +0.000 OA
ATOM     10  C   UNL     1       6.388   3.469  12.350  0.00  0.00    +0.000 C 
BRANCH  10  11
ATOM     11  O   UNL     1       5.929   2.257  11.989  0.00  0.00    +0.000 OA
ATOM     12  H   UNL     1       6.103   1.548  12.631  0.00  0.00    +0.000 HD
ENDBRANCH  10  11
ENDBRANCH   7  10
ENDBRANCH   1   8
BRANCH   5  13
ATOM     13  O   UNL     1       5.335   4.017  19.533  0.00  0.00    +0.000 OA
BRANCH  13  14
ATOM     14  C   UNL     1       4.716   2.729  19.520  0.00  0.00    +0.000 C 
BRANCH  14  15
ATOM     15  C   UNL     1       3.219   2.885  19.594  0.00  0.00    +0.000 A 
ATOM     16  C   UNL     1       2.398   2.429  18.554  0.00  0.00    +0.000 A 
ATOM     17  C   UNL     1       1.013   2.568  18.638  0.00  0.00    +0.000 A 
ATOM     18  C   UNL     1       0.435   3.161  19.758  0.00  0.00    +0.000 A 
ATOM     19  C   UNL     1       1.242   3.615  20.801  0.00  0.00    +0.000 A 
ATOM     20  C   UNL     1       2.626   3.479  20.720  0.00  0.00    +0.000 A 
ENDBRANCH  14  15
ENDBRANCH  13  14
ENDBRANCH   5  13
TORSDOF 6
ENDMDL
MODEL 4
REMARK VINA RESULT:      -7.6      1.514      2.016
REMARK  Name = 
REMARK  6 active torsions:
REMARK  status: ('A' for Active; 'I' for Inactive)
REMARK    1  A    between atoms: C_2  and  O_3
REMARK    2  A    between atoms: C_2  and  C_4
REMARK    3  A    between atoms: C_5  and  C_6
REMARK    4  A    between atoms: C_10  and  O_11
REMARK    5  A    between atoms: O_11  and  C_12
REMARK    6  A    between atoms: C_12  and  C_13
REMARK                            x       y       z     vdW  Elec       q    Type
REMARK                         _______ _______ _______ _____ _____    ______ ____
ROOT
ATOM      1  C   UNL     1       5.702   5.020  15.939  0.00  0.00    +0.000 A 
ATOM      2  C   UNL     1       4.979   6.222  15.928  0.00  0.00    +0.000 A 
ATOM      3  C   UNL     1       4.386   6.707  17.092  0.00  0.00    +0.000 A 
ATOM      4  C   UNL     1       4.499   5.991  18.280  0.00  0.00    +0.000 A 
ATOM      5  C   UNL     1       5.177   4.772  18.305  0.00  0.00    +0.000 A 
ATOM      6  C   UNL     1       5.801   4.308  17.142  0.00  0.00    +0.000 A 
ENDROOT
BRANCH   1   8
ATOM      7  C   UNL     1       5.804   3.908  13.713  0.00  0.00    +0.000 C 
ATOM      8  C   UNL     1       6.382   4.609  14.700  0.00  0.00    +0.000 C 
BRANCH   7  10
ATOM      9  O   UNL     1       7.354   4.182  11.954  0.00  0.00    +0.000 OA
ATOM     10  C   UNL     1       6.466   3.510  12.456  0.00  0.00    +0.000 C 
BRANCH  10  11
ATOM     11  O   UNL     1       5.991   2.384  11.894  0.00  0.00    +0.000 OA
ATOM     12  H   UNL     1       6.359   1.560  12.259  0.00  0.00    +0.000 HD
ENDBRANCH  10  11
ENDBRANCH   7  10
ENDBRANCH   1   8
BRANCH   5  13
ATOM     13  O   UNL     1       5.298   3.964  19.406  0.00  0.00    +0.000 OA
BRANCH  13  14
ATOM     14  C   UNL     1       4.705   2.669  19.282  0.00  0.00    +0.000 C 
BRANCH  14  15
ATOM     15  C   UNL     1       3.224   2.762  19.543  0.00  0.00    +0.000 A 
ATOM     16  C   UNL     1       2.740   3.272  20.755  0.00  0.00    +0.000 A 
ATOM     17  C   UNL     1       1.367   3.364  20.982  0.00  0.00    +0.000 A 
ATOM     18  C   UNL     1       0.466   2.950  20.004  0.00  0.00    +0.000 A 
ATOM     19  C   UNL     1       0.936   2.444  18.792  0.00  0.00    +0.000 A 
ATOM     20  C   UNL     1       2.308   2.349  18.563  0.00  0.00    +0.000 A 
ENDBRANCH  14  15
ENDBRANCH  13  14
ENDBRANCH   5  13
TORSDOF 6
ENDMDL
MODEL 5
REMARK VINA RESULT:      -7.3      1.337      1.605
REMARK  Name = 
REMARK  6 active torsions:
REMARK  status: ('A' for Active; 'I' for Inactive)
REMARK    1  A    between atoms: C_2  and  O_3
REMARK    2  A    between atoms: C_2  and  C_4
REMARK    3  A    between atoms: C_5  and  C_6
REMARK    4  A    between atoms: C_10  and  O_11
REMARK    5  A    between atoms: O_11  and  C_12
REMARK    6  A    between atoms: C_12  and  C_13
REMARK                            x       y       z     vdW  Elec       q    Type
REMARK                         _______ _______ _______ _____ _____    ______ ____
ROOT
ATOM      1  C   UNL     1       5.915   4.834  15.890  0.00  0.00    +0.000 A 
ATOM      2  C   UNL     1       6.778   5.939  15.901  0.00  0.00    +0.000 A 
ATOM      3  C   UNL     1       7.306   6.418  17.098  0.00  0.00    +0.000 A 
ATOM      4  C   UNL     1       6.969   5.806  18.302  0.00  0.00    +0.000 A 
ATOM      5  C   UNL     1       6.079   4.732  18.318  0.00  0.00    +0.000 A 
ATOM      6  C   UNL     1       5.579   4.233  17.111  0.00  0.00    +0.000 A 
ENDROOT
BRANCH   1   8
ATOM      7  C   UNL     1       6.273   3.790  13.658  0.00  0.00    +0.000 C 
ATOM      8  C   UNL     1       5.463   4.319  14.587  0.00  0.00    +0.000 C 
BRANCH   7  10
ATOM      9  O   UNL     1       4.720   3.476  11.909  0.00  0.00    +0.000 OA
ATOM     10  C   UNL     1       5.832   3.248  12.358  0.00  0.00    +0.000 C 
BRANCH  10  11
ATOM     11  O   UNL     1       6.728   2.461  11.735  0.00  0.00    +0.000 OA
ATOM     12  H   UNL     1       6.352   1.665  11.322  0.00  0.00    +0.000 HD
ENDBRANCH  10  11
ENDBRANCH   7  10
ENDBRANCH   1   8
BRANCH   5  13
ATOM     13  O   UNL     1       5.639   4.097  19.451  0.00  0.00    +0.000 OA
BRANCH  13  14
ATOM     14  C   UNL     1       4.700   3.041  19.234  0.00  0.00    +0.000 C 
BRANCH  14  15
ATOM     15  C   UNL     1       3.326   3.488  19.663  0.00  0.00    +0.000 A 
ATOM     16  C   UNL     1       3.103   4.801  20.099  0.00  0.00    +0.000 A 
ATOM     17  C   UNL     1       1.825   5.208  20.482  0.00  0.00    +0.000 A 
ATOM     18  C   UNL     1       0.760   4.311  20.434  0.00  0.00    +0.000 A 
ATOM     19  C   UNL     1       0.970   3.003  19.999  0.00  0.00    +0.000 A 
ATOM     20  C   UNL     1       2.246   2.593  19.616  0.00  0.00    +0.000 A 
ENDBRANCH  14  15
ENDBRANCH  13  14
ENDBRANCH   5  13
TORSDOF 6
ENDMDL
MODEL 6
REMARK VINA RESULT:      -7.3      3.175      5.120
REMARK  Name = 
REMARK  6 active torsions:
REMARK  status: ('A' for Active; 'I' for Inactive)
REMARK    1  A    between atoms: C_2  and  O_3
REMARK    2  A    between atoms: C_2  and  C_4
REMARK    3  A    between atoms: C_5  and  C_6
REMARK    4  A    between atoms: C_10  and  O_11
REMARK    5  A    between atoms: O_11  and  C_12
REMARK    6  A    between atoms: C_12  and  C_13
REMARK                            x       y       z     vdW  Elec       q    Type
REMARK                         _______ _______ _______ _____ _____    ______ ____
ROOT
ATOM      1  C   UNL     1       4.345   6.541  17.522  0.00  0.00    +0.000 A 
ATOM      2  C   UNL     1       4.807   6.197  16.244  0.00  0.00    +0.000 A 
ATOM      3  C   UNL     1       5.412   4.964  16.012  0.00  0.00    +0.000 A 
ATOM      4  C   UNL     1       5.575   4.062  17.060  0.00  0.00    +0.000 A 
ATOM      5  C   UNL     1       5.161   4.400  18.349  0.00  0.00    +0.000 A 
ATOM      6  C   UNL     1       4.522   5.625  18.568  0.00  0.00    +0.000 A 
ENDROOT
BRANCH   1   8
ATOM      7  C   UNL     1       2.365   7.934  18.103  0.00  0.00    +0.000 C 
ATOM      8  C   UNL     1       3.632   7.819  17.682  0.00  0.00    +0.000 C 
BRANCH   7  10
ATOM      9  O   UNL     1       0.880   9.385  19.226  0.00  0.00    +0.000 OA
ATOM     10  C   UNL     1       1.646   9.210  18.292  0.00  0.00    +0.000 C 
BRANCH  10  11
ATOM     11  O   UNL     1       1.869  10.135  17.342  0.00  0.00    +0.000 OA
ATOM     12  H   UNL     1       2.801  10.238  17.084  0.00  0.00    +0.000 HD
ENDBRANCH  10  11
ENDBRANCH   7  10
ENDBRANCH   1   8
BRANCH   5  13
ATOM     13  O   UNL     1       5.326   3.609  19.457  0.00  0.00    +0.000 OA
BRANCH  13  14
ATOM     14  C   UNL     1       4.625   2.363  19.428  0.00  0.00    +0.000 C 
BRANCH  14  15
ATOM     15  C   UNL     1       3.148   2.609  19.601  0.00  0.00    +0.000 A 
ATOM     16  C   UNL     1       2.241   2.269  18.589  0.00  0.00    +0.000 A 
ATOM     17  C   UNL     1       0.875   2.489  18.764  0.00  0.00    +0.000 A 
ATOM     18  C   UNL     1       0.402   3.049  19.949  0.00  0.00    +0.000 A 
ATOM     19  C   UNL     1       1.295   3.389  20.965  0.00  0.00    +0.000 A 
ATOM     20  C   UNL     1       2.661   3.171  20.792  0.00  0.00    +0.000 A 
ENDBRANCH  14  15
ENDBRANCH  13  14
ENDBRANCH   5  13
TORSDOF 6
ENDMDL
MODEL 7
REMARK VINA RESULT:      -7.2      3.383      5.362
REMARK  Name = 
REMARK  6 active torsions:
REMARK  status: ('A' for Active; 'I' for Inactive)
REMARK    1  A    between atoms: C_2  and  O_3
REMARK    2  A    between atoms: C_2  and  C_4
REMARK    3  A    between atoms: C_5  and  C_6
REMARK    4  A    between atoms: C_10  and  O_11
REMARK    5  A    between atoms: O_11  and  C_12
REMARK    6  A    between atoms: C_12  and  C_13
REMARK                            x       y       z     vdW  Elec       q    Type
REMARK                         _______ _______ _______ _____ _____    ______ ____
ROOT
ATOM      1  C   UNL     1       7.463   7.622  17.854  0.00  0.00    +0.000 A 
ATOM      2  C   UNL     1       8.169   6.739  18.684  0.00  0.00    +0.000 A 
ATOM      3  C   UNL     1       7.687   5.456  18.932  0.00  0.00    +0.000 A 
ATOM      4  C   UNL     1       6.486   5.042  18.364  0.00  0.00    +0.000 A 
ATOM      5  C   UNL     1       5.746   5.918  17.570  0.00  0.00    +0.000 A 
ATOM      6  C   UNL     1       6.252   7.193  17.295  0.00  0.00    +0.000 A 
ENDROOT
BRANCH   1   8
ATOM      7  C   UNL     1       8.708   9.693  18.455  0.00  0.00    +0.000 C 
ATOM      8  C   UNL     1       8.070   8.930  17.556  0.00  0.00    +0.000 C 
BRANCH   7  10
ATOM      9  O   UNL     1      10.531  11.188  18.361  0.00  0.00    +0.000 OA
ATOM     10  C   UNL     1       9.342  10.994  18.166  0.00  0.00    +0.000 C 
BRANCH  10  11
ATOM     11  O   UNL     1       8.507  11.947  17.713  0.00  0.00    +0.000 OA
ATOM     12  H   UNL     1       7.616  11.632  17.484  0.00  0.00    +0.000 HD
ENDBRANCH  10  11
ENDBRANCH   7  10
ENDBRANCH   1   8
BRANCH   5  13
ATOM     13  O   UNL     1       4.527   5.629  17.011  0.00  0.00    +0.000 OA
BRANCH  13  14
ATOM     14  C   UNL     1       3.391   5.994  17.799  0.00  0.00    +0.000 C 
BRANCH  14  15
ATOM     15  C   UNL     1       2.651   4.753  18.226  0.00  0.00    +0.000 A 
ATOM     16  C   UNL     1       2.767   3.562  17.498  0.00  0.00    +0.000 A 
ATOM     17  C   UNL     1       2.086   2.416  17.909  0.00  0.00    +0.000 A 
ATOM     18  C   UNL     1       1.286   2.447  19.049  0.00  0.00    +0.000 A 
ATOM     19  C   UNL     1       1.166   3.626  19.784  0.00  0.00    +0.000 A 
ATOM     20  C   UNL     1       1.844   4.774  19.375  0.00  0.00    +0.000 A 
ENDBRANCH  14  15
ENDBRANCH  13  14
ENDBRANCH   5  13
TORSDOF 6
ENDMDL
MODEL 8
REMARK VINA RESULT:      -7.2      2.795      5.012
REMARK  Name = 
REMARK  6 active torsions:
REMARK  status: ('A' for Active; 'I' for Inactive)
REMARK    1  A    between atoms: C_2  and  O_3
REMARK    2  A    between atoms: C_2  and  C_4
REMARK    3  A    between atoms: C_5  and  C_6
REMARK    4  A    between atoms: C_10  and  O_11
REMARK    5  A    between atoms: O_11  and  C_12
REMARK    6  A    between atoms: C_12  and  C_13
REMARK                            x       y       z     vdW  Elec       q    Type
REMARK                         _______ _______ _______ _____ _____    ______ ____
ROOT
ATOM      1  C   UNL     1       4.301   6.354  16.979  0.00  0.00    +0.000 A 
ATOM      2  C   UNL     1       5.189   6.486  15.902  0.00  0.00    +0.000 A 
ATOM      3  C   UNL     1       5.715   5.361  15.271  0.00  0.00    +0.000 A 
ATOM      4  C   UNL     1       5.370   4.088  15.715  0.00  0.00    +0.000 A 
ATOM      5  C   UNL     1       4.522   3.934  16.812  0.00  0.00    +0.000 A 
ATOM      6  C   UNL     1       3.968   5.066  17.420  0.00  0.00    +0.000 A 
ENDROOT
BRANCH   1   8
ATOM      7  C   UNL     1       2.392   7.786  17.690  0.00  0.00    +0.000 C 
ATOM      8  C   UNL     1       3.708   7.578  17.544  0.00  0.00    +0.000 C 
BRANCH   7  10
ATOM      9  O   UNL     1       1.324   9.003  19.407  0.00  0.00    +0.000 OA
ATOM     10  C   UNL     1       1.785   8.997  18.276  0.00  0.00    +0.000 C 
BRANCH  10  11
ATOM     11  O   UNL     1       1.746  10.067  17.462  0.00  0.00    +0.000 OA
ATOM     12  H   UNL     1       2.546  10.200  16.926  0.00  0.00    +0.000 HD
ENDBRANCH  10  11
ENDBRANCH   7  10
ENDBRANCH   1   8
BRANCH   5  13
ATOM     13  O   UNL     1       4.165   2.730  17.363  0.00  0.00    +0.000 OA
BRANCH  13  14
ATOM     14  C   UNL     1       2.759   2.518  17.511  0.00  0.00    +0.000 C 
BRANCH  14  15
ATOM     15  C   UNL     1       2.375   2.659  18.961  0.00  0.00    +0.000 A 
ATOM     16  C   UNL     1       3.311   2.429  19.977  0.00  0.00    +0.000 A 
ATOM     17  C   UNL     1       2.948   2.574  21.316  0.00  0.00    +0.000 A 
ATOM     18  C   UNL     1       1.650   2.951  21.653  0.00  0.00    +0.000 A 
ATOM     19  C   UNL     1       0.710   3.186  20.649  0.00  0.00    +0.000 A 
ATOM     20  C   UNL     1       1.070   3.041  19.311  0.00  0.00    +0.000 A 
ENDBRANCH  14  15
ENDBRANCH  13  14
ENDBRANCH   5  13
TORSDOF 6
ENDMDL
MODEL 9
REMARK VINA RESULT:      -7.2      0.758      1.436
REMARK  Name = 
REMARK  6 active torsions:
REMARK  status: ('A' for Active; 'I' for Inactive)
REMARK    1  A    between atoms: C_2  and  O_3
REMARK    2  A    between atoms: C_2  and  C_4
REMARK    3  A    between atoms: C_5  and  C_6
REMARK    4  A    between atoms: C_10  and  O_11
REMARK    5  A    between atoms: O_11  and  C_12
REMARK    6  A    between atoms: C_12  and  C_13
REMARK                            x       y       z     vdW  Elec       q    Type
REMARK                         _______ _______ _______ _____ _____    ______ ____
ROOT
ATOM      1  C   UNL     1       6.124   4.510  15.980  0.00  0.00    +0.000 A 
ATOM      2  C   UNL     1       7.184   4.510  16.899  0.00  0.00    +0.000 A 
ATOM      3  C   UNL     1       7.051   5.131  18.139  0.00  0.00    +0.000 A 
ATOM      4  C   UNL     1       5.861   5.771  18.473  0.00  0.00    +0.000 A 
ATOM      5  C   UNL     1       4.810   5.820  17.558  0.00  0.00    +0.000 A 
ATOM      6  C   UNL     1       4.935   5.164  16.329  0.00  0.00    +0.000 A 
ENDROOT
BRANCH   1   8
ATOM      7  C   UNL     1       5.705   4.078  13.564  0.00  0.00    +0.000 C 
ATOM      8  C   UNL     1       6.294   3.759  14.725  0.00  0.00    +0.000 C 
BRANCH   7  10
ATOM      9  O   UNL     1       6.992   3.134  11.825  0.00  0.00    +0.000 OA
ATOM     10  C   UNL     1       5.885   3.349  12.293  0.00  0.00    +0.000 C 
BRANCH  10  11
ATOM     11  O   UNL     1       4.745   2.980  11.682  0.00  0.00    +0.000 OA
ATOM     12  H   UNL     1       4.867   2.425  10.893  0.00  0.00    +0.000 HD
ENDBRANCH  10  11
ENDBRANCH   7  10
ENDBRANCH   1   8
BRANCH   5  13
ATOM     13  O   UNL     1       3.620   6.470  17.766  0.00  0.00    +0.000 OA
BRANCH  13  14
ATOM     14  C   UNL     1       3.060   6.318  19.072  0.00  0.00    +0.000 C 
BRANCH  14  15
ATOM     15  C   UNL     1       2.493   4.930  19.222  0.00  0.00    +0.000 A 
ATOM     16  C   UNL     1       1.691   4.371  18.218  0.00  0.00    +0.000 A 
ATOM     17  C   UNL     1       1.180   3.081  18.361  0.00  0.00    +0.000 A 
ATOM     18  C   UNL     1       1.464   2.338  19.505  0.00  0.00    +0.000 A 
ATOM     19  C   UNL     1       2.264   2.883  20.510  0.00  0.00    +0.000 A 
ATOM     20  C   UNL     1       2.774   4.173  20.370  0.00  0.00    +0.000 A 
ENDBRANCH  14  15
ENDBRANCH  13  14
ENDBRANCH   5  13
TORSDOF 6
ENDMDL
