MODEL 1
REMARK VINA RESULT:      -7.7      0.000      0.000
REMARK  Name = 
REMARK  6 active torsions:
REMARK  status: ('A' for Active; 'I' for Inactive)
REMARK    1  A    between atoms: C_1  and  N_2
REMARK    2  A    between atoms: N_2  and  C_3
REMARK    3  A    between atoms: C_3  and  C_4
REMARK    4  A    between atoms: C_4  and  O_5
REMARK    5  A    between atoms: O_5  and  C_6
REMARK    6  A    between atoms: C_9  and  C_10
REMARK                            x       y       z     vdW  Elec       q    Type
REMARK                         _______ _______ _______ _____ _____    ______ ____
ROOT
ATOM      1  C   UNL     1       7.200   7.021  17.511  0.00  0.00    +0.000 A 
ATOM      2  C   UNL     1       7.507   5.819  18.140  0.00  0.00    +0.000 A 
ATOM      3  C   UNL     1       6.561   4.794  18.201  0.00  0.00    +0.000 A 
ATOM      4  C   UNL     1       5.272   4.957  17.673  0.00  0.00    +0.000 A 
ATOM      5  C   UNL     1       4.935   6.226  17.166  0.00  0.00    +0.000 A 
ATOM      6  C   UNL     1       5.891   7.250  17.089  0.00  0.00    +0.000 A 
ENDROOT
BRANCH   4   7
ATOM      7  C   UNL     1       4.293   3.793  17.557  0.00  0.00    +0.000 C 
ATOM      8  N   UNL     1       4.606   2.685  18.429  0.00  0.00    +0.000 N 
ATOM      9  C   UNL     1       4.322   2.624  19.757  0.00  0.00    +0.000 C 
ATOM     10  O   UNL     1       5.018   1.915  20.487  0.00  0.00    +0.000 OA
ATOM     11  C   UNL     1       3.102   3.337  20.294  0.00  0.00    +0.000 C 
ATOM     12  C   UNL     1       2.606   4.541  19.520  0.00  0.00    +0.000 C 
ATOM     13  S   UNL     1       2.560   4.248  17.742  0.00  0.00    +0.000 S 
ATOM     14  H   UNL     1       5.447   2.168  18.196  0.00  0.00    +0.000 HD
ENDBRANCH   4   7
BRANCH   1  15
ATOM     15  O   UNL     1       8.123   7.997  17.233  0.00  0.00    +0.000 OA
BRANCH  15  16
ATOM     16  C   UNL     1       7.878   9.250  17.909  0.00  0.00    +0.000 C 
BRANCH  16  17
ATOM     17  C   UNL     1       9.023   9.594  18.867  0.00  0.00    +0.000 C 
BRANCH  17  19
ATOM     18  C   UNL     1      10.444  11.286  17.728  0.00  0.00    +0.000 C 
ATOM     19  N   UNL     1       9.438  10.996  18.738  0.00  0.00    +0.000 N 
ATOM     20  C   UNL     1       9.385  11.783  19.886  0.00  0.00    +0.000 A 
ATOM     21  C   UNL     1       9.822  13.111  19.887  0.00  0.00    +0.000 A 
ATOM     22  C   UNL     1       9.797  13.871  21.057  0.00  0.00    +0.000 A 
ATOM     23  C   UNL     1       9.321  13.300  22.224  0.00  0.00    +0.000 A 
ATOM     24  C   UNL     1       8.873  11.997  22.157  0.00  0.00    +0.000 A 
ATOM     25  N   UNL     1       8.886  11.246  21.028  0.00  0.00    +0.000 NA
ENDBRANCH  17  19
ENDBRANCH  16  17
ENDBRANCH  15  16
ENDBRANCH   1  15
TORSDOF 5
ENDMDL
MODEL 2
REMARK VINA RESULT:      -7.5      5.496      6.489
REMARK  Name = 
REMARK  6 active torsions:
REMARK  status: ('A' for Active; 'I' for Inactive)
REMARK    1  A    between atoms: C_1  and  N_2
REMARK    2  A    between atoms: N_2  and  C_3
REMARK    3  A    between atoms: C_3  and  C_4
REMARK    4  A    between atoms: C_4  and  O_5
REMARK    5  A    between atoms: O_5  and  C_6
REMARK    6  A    between atoms: C_9  and  C_10
REMARK                            x       y       z     vdW  Elec       q    Type
REMARK                         _______ _______ _______ _____ _____    ______ ____
ROOT
ATOM      1  C   UNL     1       3.055   7.649  17.791  0.00  0.00    +0.000 A 
ATOM      2  C   UNL     1       3.990   6.904  17.079  0.00  0.00    +0.000 A 
ATOM      3  C   UNL     1       4.311   5.606  17.481  0.00  0.00    +0.000 A 
ATOM      4  C   UNL     1       3.740   5.034  18.627  0.00  0.00    +0.000 A 
ATOM      5  C   UNL     1       2.904   5.851  19.412  0.00  0.00    +0.000 A 
ATOM      6  C   UNL     1       2.568   7.149  18.998  0.00  0.00    +0.000 A 
ENDROOT
BRANCH   4   7
ATOM      7  C   UNL     1       3.928   3.560  18.974  0.00  0.00    +0.000 C 
ATOM      8  N   UNL     1       3.586   3.239  20.340  0.00  0.00    +0.000 N 
ATOM      9  C   UNL     1       2.325   3.057  20.814  0.00  0.00    +0.000 C 
ATOM     10  O   UNL     1       2.097   3.268  22.007  0.00  0.00    +0.000 OA
ATOM     11  C   UNL     1       1.257   2.500  19.900  0.00  0.00    +0.000 C 
ATOM     12  C   UNL     1       1.426   2.734  18.413  0.00  0.00    +0.000 C 
ATOM     13  S   UNL     1       3.108   2.414  17.852  0.00  0.00    +0.000 S 
ATOM     14  H   UNL     1       4.207   3.617  21.047  0.00  0.00    +0.000 HD
ENDBRANCH   4   7
BRANCH   1  15
ATOM     15  O   UNL     1       2.537   8.843  17.358  0.00  0.00    +0.000 OA
BRANCH  15  16
ATOM     16  C   UNL     1       1.330   9.245  18.043  0.00  0.00    +0.000 C 
BRANCH  16  17
ATOM     17  C   UNL     1       1.460  10.664  18.603  0.00  0.00    +0.000 C 
BRANCH  17  19
ATOM     18  C   UNL     1      -0.303  12.348  19.093  0.00  0.00    +0.000 C 
ATOM     19  N   UNL     1       0.281  11.050  19.390  0.00  0.00    +0.000 N 
ATOM     20  C   UNL     1       0.190  10.546  20.685  0.00  0.00    +0.000 A 
ATOM     21  C   UNL     1      -0.857  10.906  21.540  0.00  0.00    +0.000 A 
ATOM     22  C   UNL     1      -0.911  10.422  22.848  0.00  0.00    +0.000 A 
ATOM     23  C   UNL     1       0.082   9.567  23.293  0.00  0.00    +0.000 A 
ATOM     24  C   UNL     1       1.071   9.220  22.396  0.00  0.00    +0.000 A 
ATOM     25  N   UNL     1       1.136   9.678  21.122  0.00  0.00    +0.000 NA
ENDBRANCH  17  19
ENDBRANCH  16  17
ENDBRANCH  15  16
ENDBRANCH   1  15
TORSDOF 5
ENDMDL
MODEL 3
REMARK VINA RESULT:      -7.5      1.227      1.767
REMARK  Name = 
REMARK  6 active torsions:
REMARK  status: ('A' for Active; 'I' for Inactive)
REMARK    1  A    between atoms: C_1  and  N_2
REMARK    2  A    between atoms: N_2  and  C_3
REMARK    3  A    between atoms: C_3  and  C_4
REMARK    4  A    between atoms: C_4  and  O_5
REMARK    5  A    between atoms: O_5  and  C_6
REMARK    6  A    between atoms: C_9  and  C_10
REMARK                            x       y       z     vdW  Elec       q    Type
REMARK                         _______ _______ _______ _____ _____    ______ ____
ROOT
ATOM      1  C   UNL     1       6.980   6.930  17.366  0.00  0.00    +0.000 A 
ATOM      2  C   UNL     1       7.339   5.761  18.029  0.00  0.00    +0.000 A 
ATOM      3  C   UNL     1       6.429   4.708  18.144  0.00  0.00    +0.000 A 
ATOM      4  C   UNL     1       5.125   4.811  17.638  0.00  0.00    +0.000 A 
ATOM      5  C   UNL     1       4.736   6.050  17.096  0.00  0.00    +0.000 A 
ATOM      6  C   UNL     1       5.656   7.102  16.965  0.00  0.00    +0.000 A 
ENDROOT
BRANCH   4   7
ATOM      7  C   UNL     1       4.183   3.613  17.582  0.00  0.00    +0.000 C 
ATOM      8  N   UNL     1       4.565   2.535  18.465  0.00  0.00    +0.000 N 
ATOM      9  C   UNL     1       4.330   2.494  19.803  0.00  0.00    +0.000 C 
ATOM     10  O   UNL     1       5.075   1.825  20.522  0.00  0.00    +0.000 OA
ATOM     11  C   UNL     1       3.106   3.177  20.369  0.00  0.00    +0.000 C 
ATOM     12  C   UNL     1       2.542   4.347  19.589  0.00  0.00    +0.000 C 
ATOM     13  S   UNL     1       2.443   4.013  17.820  0.00  0.00    +0.000 S 
ATOM     14  H   UNL     1       5.414   2.042  18.213  0.00  0.00    +0.000 HD
ENDBRANCH   4   7
BRANCH   1  15
ATOM     15  O   UNL     1       7.864   7.925  17.036  0.00  0.00    +0.000 OA
BRANCH  15  16
ATOM     16  C   UNL     1       8.229   8.780  18.142  0.00  0.00    +0.000 C 
BRANCH  16  17
ATOM     17  C   UNL     1       8.245  10.252  17.721  0.00  0.00    +0.000 C 
BRANCH  17  19
ATOM     18  C   UNL     1       9.629  10.420  19.780  0.00  0.00    +0.000 C 
ATOM     19  N   UNL     1       9.149  11.049  18.560  0.00  0.00    +0.000 N 
ATOM     20  C   UNL     1       8.989  12.433  18.528  0.00  0.00    +0.000 A 
ATOM     21  C   UNL     1       9.752  13.278  19.340  0.00  0.00    +0.000 A 
ATOM     22  C   UNL     1       9.551  14.659  19.323  0.00  0.00    +0.000 A 
ATOM     23  C   UNL     1       8.589  15.191  18.482  0.00  0.00    +0.000 A 
ATOM     24  C   UNL     1       7.889  14.313  17.681  0.00  0.00    +0.000 A 
ATOM     25  N   UNL     1       8.076  12.971  17.682  0.00  0.00    +0.000 NA
ENDBRANCH  17  19
ENDBRANCH  16  17
ENDBRANCH  15  16
ENDBRANCH   1  15
TORSDOF 5
ENDMDL
MODEL 4
REMARK VINA RESULT:      -7.4      5.562      8.781
REMARK  Name = 
REMARK  6 active torsions:
REMARK  status: ('A' for Active; 'I' for Inactive)
REMARK    1  A    between atoms: C_1  and  N_2
REMARK    2  A    between atoms: N_2  and  C_3
REMARK    3  A    between atoms: C_3  and  C_4
REMARK    4  A    between atoms: C_4  and  O_5
REMARK    5  A    between atoms: O_5  and  C_6
REMARK    6  A    between atoms: C_9  and  C_10
REMARK                            x       y       z     vdW  Elec       q    Type
REMARK                         _______ _______ _______ _____ _____    ______ ____
ROOT
ATOM      1  C   UNL     1       2.272   7.690  19.037  0.00  0.00    +0.000 A 
ATOM      2  C   UNL     1       1.714   7.964  20.281  0.00  0.00    +0.000 A 
ATOM      3  C   UNL     1       0.859   9.054  20.447  0.00  0.00    +0.000 A 
ATOM      4  C   UNL     1       0.572   9.925  19.385  0.00  0.00    +0.000 A 
ATOM      5  C   UNL     1       1.255   9.715  18.173  0.00  0.00    +0.000 A 
ATOM      6  C   UNL     1       2.100   8.608  18.002  0.00  0.00    +0.000 A 
ENDROOT
BRANCH   4   7
ATOM      7  C   UNL     1      -0.502  11.003  19.491  0.00  0.00    +0.000 C 
ATOM      8  N   UNL     1      -0.969  11.223  20.840  0.00  0.00    +0.000 N 
ATOM      9  C   UNL     1      -0.323  11.955  21.787  0.00  0.00    +0.000 C 
ATOM     10  O   UNL     1      -0.517  11.700  22.977  0.00  0.00    +0.000 OA
ATOM     11  C   UNL     1       0.532  13.130  21.368  0.00  0.00    +0.000 C 
ATOM     12  C   UNL     1       1.128  13.092  19.976  0.00  0.00    +0.000 C 
ATOM     13  S   UNL     1      -0.067  12.576  18.729  0.00  0.00    +0.000 S 
ATOM     14  H   UNL     1      -1.507  10.466  21.247  0.00  0.00    +0.000 HD
ENDBRANCH   4   7
BRANCH   1  15
ATOM     15  O   UNL     1       2.957   6.539  18.741  0.00  0.00    +0.000 OA
BRANCH  15  16
ATOM     16  C   UNL     1       3.083   5.626  19.853  0.00  0.00    +0.000 C 
BRANCH  16  17
ATOM     17  C   UNL     1       3.642   4.275  19.397  0.00  0.00    +0.000 C 
BRANCH  17  19
ATOM     18  C   UNL     1       2.611   3.273  17.368  0.00  0.00    +0.000 C 
ATOM     19  N   UNL     1       3.628   4.145  17.934  0.00  0.00    +0.000 N 
ATOM     20  C   UNL     1       4.846   4.283  17.272  0.00  0.00    +0.000 A 
ATOM     21  C   UNL     1       4.953   4.110  15.889  0.00  0.00    +0.000 A 
ATOM     22  C   UNL     1       6.189   4.215  15.249  0.00  0.00    +0.000 A 
ATOM     23  C   UNL     1       7.315   4.504  15.998  0.00  0.00    +0.000 A 
ATOM     24  C   UNL     1       7.145   4.697  17.354  0.00  0.00    +0.000 A 
ATOM     25  N   UNL     1       5.952   4.603  17.990  0.00  0.00    +0.000 NA
ENDBRANCH  17  19
ENDBRANCH  16  17
ENDBRANCH  15  16
ENDBRANCH   1  15
TORSDOF 5
ENDMDL
MODEL 5
REMARK VINA RESULT:      -7.3      7.358      8.882
REMARK  Name = 
REMARK  6 active torsions:
REMARK  status: ('A' for Active; 'I' for Inactive)
REMARK    1  A    between atoms: C_1  and  N_2
REMARK    2  A    between atoms: N_2  and  C_3
REMARK    3  A    between atoms: C_3  and  C_4
REMARK    4  A    between atoms: C_4  and  O_5
REMARK    5  A    between atoms: O_5  and  C_6
REMARK    6  A    between atoms: C_9  and  C_10
REMARK                            x       y       z     vdW  Elec       q    Type
REMARK                         _______ _______ _______ _____ _____    ______ ____
ROOT
ATOM      1  C   UNL     1       1.007   9.636  19.216  0.00  0.00    +0.000 A 
ATOM      2  C   UNL     1       1.063   8.846  20.359  0.00  0.00    +0.000 A 
ATOM      3  C   UNL     1       1.788   7.653  20.357  0.00  0.00    +0.000 A 
ATOM      4  C   UNL     1       2.441   7.197  19.202  0.00  0.00    +0.000 A 
ATOM      5  C   UNL     1       2.256   7.937  18.019  0.00  0.00    +0.000 A 
ATOM      6  C   UNL     1       1.542   9.145  18.027  0.00  0.00    +0.000 A 
ENDROOT
BRANCH   4   7
ATOM      7  C   UNL     1       3.391   6.004  19.228  0.00  0.00    +0.000 C 
ATOM      8  N   UNL     1       3.156   5.101  20.330  0.00  0.00    +0.000 N 
ATOM      9  C   UNL     1       2.177   4.159  20.380  0.00  0.00    +0.000 C 
ATOM     10  O   UNL     1       1.751   3.793  21.478  0.00  0.00    +0.000 OA
ATOM     11  C   UNL     1       1.706   3.502  19.102  0.00  0.00    +0.000 C 
ATOM     12  C   UNL     1       1.862   4.291  17.819  0.00  0.00    +0.000 C 
ATOM     13  S   UNL     1       3.478   5.079  17.685  0.00  0.00    +0.000 S 
ATOM     14  H   UNL     1       3.380   5.463  21.250  0.00  0.00    +0.000 HD
ENDBRANCH   4   7
BRANCH   1  15
ATOM     15  O   UNL     1       0.490  10.906  19.188  0.00  0.00    +0.000 OA
BRANCH  15  16
ATOM     16  C   UNL     1       0.348  11.514  20.491  0.00  0.00    +0.000 C 
BRANCH  16  17
ATOM     17  C   UNL     1      -1.086  11.999  20.721  0.00  0.00    +0.000 C 
BRANCH  17  19
ATOM     18  C   UNL     1      -0.894  10.802  22.891  0.00  0.00    +0.000 C 
ATOM     19  N   UNL     1      -1.476  11.898  22.133  0.00  0.00    +0.000 N 
ATOM     20  C   UNL     1      -2.744  12.361  22.476  0.00  0.00    +0.000 A 
ATOM     21  C   UNL     1      -3.239  12.247  23.779  0.00  0.00    +0.000 A 
ATOM     22  C   UNL     1      -4.527  12.682  24.096  0.00  0.00    +0.000 A 
ATOM     23  C   UNL     1      -5.314  13.240  23.104  0.00  0.00    +0.000 A 
ATOM     24  C   UNL     1      -4.763  13.355  21.845  0.00  0.00    +0.000 A 
ATOM     25  N   UNL     1      -3.513  12.943  21.522  0.00  0.00    +0.000 NA
ENDBRANCH  17  19
ENDBRANCH  16  17
ENDBRANCH  15  16
ENDBRANCH   1  15
TORSDOF 5
ENDMDL
MODEL 6
REMARK VINA RESULT:      -7.3      5.491      8.191
REMARK  Name = 
REMARK  6 active torsions:
REMARK  status: ('A' for Active; 'I' for Inactive)
REMARK    1  A    between atoms: C_1  and  N_2
REMARK    2  A    between atoms: N_2  and  C_3
REMARK    3  A    between atoms: C_3  and  C_4
REMARK    4  A    between atoms: C_4  and  O_5
REMARK    5  A    between atoms: O_5  and  C_6
REMARK    6  A    between atoms: C_9  and  C_10
REMARK                            x       y       z     vdW  Elec       q    Type
REMARK                         _______ _______ _______ _____ _____    ______ ____
ROOT
ATOM      1  C   UNL     1       2.158   7.529  19.302  0.00  0.00    +0.000 A 
ATOM      2  C   UNL     1       2.117   8.160  18.063  0.00  0.00    +0.000 A 
ATOM      3  C   UNL     1       1.643   9.468  17.952  0.00  0.00    +0.000 A 
ATOM      4  C   UNL     1       1.158  10.166  19.069  0.00  0.00    +0.000 A 
ATOM      5  C   UNL     1       1.076   9.464  20.286  0.00  0.00    +0.000 A 
ATOM      6  C   UNL     1       1.569   8.155  20.399  0.00  0.00    +0.000 A 
ENDROOT
BRANCH   4   7
ATOM      7  C   UNL     1       0.817  11.651  19.007  0.00  0.00    +0.000 C 
ATOM      8  N   UNL     1      -0.168  11.978  18.003  0.00  0.00    +0.000 N 
ATOM      9  C   UNL     1      -1.511  11.806  18.133  0.00  0.00    +0.000 C 
ATOM     10  O   UNL     1      -2.196  11.648  17.120  0.00  0.00    +0.000 OA
ATOM     11  C   UNL     1      -2.150  11.920  19.499  0.00  0.00    +0.000 C 
ATOM     12  C   UNL     1      -1.279  11.612  20.699  0.00  0.00    +0.000 C 
ATOM     13  S   UNL     1       0.348  12.380  20.586  0.00  0.00    +0.000 S 
ATOM     14  H   UNL     1       0.136  11.877  17.041  0.00  0.00    +0.000 HD
ENDBRANCH   4   7
BRANCH   1  15
ATOM     15  O   UNL     1       2.786   6.331  19.531  0.00  0.00    +0.000 OA
BRANCH  15  16
ATOM     16  C   UNL     1       2.252   5.230  18.765  0.00  0.00    +0.000 C 
BRANCH  16  17
ATOM     17  C   UNL     1       3.241   4.775  17.688  0.00  0.00    +0.000 C 
BRANCH  17  19
ATOM     18  C   UNL     1       4.487   3.521  19.437  0.00  0.00    +0.000 C 
ATOM     19  N   UNL     1       4.533   4.383  18.266  0.00  0.00    +0.000 N 
ATOM     20  C   UNL     1       5.590   5.279  18.126  0.00  0.00    +0.000 A 
ATOM     21  C   UNL     1       6.842   5.033  18.698  0.00  0.00    +0.000 A 
ATOM     22  C   UNL     1       7.878   5.960  18.579  0.00  0.00    +0.000 A 
ATOM     23  C   UNL     1       7.657   7.132  17.876  0.00  0.00    +0.000 A 
ATOM     24  C   UNL     1       6.413   7.307  17.306  0.00  0.00    +0.000 A 
ATOM     25  N   UNL     1       5.399   6.414  17.408  0.00  0.00    +0.000 NA
ENDBRANCH  17  19
ENDBRANCH  16  17
ENDBRANCH  15  16
ENDBRANCH   1  15
TORSDOF 5
ENDMDL
MODEL 7
REMARK VINA RESULT:      -7.3      1.279      2.299
REMARK  Name = 
REMARK  6 active torsions:
REMARK  status: ('A' for Active; 'I' for Inactive)
REMARK    1  A    between atoms: C_1  and  N_2
REMARK    2  A    between atoms: N_2  and  C_3
REMARK    3  A    between atoms: C_3  and  C_4
REMARK    4  A    between atoms: C_4  and  O_5
REMARK    5  A    between atoms: O_5  and  C_6
REMARK    6  A    between atoms: C_9  and  C_10
REMARK                            x       y       z     vdW  Elec       q    Type
REMARK                         _______ _______ _______ _____ _____    ______ ____
ROOT
ATOM      1  C   UNL     1       7.637   7.025  18.131  0.00  0.00    +0.000 A 
ATOM      2  C   UNL     1       6.511   7.394  17.404  0.00  0.00    +0.000 A 
ATOM      3  C   UNL     1       5.492   6.471  17.163  0.00  0.00    +0.000 A 
ATOM      4  C   UNL     1       5.591   5.143  17.606  0.00  0.00    +0.000 A 
ATOM      5  C   UNL     1       6.797   4.752  18.217  0.00  0.00    +0.000 A 
ATOM      6  C   UNL     1       7.812   5.685  18.474  0.00  0.00    +0.000 A 
ENDROOT
BRANCH   4   7
ATOM      7  C   UNL     1       4.415   4.175  17.524  0.00  0.00    +0.000 C 
ATOM      8  N   UNL     1       4.574   3.000  18.350  0.00  0.00    +0.000 N 
ATOM      9  C   UNL     1       4.359   2.946  19.691  0.00  0.00    +0.000 C 
ATOM     10  O   UNL     1       4.957   2.101  20.361  0.00  0.00    +0.000 OA
ATOM     11  C   UNL     1       3.317   3.845  20.318  0.00  0.00    +0.000 C 
ATOM     12  C   UNL     1       3.002   5.143  19.604  0.00  0.00    +0.000 C 
ATOM     13  S   UNL     1       2.804   4.922  17.826  0.00  0.00    +0.000 S 
ATOM     14  H   UNL     1       5.295   2.351  18.054  0.00  0.00    +0.000 HD
ENDBRANCH   4   7
BRANCH   1  15
ATOM     15  O   UNL     1       8.584   7.911  18.580  0.00  0.00    +0.000 OA
BRANCH  15  16
ATOM     16  C   UNL     1       8.207   9.298  18.439  0.00  0.00    +0.000 C 
BRANCH  16  17
ATOM     17  C   UNL     1       9.393  10.149  17.977  0.00  0.00    +0.000 C 
BRANCH  17  19
ATOM     18  C   UNL     1       9.340  10.773  20.384  0.00  0.00    +0.000 C 
ATOM     19  N   UNL     1       9.989  10.902  19.088  0.00  0.00    +0.000 N 
ATOM     20  C   UNL     1      10.638  12.093  18.772  0.00  0.00    +0.000 A 
ATOM     21  C   UNL     1      11.179  12.920  19.761  0.00  0.00    +0.000 A 
ATOM     22  C   UNL     1      11.793  14.128  19.428  0.00  0.00    +0.000 A 
ATOM     23  C   UNL     1      11.871  14.500  18.098  0.00  0.00    +0.000 A 
ATOM     24  C   UNL     1      11.350  13.631  17.162  0.00  0.00    +0.000 A 
ATOM     25  N   UNL     1      10.755  12.452  17.469  0.00  0.00    +0.000 NA
ENDBRANCH  17  19
ENDBRANCH  16  17
ENDBRANCH  15  16
ENDBRANCH   1  15
TORSDOF 5
ENDMDL
MODEL 8
REMARK VINA RESULT:      -7.3      5.301      8.260
REMARK  Name = 
REMARK  6 active torsions:
REMARK  status: ('A' for Active; 'I' for Inactive)
REMARK    1  A    between atoms: C_1  and  N_2
REMARK    2  A    between atoms: N_2  and  C_3
REMARK    3  A    between atoms: C_3  and  C_4
REMARK    4  A    between atoms: C_4  and  O_5
REMARK    5  A    between atoms: O_5  and  C_6
REMARK    6  A    between atoms: C_9  and  C_10
REMARK                            x       y       z     vdW  Elec       q    Type
REMARK                         _______ _______ _______ _____ _____    ______ ____
ROOT
ATOM      1  C   UNL     1       1.949   6.576  20.343  0.00  0.00    +0.000 A 
ATOM      2  C   UNL     1       1.410   7.652  21.039  0.00  0.00    +0.000 A 
ATOM      3  C   UNL     1       1.186   8.869  20.393  0.00  0.00    +0.000 A 
ATOM      4  C   UNL     1       1.534   9.056  19.047  0.00  0.00    +0.000 A 
ATOM      5  C   UNL     1       2.206   8.003  18.399  0.00  0.00    +0.000 A 
ATOM      6  C   UNL     1       2.414   6.774  19.044  0.00  0.00    +0.000 A 
ENDROOT
BRANCH   4   7
ATOM      7  C   UNL     1       1.125  10.305  18.273  0.00  0.00    +0.000 C 
ATOM      8  N   UNL     1      -0.163  10.191  17.629  0.00  0.00    +0.000 N 
ATOM      9  C   UNL     1      -1.366  10.336  18.247  0.00  0.00    +0.000 C 
ATOM     10  O   UNL     1      -2.354   9.768  17.775  0.00  0.00    +0.000 OA
ATOM     11  C   UNL     1      -1.492  11.269  19.429  0.00  0.00    +0.000 C 
ATOM     12  C   UNL     1      -0.243  11.523  20.248  0.00  0.00    +0.000 C 
ATOM     13  S   UNL     1       1.204  11.835  19.220  0.00  0.00    +0.000 S 
ATOM     14  H   UNL     1      -0.210   9.539  16.854  0.00  0.00    +0.000 HD
ENDBRANCH   4   7
BRANCH   1  15
ATOM     15  O   UNL     1       2.018   5.299  20.840  0.00  0.00    +0.000 OA
BRANCH  15  16
ATOM     16  C   UNL     1       1.980   4.269  19.828  0.00  0.00    +0.000 C 
BRANCH  16  17
ATOM     17  C   UNL     1       3.276   3.455  19.820  0.00  0.00    +0.000 C 
BRANCH  17  19
ATOM     18  C   UNL     1       3.663   2.273  17.666  0.00  0.00    +0.000 C 
ATOM     19  N   UNL     1       3.905   3.445  18.493  0.00  0.00    +0.000 N 
ATOM     20  C   UNL     1       5.109   4.134  18.356  0.00  0.00    +0.000 A 
ATOM     21  C   UNL     1       5.824   4.130  17.154  0.00  0.00    +0.000 A 
ATOM     22  C   UNL     1       7.046   4.794  17.047  0.00  0.00    +0.000 A 
ATOM     23  C   UNL     1       7.545   5.470  18.146  0.00  0.00    +0.000 A 
ATOM     24  C   UNL     1       6.782   5.467  19.295  0.00  0.00    +0.000 A 
ATOM     25  N   UNL     1       5.591   4.832  19.414  0.00  0.00    +0.000 NA
ENDBRANCH  17  19
ENDBRANCH  16  17
ENDBRANCH  15  16
ENDBRANCH   1  15
TORSDOF 5
ENDMDL
MODEL 9
REMARK VINA RESULT:      -7.3      7.391      9.496
REMARK  Name = 
REMARK  6 active torsions:
REMARK  status: ('A' for Active; 'I' for Inactive)
REMARK    1  A    between atoms: C_1  and  N_2
REMARK    2  A    between atoms: N_2  and  C_3
REMARK    3  A    between atoms: C_3  and  C_4
REMARK    4  A    between atoms: C_4  and  O_5
REMARK    5  A    between atoms: O_5  and  C_6
REMARK    6  A    between atoms: C_9  and  C_10
REMARK                            x       y       z     vdW  Elec       q    Type
REMARK                         _______ _______ _______ _____ _____    ______ ____
ROOT
ATOM      1  C   UNL     1       1.025   9.640  19.352  0.00  0.00    +0.000 A 
ATOM      2  C   UNL     1       1.141   8.814  20.465  0.00  0.00    +0.000 A 
ATOM      3  C   UNL     1       1.861   7.620  20.386  0.00  0.00    +0.000 A 
ATOM      4  C   UNL     1       2.447   7.200  19.183  0.00  0.00    +0.000 A 
ATOM      5  C   UNL     1       2.201   7.976  18.036  0.00  0.00    +0.000 A 
ATOM      6  C   UNL     1       1.492   9.185  18.120  0.00  0.00    +0.000 A 
ENDROOT
BRANCH   4   7
ATOM      7  C   UNL     1       3.393   6.005  19.120  0.00  0.00    +0.000 C 
ATOM      8  N   UNL     1       3.344   5.165  20.294  0.00  0.00    +0.000 N 
ATOM      9  C   UNL     1       2.389   4.232  20.554  0.00  0.00    +0.000 C 
ATOM     10  O   UNL     1       2.150   3.931  21.726  0.00  0.00    +0.000 OA
ATOM     11  C   UNL     1       1.719   3.509  19.408  0.00  0.00    +0.000 C 
ATOM     12  C   UNL     1       1.661   4.225  18.076  0.00  0.00    +0.000 C 
ATOM     13  S   UNL     1       3.231   4.995  17.637  0.00  0.00    +0.000 S 
ATOM     14  H   UNL     1       3.714   5.576  21.143  0.00  0.00    +0.000 HD
ENDBRANCH   4   7
BRANCH   1  15
ATOM     15  O   UNL     1       0.511  10.911  19.392  0.00  0.00    +0.000 OA
BRANCH  15  16
ATOM     16  C   UNL     1      -0.917  10.963  19.603  0.00  0.00    +0.000 C 
BRANCH  16  17
ATOM     17  C   UNL     1      -1.595  11.871  18.573  0.00  0.00    +0.000 C 
BRANCH  17  19
ATOM     18  C   UNL     1      -2.527  10.802  16.531  0.00  0.00    +0.000 C 
ATOM     19  N   UNL     1      -2.724  11.201  17.916  0.00  0.00    +0.000 N 
ATOM     20  C   UNL     1      -4.004  11.543  18.347  0.00  0.00    +0.000 A 
ATOM     21  C   UNL     1      -5.148  11.014  17.741  0.00  0.00    +0.000 A 
ATOM     22  C   UNL     1      -6.422  11.398  18.161  0.00  0.00    +0.000 A 
ATOM     23  C   UNL     1      -6.546  12.306  19.198  0.00  0.00    +0.000 A 
ATOM     24  C   UNL     1      -5.384  12.770  19.779  0.00  0.00    +0.000 A 
ATOM     25  N   UNL     1      -4.140  12.403  19.386  0.00  0.00    +0.000 NA
ENDBRANCH  17  19
ENDBRANCH  16  17
ENDBRANCH  15  16
ENDBRANCH   1  15
TORSDOF 5
ENDMDL
