MODEL 1
REMARK VINA RESULT:      -5.2      0.000      0.000
REMARK  Name = 
REMARK  8 active torsions:
REMARK  status: ('A' for Active; 'I' for Inactive)
REMARK    1  A    between atoms: N_1  and  CA_2
REMARK    2  A    between atoms: CA_2  and  C_3
REMARK    3  A    between atoms: CA_2  and  C_6
REMARK    4  A    between atoms: C_3  and  OXT_5
REMARK    5  A    between atoms: C_8  and  C_9
REMARK    6  A    between atoms: C_8  and  C_11
REMARK    7  A    between atoms: C_9  and  O_10
REMARK    8  A    between atoms: C_11  and  O_13
REMARK                            x       y       z     vdW  Elec       q    Type
REMARK                         _______ _______ _______ _____ _____    ______ ____
ROOT
ATOM      1  C   UNL     1       4.645   5.236  17.222  0.00  0.00    +0.000 C 
ATOM      2  C   UNL     1       5.177   5.507  15.839  0.00  0.00    +0.000 C 
ATOM      3  C   UNL     1       6.086   5.771  17.036  0.00  0.00    +0.000 C 
ENDROOT
BRANCH   3   4
ATOM      4  C   UNL     1       7.255   4.823  17.210  0.00  0.00    +0.000 C 
ATOM      5  O   UNL     1       7.643   4.470  18.314  0.00  0.00    +0.000 OA
BRANCH   4   6
ATOM      6  O   UNL     1       7.852   4.416  16.067  0.00  0.00    +0.000 OA
ATOM      7  H   UNL     1       7.434   3.599  15.699  0.00  0.00    +0.000 HD
ENDBRANCH   4   6
ENDBRANCH   3   4
BRANCH   1   8
ATOM      8  CA  UNL     1       4.309   3.818  17.610  0.00  0.00    +0.000 C 
BRANCH   8   9
ATOM      9  N   UNL     1       2.953   3.486  17.082  0.00  0.00    +0.000 NA
ATOM     10  H1  UNL     1       2.819   4.022  16.221  0.00  0.00    +0.000 HD
ATOM     11  H2  UNL     1       2.252   3.852  17.733  0.00  0.00    +0.000 HD
ENDBRANCH   8   9
BRANCH   8  12
ATOM     12  C   UNL     1       4.272   3.590  19.136  0.00  0.00    +0.000 C 
ATOM     13  O   UNL     1       3.400   3.989  19.885  0.00  0.00    +0.000 OA
BRANCH  12  14
ATOM     14  OXT UNL     1       5.360   2.880  19.545  0.00  0.00    +0.000 OA
ATOM     15  HXT UNL     1       5.747   3.379  20.309  0.00  0.00    +0.000 HD
ENDBRANCH  12  14
ENDBRANCH   8  12
ENDBRANCH   1   8
BRANCH   3  16
ATOM     16  C   UNL     1       6.336   7.246  17.279  0.00  0.00    +0.000 C 
BRANCH  16  17
ATOM     17  O   UNL     1       7.718   7.539  17.086  0.00  0.00    +0.000 OA
ATOM     18  H   UNL     1       8.073   7.822  17.951  0.00  0.00    +0.000 HD
ENDBRANCH  16  17
ENDBRANCH   3  16
TORSDOF 8
ENDMDL
MODEL 2
REMARK VINA RESULT:      -5.2      2.199      4.398
REMARK  Name = 
REMARK  8 active torsions:
REMARK  status: ('A' for Active; 'I' for Inactive)
REMARK    1  A    between atoms: N_1  and  CA_2
REMARK    2  A    between atoms: CA_2  and  C_3
REMARK    3  A    between atoms: CA_2  and  C_6
REMARK    4  A    between atoms: C_3  and  OXT_5
REMARK    5  A    between atoms: C_8  and  C_9
REMARK    6  A    between atoms: C_8  and  C_11
REMARK    7  A    between atoms: C_9  and  O_10
REMARK    8  A    between atoms: C_11  and  O_13
REMARK                            x       y       z     vdW  Elec       q    Type
REMARK                         _______ _______ _______ _____ _____    ______ ____
ROOT
ATOM      1  C   UNL     1       5.217   5.046  16.313  0.00  0.00    +0.000 C 
ATOM      2  C   UNL     1       4.733   6.160  17.203  0.00  0.00    +0.000 C 
ATOM      3  C   UNL     1       4.538   4.719  17.665  0.00  0.00    +0.000 C 
ENDROOT
BRANCH   3   4
ATOM      4  C   UNL     1       5.392   4.268  18.832  0.00  0.00    +0.000 C 
ATOM      5  O   UNL     1       6.191   5.017  19.376  0.00  0.00    +0.000 OA
BRANCH   4   6
ATOM      6  O   UNL     1       5.231   2.981  19.212  0.00  0.00    +0.000 OA
ATOM      7  H   UNL     1       5.817   2.367  18.705  0.00  0.00    +0.000 HD
ENDBRANCH   4   6
ENDBRANCH   3   4
BRANCH   1   8
ATOM      8  CA  UNL     1       6.695   4.910  16.050  0.00  0.00    +0.000 C 
BRANCH   8   9
ATOM      9  N   UNL     1       7.378   6.160  16.498  0.00  0.00    +0.000 NA
ATOM     10  H1  UNL     1       6.651   6.853  16.694  0.00  0.00    +0.000 HD
ATOM     11  H2  UNL     1       7.904   6.544  15.707  0.00  0.00    +0.000 HD
ENDBRANCH   8   9
BRANCH   8  12
ATOM     12  C   UNL     1       7.039   4.713  14.558  0.00  0.00    +0.000 C 
ATOM     13  O   UNL     1       7.748   5.449  13.897  0.00  0.00    +0.000 OA
BRANCH  12  14
ATOM     14  OXT UNL     1       6.434   3.595  14.066  0.00  0.00    +0.000 OA
ATOM     15  HXT UNL     1       6.231   3.786  13.115  0.00  0.00    +0.000 HD
ENDBRANCH  12  14
ENDBRANCH   8  12
ENDBRANCH   1   8
BRANCH   3  16
ATOM     16  C   UNL     1       3.086   4.281  17.647  0.00  0.00    +0.000 C 
BRANCH  16  17
ATOM     17  O   UNL     1       2.568   4.274  18.975  0.00  0.00    +0.000 OA
ATOM     18  H   UNL     1       2.495   5.206  19.258  0.00  0.00    +0.000 HD
ENDBRANCH  16  17
ENDBRANCH   3  16
TORSDOF 8
ENDMDL
MODEL 3
REMARK VINA RESULT:      -5.2      1.653      4.368
REMARK  Name = 
REMARK  8 active torsions:
REMARK  status: ('A' for Active; 'I' for Inactive)
REMARK    1  A    between atoms: N_1  and  CA_2
REMARK    2  A    between atoms: CA_2  and  C_3
REMARK    3  A    between atoms: CA_2  and  C_6
REMARK    4  A    between atoms: C_3  and  OXT_5
REMARK    5  A    between atoms: C_8  and  C_9
REMARK    6  A    between atoms: C_8  and  C_11
REMARK    7  A    between atoms: C_9  and  O_10
REMARK    8  A    between atoms: C_11  and  O_13
REMARK                            x       y       z     vdW  Elec       q    Type
REMARK                         _______ _______ _______ _____ _____    ______ ____
ROOT
ATOM      1  C   UNL     1       4.447   4.536  16.906  0.00  0.00    +0.000 C 
ATOM      2  C   UNL     1       3.101   4.923  17.460  0.00  0.00    +0.000 C 
ATOM      3  C   UNL     1       3.745   3.626  17.943  0.00  0.00    +0.000 C 
ENDROOT
BRANCH   3   4
ATOM      4  C   UNL     1       4.240   3.619  19.375  0.00  0.00    +0.000 C 
ATOM      5  O   UNL     1       3.726   4.312  20.241  0.00  0.00    +0.000 OA
BRANCH   4   6
ATOM      6  O   UNL     1       5.299   2.817  19.623  0.00  0.00    +0.000 OA
ATOM      7  H   UNL     1       5.783   3.081  20.443  0.00  0.00    +0.000 HD
ENDBRANCH   4   6
ENDBRANCH   3   4
BRANCH   1   8
ATOM      8  CA  UNL     1       5.639   5.407  17.209  0.00  0.00    +0.000 C 
BRANCH   8   9
ATOM      9  N   UNL     1       5.586   6.615  16.334  0.00  0.00    +0.000 NA
ATOM     10  H1  UNL     1       4.796   6.495  15.695  0.00  0.00    +0.000 HD
ATOM     11  H2  UNL     1       6.415   6.618  15.732  0.00  0.00    +0.000 HD
ENDBRANCH   8   9
BRANCH   8  12
ATOM     12  C   UNL     1       6.992   4.712  16.943  0.00  0.00    +0.000 C 
ATOM     13  O   UNL     1       7.547   4.645  15.863  0.00  0.00    +0.000 OA
BRANCH  12  14
ATOM     14  OXT UNL     1       7.491   4.171  18.090  0.00  0.00    +0.000 OA
ATOM     15  HXT UNL     1       8.329   3.708  17.836  0.00  0.00    +0.000 HD
ENDBRANCH  12  14
ENDBRANCH   8  12
ENDBRANCH   1   8
BRANCH   3  16
ATOM     16  C   UNL     1       3.033   2.386  17.439  0.00  0.00    +0.000 C 
BRANCH  16  17
ATOM     17  O   UNL     1       3.102   1.357  18.424  0.00  0.00    +0.000 OA
ATOM     18  H   UNL     1       3.016   1.790  19.295  0.00  0.00    +0.000 HD
ENDBRANCH  16  17
ENDBRANCH   3  16
TORSDOF 8
ENDMDL
MODEL 4
REMARK VINA RESULT:      -5.2      2.222      4.447
REMARK  Name = 
REMARK  8 active torsions:
REMARK  status: ('A' for Active; 'I' for Inactive)
REMARK    1  A    between atoms: N_1  and  CA_2
REMARK    2  A    between atoms: CA_2  and  C_3
REMARK    3  A    between atoms: CA_2  and  C_6
REMARK    4  A    between atoms: C_3  and  OXT_5
REMARK    5  A    between atoms: C_8  and  C_9
REMARK    6  A    between atoms: C_8  and  C_11
REMARK    7  A    between atoms: C_9  and  O_10
REMARK    8  A    between atoms: C_11  and  O_13
REMARK                            x       y       z     vdW  Elec       q    Type
REMARK                         _______ _______ _______ _____ _____    ______ ____
ROOT
ATOM      1  C   UNL     1       5.608   5.175  16.889  0.00  0.00    +0.000 C 
ATOM      2  C   UNL     1       5.733   5.535  18.346  0.00  0.00    +0.000 C 
ATOM      3  C   UNL     1       4.485   4.789  17.882  0.00  0.00    +0.000 C 
ENDROOT
BRANCH   3   4
ATOM      4  C   UNL     1       4.360   3.349  18.334  0.00  0.00    +0.000 C 
ATOM      5  O   UNL     1       3.613   2.558  17.776  0.00  0.00    +0.000 OA
BRANCH   4   6
ATOM      6  O   UNL     1       5.108   3.006  19.406  0.00  0.00    +0.000 OA
ATOM      7  H   UNL     1       5.355   2.049  19.398  0.00  0.00    +0.000 HD
ENDBRANCH   4   6
ENDBRANCH   3   4
BRANCH   1   8
ATOM      8  CA  UNL     1       6.587   4.196  16.292  0.00  0.00    +0.000 C 
BRANCH   8   9
ATOM      9  N   UNL     1       7.862   4.262  17.065  0.00  0.00    +0.000 NA
ATOM     10  H1  UNL     1       7.741   3.691  17.905  0.00  0.00    +0.000 HD
ATOM     11  H2  UNL     1       7.985   5.219  17.410  0.00  0.00    +0.000 HD
ENDBRANCH   8   9
BRANCH   8  12
ATOM     12  C   UNL     1       6.933   4.494  14.817  0.00  0.00    +0.000 C 
ATOM     13  O   UNL     1       7.591   5.440  14.427  0.00  0.00    +0.000 OA
BRANCH  12  14
ATOM     14  OXT UNL     1       6.395   3.550  13.994  0.00  0.00    +0.000 OA
ATOM     15  HXT UNL     1       6.895   2.713  14.169  0.00  0.00    +0.000 HD
ENDBRANCH  12  14
ENDBRANCH   8  12
ENDBRANCH   1   8
BRANCH   3  16
ATOM     16  C   UNL     1       3.235   5.647  17.913  0.00  0.00    +0.000 C 
BRANCH  16  17
ATOM     17  O   UNL     1       2.078   4.814  17.877  0.00  0.00    +0.000 OA
ATOM     18  H   UNL     1       1.601   4.951  18.719  0.00  0.00    +0.000 HD
ENDBRANCH  16  17
ENDBRANCH   3  16
TORSDOF 8
ENDMDL
MODEL 5
REMARK VINA RESULT:      -5.2      3.407      4.254
REMARK  Name = 
REMARK  8 active torsions:
REMARK  status: ('A' for Active; 'I' for Inactive)
REMARK    1  A    between atoms: N_1  and  CA_2
REMARK    2  A    between atoms: CA_2  and  C_3
REMARK    3  A    between atoms: CA_2  and  C_6
REMARK    4  A    between atoms: C_3  and  OXT_5
REMARK    5  A    between atoms: C_8  and  C_9
REMARK    6  A    between atoms: C_8  and  C_11
REMARK    7  A    between atoms: C_9  and  O_10
REMARK    8  A    between atoms: C_11  and  O_13
REMARK                            x       y       z     vdW  Elec       q    Type
REMARK                         _______ _______ _______ _____ _____    ______ ____
ROOT
ATOM      1  C   UNL     1       2.965   4.329  20.284  0.00  0.00    +0.000 C 
ATOM      2  C   UNL     1       1.591   4.932  20.158  0.00  0.00    +0.000 C 
ATOM      3  C   UNL     1       2.526   4.984  18.953  0.00  0.00    +0.000 C 
ENDROOT
BRANCH   3   4
ATOM      4  C   UNL     1       2.154   4.098  17.781  0.00  0.00    +0.000 C 
ATOM      5  O   UNL     1       0.991   3.830  17.516  0.00  0.00    +0.000 OA
BRANCH   4   6
ATOM      6  O   UNL     1       3.192   3.608  17.067  0.00  0.00    +0.000 OA
ATOM      7  H   UNL     1       2.895   3.165  16.235  0.00  0.00    +0.000 HD
ENDBRANCH   4   6
ENDBRANCH   3   4
BRANCH   1   8
ATOM      8  CA  UNL     1       3.093   2.842  20.498  0.00  0.00    +0.000 C 
BRANCH   8   9
ATOM      9  N   UNL     1       2.643   2.517  21.884  0.00  0.00    +0.000 NA
ATOM     10  H1  UNL     1       2.604   3.395  22.407  0.00  0.00    +0.000 HD
ATOM     11  H2  UNL     1       3.374   1.966  22.343  0.00  0.00    +0.000 HD
ENDBRANCH   8   9
BRANCH   8  12
ATOM     12  C   UNL     1       4.540   2.322  20.357  0.00  0.00    +0.000 C 
ATOM     13  O   UNL     1       5.120   1.628  21.170  0.00  0.00    +0.000 OA
BRANCH  12  14
ATOM     14  OXT UNL     1       5.096   2.751  19.189  0.00  0.00    +0.000 OA
ATOM     15  HXT UNL     1       6.074   2.625  19.284  0.00  0.00    +0.000 HD
ENDBRANCH  12  14
ENDBRANCH   8  12
ENDBRANCH   1   8
BRANCH   3  16
ATOM     16  C   UNL     1       3.024   6.382  18.646  0.00  0.00    +0.000 C 
BRANCH  16  17
ATOM     17  O   UNL     1       3.952   6.338  17.565  0.00  0.00    +0.000 OA
ATOM     18  H   UNL     1       3.690   7.037  16.935  0.00  0.00    +0.000 HD
ENDBRANCH  16  17
ENDBRANCH   3  16
TORSDOF 8
ENDMDL
MODEL 6
REMARK VINA RESULT:      -5.2      2.026      4.582
REMARK  Name = 
REMARK  8 active torsions:
REMARK  status: ('A' for Active; 'I' for Inactive)
REMARK    1  A    between atoms: N_1  and  CA_2
REMARK    2  A    between atoms: CA_2  and  C_3
REMARK    3  A    between atoms: CA_2  and  C_6
REMARK    4  A    between atoms: C_3  and  OXT_5
REMARK    5  A    between atoms: C_8  and  C_9
REMARK    6  A    between atoms: C_8  and  C_11
REMARK    7  A    between atoms: C_9  and  O_10
REMARK    8  A    between atoms: C_11  and  O_13
REMARK                            x       y       z     vdW  Elec       q    Type
REMARK                         _______ _______ _______ _____ _____    ______ ____
ROOT
ATOM      1  C   UNL     1       4.782   5.089  17.675  0.00  0.00    +0.000 C 
ATOM      2  C   UNL     1       4.603   5.150  19.169  0.00  0.00    +0.000 C 
ATOM      3  C   UNL     1       3.723   4.196  18.366  0.00  0.00    +0.000 C 
ENDROOT
BRANCH   3   4
ATOM      4  C   UNL     1       4.004   2.718  18.543  0.00  0.00    +0.000 C 
ATOM      5  O   UNL     1       3.452   1.868  17.861  0.00  0.00    +0.000 OA
BRANCH   4   6
ATOM      6  O   UNL     1       4.885   2.404  19.519  0.00  0.00    +0.000 OA
ATOM      7  H   UNL     1       5.584   1.781  19.204  0.00  0.00    +0.000 HD
ENDBRANCH   4   6
ENDBRANCH   3   4
BRANCH   1   8
ATOM      8  CA  UNL     1       6.088   4.581  17.116  0.00  0.00    +0.000 C 
BRANCH   8   9
ATOM      9  N   UNL     1       7.032   4.343  18.247  0.00  0.00    +0.000 NA
ATOM     10  H1  UNL     1       6.971   3.352  18.493  0.00  0.00    +0.000 HD
ATOM     11  H2  UNL     1       6.687   4.843  19.071  0.00  0.00    +0.000 HD
ENDBRANCH   8   9
BRANCH   8  12
ATOM     12  C   UNL     1       6.773   5.575  16.153  0.00  0.00    +0.000 C 
ATOM     13  O   UNL     1       7.538   5.271  15.258  0.00  0.00    +0.000 OA
BRANCH  12  14
ATOM     14  OXT UNL     1       6.409   6.856  16.442  0.00  0.00    +0.000 OA
ATOM     15  HXT UNL     1       6.261   6.888  17.421  0.00  0.00    +0.000 HD
ENDBRANCH  12  14
ENDBRANCH   8  12
ENDBRANCH   1   8
BRANCH   3  16
ATOM     16  C   UNL     1       2.273   4.634  18.306  0.00  0.00    +0.000 C 
BRANCH  16  17
ATOM     17  O   UNL     1       1.549   3.785  17.418  0.00  0.00    +0.000 OA
ATOM     18  H   UNL     1       2.134   3.033  17.202  0.00  0.00    +0.000 HD
ENDBRANCH  16  17
ENDBRANCH   3  16
TORSDOF 8
ENDMDL
MODEL 7
REMARK VINA RESULT:      -5.1      2.379      3.129
REMARK  Name = 
REMARK  8 active torsions:
REMARK  status: ('A' for Active; 'I' for Inactive)
REMARK    1  A    between atoms: N_1  and  CA_2
REMARK    2  A    between atoms: CA_2  and  C_3
REMARK    3  A    between atoms: CA_2  and  C_6
REMARK    4  A    between atoms: C_3  and  OXT_5
REMARK    5  A    between atoms: C_8  and  C_9
REMARK    6  A    between atoms: C_8  and  C_11
REMARK    7  A    between atoms: C_9  and  O_10
REMARK    8  A    between atoms: C_11  and  O_13
REMARK                            x       y       z     vdW  Elec       q    Type
REMARK                         _______ _______ _______ _____ _____    ______ ____
ROOT
ATOM      1  C   UNL     1       2.425   3.953  18.883  0.00  0.00    +0.000 C 
ATOM      2  C   UNL     1       2.461   3.951  17.377  0.00  0.00    +0.000 C 
ATOM      3  C   UNL     1       3.572   4.674  18.135  0.00  0.00    +0.000 C 
ENDROOT
BRANCH   3   4
ATOM      4  C   UNL     1       4.943   4.029  18.086  0.00  0.00    +0.000 C 
ATOM      5  O   UNL     1       5.765   4.190  18.976  0.00  0.00    +0.000 OA
BRANCH   4   6
ATOM      6  O   UNL     1       5.201   3.289  16.985  0.00  0.00    +0.000 OA
ATOM      7  H   UNL     1       6.058   3.540  16.560  0.00  0.00    +0.000 HD
ENDBRANCH   4   6
ENDBRANCH   3   4
BRANCH   1   8
ATOM      8  CA  UNL     1       2.579   2.646  19.618  0.00  0.00    +0.000 C 
BRANCH   8   9
ATOM      9  N   UNL     1       1.825   1.590  18.882  0.00  0.00    +0.000 NA
ATOM     10  H1  UNL     1       0.828   1.759  19.038  0.00  0.00    +0.000 HD
ATOM     11  H2  UNL     1       2.013   0.686  19.325  0.00  0.00    +0.000 HD
ENDBRANCH   8   9
BRANCH   8  12
ATOM     12  C   UNL     1       2.024   2.681  21.058  0.00  0.00    +0.000 C 
ATOM     13  O   UNL     1       2.680   2.516  22.069  0.00  0.00    +0.000 OA
BRANCH  12  14
ATOM     14  OXT UNL     1       0.681   2.917  21.053  0.00  0.00    +0.000 OA
ATOM     15  HXT UNL     1       0.522   3.622  21.731  0.00  0.00    +0.000 HD
ENDBRANCH  12  14
ENDBRANCH   8  12
ENDBRANCH   1   8
BRANCH   3  16
ATOM     16  C   UNL     1       3.500   6.182  18.000  0.00  0.00    +0.000 C 
BRANCH  16  17
ATOM     17  O   UNL     1       4.754   6.687  17.548  0.00  0.00    +0.000 OA
ATOM     18  H   UNL     1       5.318   5.914  17.351  0.00  0.00    +0.000 HD
ENDBRANCH  16  17
ENDBRANCH   3  16
TORSDOF 8
ENDMDL
MODEL 8
REMARK VINA RESULT:      -5.1      2.541      3.387
REMARK  Name = 
REMARK  8 active torsions:
REMARK  status: ('A' for Active; 'I' for Inactive)
REMARK    1  A    between atoms: N_1  and  CA_2
REMARK    2  A    between atoms: CA_2  and  C_3
REMARK    3  A    between atoms: CA_2  and  C_6
REMARK    4  A    between atoms: C_3  and  OXT_5
REMARK    5  A    between atoms: C_8  and  C_9
REMARK    6  A    between atoms: C_8  and  C_11
REMARK    7  A    between atoms: C_9  and  O_10
REMARK    8  A    between atoms: C_11  and  O_13
REMARK                            x       y       z     vdW  Elec       q    Type
REMARK                         _______ _______ _______ _____ _____    ______ ____
ROOT
ATOM      1  C   UNL     1       2.047   4.428  18.923  0.00  0.00    +0.000 C 
ATOM      2  C   UNL     1       2.102   4.013  17.477  0.00  0.00    +0.000 C 
ATOM      3  C   UNL     1       3.366   4.568  18.126  0.00  0.00    +0.000 C 
ENDROOT
BRANCH   3   4
ATOM      4  C   UNL     1       4.485   3.576  18.368  0.00  0.00    +0.000 C 
ATOM      5  O   UNL     1       5.297   3.723  19.270  0.00  0.00    +0.000 OA
BRANCH   4   6
ATOM      6  O   UNL     1       4.538   2.535  17.507  0.00  0.00    +0.000 OA
ATOM      7  H   UNL     1       4.574   2.832  16.565  0.00  0.00    +0.000 HD
ENDBRANCH   4   6
ENDBRANCH   3   4
BRANCH   1   8
ATOM      8  CA  UNL     1       1.798   3.378  19.976  0.00  0.00    +0.000 C 
BRANCH   8   9
ATOM      9  N   UNL     1       0.336   3.079  20.018  0.00  0.00    +0.000 NA
ATOM     10  H1  UNL     1       0.216   2.208  20.542  0.00  0.00    +0.000 HD
ATOM     11  H2  UNL     1       0.020   2.862  19.068  0.00  0.00    +0.000 HD
ENDBRANCH   8   9
BRANCH   8  12
ATOM     12  C   UNL     1       2.213   3.819  21.396  0.00  0.00    +0.000 C 
ATOM     13  O   UNL     1       2.318   3.083  22.358  0.00  0.00    +0.000 OA
BRANCH  12  14
ATOM     14  OXT UNL     1       2.444   5.162  21.436  0.00  0.00    +0.000 OA
ATOM     15  HXT UNL     1       3.152   5.301  22.115  0.00  0.00    +0.000 HD
ENDBRANCH  12  14
ENDBRANCH   8  12
ENDBRANCH   1   8
BRANCH   3  16
ATOM     16  C   UNL     1       3.745   5.942  17.609  0.00  0.00    +0.000 C 
BRANCH  16  17
ATOM     17  O   UNL     1       5.110   6.214  17.916  0.00  0.00    +0.000 OA
ATOM     18  H   UNL     1       5.498   5.383  18.253  0.00  0.00    +0.000 HD
ENDBRANCH  16  17
ENDBRANCH   3  16
TORSDOF 8
ENDMDL
MODEL 9
REMARK VINA RESULT:      -5.1      2.074      2.701
REMARK  Name = 
REMARK  8 active torsions:
REMARK  status: ('A' for Active; 'I' for Inactive)
REMARK    1  A    between atoms: N_1  and  CA_2
REMARK    2  A    between atoms: CA_2  and  C_3
REMARK    3  A    between atoms: CA_2  and  C_6
REMARK    4  A    between atoms: C_3  and  OXT_5
REMARK    5  A    between atoms: C_8  and  C_9
REMARK    6  A    between atoms: C_8  and  C_11
REMARK    7  A    between atoms: C_9  and  O_10
REMARK    8  A    between atoms: C_11  and  O_13
REMARK                            x       y       z     vdW  Elec       q    Type
REMARK                         _______ _______ _______ _____ _____    ______ ____
ROOT
ATOM      1  C   UNL     1       3.594   4.509  18.076  0.00  0.00    +0.000 C 
ATOM      2  C   UNL     1       3.822   5.880  17.497  0.00  0.00    +0.000 C 
ATOM      3  C   UNL     1       4.983   4.890  17.511  0.00  0.00    +0.000 C 
ENDROOT
BRANCH   3   4
ATOM      4  C   UNL     1       5.410   4.341  16.165  0.00  0.00    +0.000 C 
ATOM      5  O   UNL     1       5.369   5.018  15.148  0.00  0.00    +0.000 OA
BRANCH   4   6
ATOM      6  O   UNL     1       5.814   3.051  16.161  0.00  0.00    +0.000 OA
ATOM      7  H   UNL     1       5.457   2.547  16.933  0.00  0.00    +0.000 HD
ENDBRANCH   4   6
ENDBRANCH   3   4
BRANCH   1   8
ATOM      8  CA  UNL     1       2.624   3.579  17.390  0.00  0.00    +0.000 C 
BRANCH   8   9
ATOM      9  N   UNL     1       1.237   4.077  17.624  0.00  0.00    +0.000 NA
ATOM     10  H1  UNL     1       1.144   4.969  17.130  0.00  0.00    +0.000 HD
ATOM     11  H2  UNL     1       1.137   4.313  18.616  0.00  0.00    +0.000 HD
ENDBRANCH   8   9
BRANCH   8  12
ATOM     12  C   UNL     1       2.682   2.130  17.920  0.00  0.00    +0.000 C 
ATOM     13  O   UNL     1       3.671   1.421  17.923  0.00  0.00    +0.000 OA
BRANCH  12  14
ATOM     14  OXT UNL     1       1.463   1.738  18.388  0.00  0.00    +0.000 OA
ATOM     15  HXT UNL     1       1.291   0.844  17.997  0.00  0.00    +0.000 HD
ENDBRANCH  12  14
ENDBRANCH   8  12
ENDBRANCH   1   8
BRANCH   3  16
ATOM     16  C   UNL     1       6.074   5.267  18.494  0.00  0.00    +0.000 C 
BRANCH  16  17
ATOM     17  O   UNL     1       7.114   4.293  18.458  0.00  0.00    +0.000 OA
ATOM     18  H   UNL     1       7.903   4.731  18.086  0.00  0.00    +0.000 HD
ENDBRANCH  16  17
ENDBRANCH   3  16
TORSDOF 8
ENDMDL
