MODEL 1
REMARK VINA RESULT:      -8.7      0.000      0.000
REMARK  Name = 
REMARK  11 active torsions:
REMARK  status: ('A' for Active; 'I' for Inactive)
REMARK    1  A    between atoms: C_1  and  C_2
REMARK    2  A    between atoms: C_2  and  C_3
REMARK    3  A    between atoms: C_4  and  C_5
REMARK    4  A    between atoms: N_7  and  C_8
REMARK    5  A    between atoms: C_11  and  C_12
REMARK    6  A    between atoms: C_12  and  N_13
REMARK    7  A    between atoms: C_15  and  C_16
REMARK    8  A    between atoms: C_17  and  C_18
REMARK    9  A    between atoms: C_18  and  C_19
REMARK   10  A    between atoms: C_19  and  O_21
REMARK   11  A    between atoms: C_22  and  C_23
REMARK                            x       y       z     vdW  Elec       q    Type
REMARK                         _______ _______ _______ _____ _____    ______ ____
ROOT
ATOM      1  C   UNL     1       1.248   9.643  18.935  0.00  0.00    +0.000 A 
ATOM      2  C   UNL     1       0.240   9.350  19.853  0.00  0.00    +0.000 A 
ATOM      3  C   UNL     1      -0.623  10.344  20.323  0.00  0.00    +0.000 A 
ATOM      4  C   UNL     1      -0.497  11.665  19.883  0.00  0.00    +0.000 A 
ATOM      5  C   UNL     1       0.565  11.979  19.022  0.00  0.00    +0.000 A 
ATOM      6  C   UNL     1       1.432  10.977  18.553  0.00  0.00    +0.000 A 
ENDROOT
BRANCH   1   9
ATOM      7  C   UNL     1       2.484   7.478  19.021  0.00  0.00    +0.000 C 
ATOM      8  O   UNL     1       2.122   7.138  20.146  0.00  0.00    +0.000 OA
ATOM      9  N   UNL     1       2.078   8.643  18.379  0.00  0.00    +0.000 N 
ATOM     10  H   UNL     1       2.286   8.697  17.388  0.00  0.00    +0.000 HD
BRANCH   7  12
ATOM     11  C   UNL     1       3.101   5.342  17.695  0.00  0.00    +0.000 A 
ATOM     12  C   UNL     1       3.327   6.614  18.212  0.00  0.00    +0.000 A 
ATOM     13  O   UNL     1       4.591   7.035  17.900  0.00  0.00    +0.000 OA
ATOM     14  C   UNL     1       5.185   6.033  17.193  0.00  0.00    +0.000 A 
ATOM     15  C   UNL     1       6.496   6.014  16.729  0.00  0.00    +0.000 A 
ATOM     16  F   UNL     1       7.356   7.003  16.998  0.00  0.00    +0.000 F 
ATOM     17  C   UNL     1       6.900   4.916  15.969  0.00  0.00    +0.000 A 
ATOM     18  C   UNL     1       6.008   3.880  15.687  0.00  0.00    +0.000 A 
ATOM     19  C   UNL     1       4.700   3.900  16.193  0.00  0.00    +0.000 A 
ATOM     20  C   UNL     1       4.287   4.994  16.980  0.00  0.00    +0.000 A 
BRANCH  11  22
ATOM     21  C   UNL     1       1.855   3.737  19.163  0.00  0.00    +0.000 C 
ATOM     22  C   UNL     1       1.876   4.497  17.844  0.00  0.00    +0.000 C 
ENDBRANCH  11  22
ENDBRANCH   7  12
ENDBRANCH   1   9
BRANCH   4  23
ATOM     23  C   UNL     1      -1.531  12.701  20.256  0.00  0.00    +0.000 C 
BRANCH  23  24
ATOM     24  N   UNL     1      -2.850  12.467  19.675  0.00  0.00    +0.000 N 
ATOM     25  N   UNL     1      -2.914  11.920  18.442  0.00  0.00    +0.000 NA
ATOM     26  C   UNL     1      -4.215  11.748  18.209  0.00  0.00    +0.000 A 
ATOM     27  C   UNL     1      -4.676  11.175  16.918  0.00  0.00    +0.000 C 
ATOM     28  C   UNL     1      -5.004  12.116  19.330  0.00  0.00    +0.000 A 
ATOM     29  C   UNL     1      -4.086  12.537  20.284  0.00  0.00    +0.000 A 
ATOM     30  C   UNL     1      -4.307  13.001  21.680  0.00  0.00    +0.000 C 
BRANCH  28  31
ATOM     31  C   UNL     1      -6.495  12.024  19.434  0.00  0.00    +0.000 C 
BRANCH  31  32
ATOM     32  C   UNL     1      -7.043  10.690  19.897  0.00  0.00    +0.000 C 
ATOM     33  O   UNL     1      -7.237  10.444  21.085  0.00  0.00    +0.000 OA
BRANCH  32  34
ATOM     34  O   UNL     1      -7.327   9.773  18.947  0.00  0.00    +0.000 OA
ATOM     35  H   UNL     1      -7.879   9.025  19.250  0.00  0.00    +0.000 HD
ENDBRANCH  32  34
ENDBRANCH  31  32
ENDBRANCH  28  31
ENDBRANCH  23  24
ENDBRANCH   4  23
TORSDOF 8
ENDMDL
MODEL 2
REMARK VINA RESULT:      -8.4      4.424     10.874
REMARK  Name = 
REMARK  11 active torsions:
REMARK  status: ('A' for Active; 'I' for Inactive)
REMARK    1  A    between atoms: C_1  and  C_2
REMARK    2  A    between atoms: C_2  and  C_3
REMARK    3  A    between atoms: C_4  and  C_5
REMARK    4  A    between atoms: N_7  and  C_8
REMARK    5  A    between atoms: C_11  and  C_12
REMARK    6  A    between atoms: C_12  and  N_13
REMARK    7  A    between atoms: C_15  and  C_16
REMARK    8  A    between atoms: C_17  and  C_18
REMARK    9  A    between atoms: C_18  and  C_19
REMARK   10  A    between atoms: C_19  and  O_21
REMARK   11  A    between atoms: C_22  and  C_23
REMARK                            x       y       z     vdW  Elec       q    Type
REMARK                         _______ _______ _______ _____ _____    ______ ____
ROOT
ATOM      1  C   UNL     1       0.634   9.698  20.085  0.00  0.00    +0.000 A 
ATOM      2  C   UNL     1       1.182   8.587  20.727  0.00  0.00    +0.000 A 
ATOM      3  C   UNL     1       1.996   7.682  20.041  0.00  0.00    +0.000 A 
ATOM      4  C   UNL     1       2.283   7.866  18.685  0.00  0.00    +0.000 A 
ATOM      5  C   UNL     1       1.670   8.936  18.017  0.00  0.00    +0.000 A 
ATOM      6  C   UNL     1       0.850   9.844  18.710  0.00  0.00    +0.000 A 
ENDROOT
BRANCH   1   9
ATOM      7  C   UNL     1      -0.176  10.829  22.156  0.00  0.00    +0.000 C 
ATOM      8  O   UNL     1       0.477  10.167  22.960  0.00  0.00    +0.000 OA
ATOM      9  N   UNL     1      -0.121  10.673  20.775  0.00  0.00    +0.000 N 
ATOM     10  H   UNL     1      -0.549  11.413  20.229  0.00  0.00    +0.000 HD
BRANCH   7  12
ATOM     11  C   UNL     1      -0.838  13.302  22.541  0.00  0.00    +0.000 A 
ATOM     12  C   UNL     1      -1.022  11.924  22.599  0.00  0.00    +0.000 A 
ATOM     13  O   UNL     1      -2.198  11.629  23.233  0.00  0.00    +0.000 OA
ATOM     14  C   UNL     1      -2.768  12.813  23.593  0.00  0.00    +0.000 A 
ATOM     15  C   UNL     1      -3.945  12.978  24.315  0.00  0.00    +0.000 A 
ATOM     16  F   UNL     1      -4.631  11.936  24.798  0.00  0.00    +0.000 F 
ATOM     17  C   UNL     1      -4.397  14.280  24.533  0.00  0.00    +0.000 A 
ATOM     18  C   UNL     1      -3.685  15.372  24.034  0.00  0.00    +0.000 A 
ATOM     19  C   UNL     1      -2.481  15.188  23.338  0.00  0.00    +0.000 A 
ATOM     20  C   UNL     1      -2.004  13.878  23.130  0.00  0.00    +0.000 A 
BRANCH  11  22
ATOM     21  C   UNL     1       0.172  14.333  20.491  0.00  0.00    +0.000 C 
ATOM     22  C   UNL     1       0.331  14.047  21.978  0.00  0.00    +0.000 C 
ENDBRANCH  11  22
ENDBRANCH   7  12
ENDBRANCH   1   9
BRANCH   4  23
ATOM     23  C   UNL     1       3.296   6.989  17.989  0.00  0.00    +0.000 C 
BRANCH  23  24
ATOM     24  N   UNL     1       3.238   5.582  18.376  0.00  0.00    +0.000 N 
ATOM     25  N   UNL     1       2.094   4.905  18.145  0.00  0.00    +0.000 NA
ATOM     26  C   UNL     1       2.354   3.651  18.515  0.00  0.00    +0.000 A 
ATOM     27  C   UNL     1       1.302   2.607  18.417  0.00  0.00    +0.000 C 
ATOM     28  C   UNL     1       3.704   3.492  18.920  0.00  0.00    +0.000 A 
ATOM     29  C   UNL     1       4.267   4.754  18.777  0.00  0.00    +0.000 A 
ATOM     30  C   UNL     1       5.665   5.207  19.007  0.00  0.00    +0.000 C 
BRANCH  28  31
ATOM     31  C   UNL     1       4.353   2.218  19.366  0.00  0.00    +0.000 C 
BRANCH  31  32
ATOM     32  C   UNL     1       4.404   1.993  20.863  0.00  0.00    +0.000 C 
ATOM     33  O   UNL     1       5.370   1.463  21.408  0.00  0.00    +0.000 OA
BRANCH  32  34
ATOM     34  O   UNL     1       3.345   2.412  21.590  0.00  0.00    +0.000 OA
ATOM     35  H   UNL     1       2.487   2.027  21.323  0.00  0.00    +0.000 HD
ENDBRANCH  32  34
ENDBRANCH  31  32
ENDBRANCH  28  31
ENDBRANCH  23  24
ENDBRANCH   4  23
TORSDOF 8
ENDMDL
MODEL 3
REMARK VINA RESULT:      -8.4      2.034      3.282
REMARK  Name = 
REMARK  11 active torsions:
REMARK  status: ('A' for Active; 'I' for Inactive)
REMARK    1  A    between atoms: C_1  and  C_2
REMARK    2  A    between atoms: C_2  and  C_3
REMARK    3  A    between atoms: C_4  and  C_5
REMARK    4  A    between atoms: N_7  and  C_8
REMARK    5  A    between atoms: C_11  and  C_12
REMARK    6  A    between atoms: C_12  and  N_13
REMARK    7  A    between atoms: C_15  and  C_16
REMARK    8  A    between atoms: C_17  and  C_18
REMARK    9  A    between atoms: C_18  and  C_19
REMARK   10  A    between atoms: C_19  and  O_21
REMARK   11  A    between atoms: C_22  and  C_23
REMARK                            x       y       z     vdW  Elec       q    Type
REMARK                         _______ _______ _______ _____ _____    ______ ____
ROOT
ATOM      1  C   UNL     1       0.287   9.662  19.806  0.00  0.00    +0.000 A 
ATOM      2  C   UNL     1       0.045  10.379  20.978  0.00  0.00    +0.000 A 
ATOM      3  C   UNL     1      -0.758  11.523  20.974  0.00  0.00    +0.000 A 
ATOM      4  C   UNL     1      -1.343  11.980  19.789  0.00  0.00    +0.000 A 
ATOM      5  C   UNL     1      -1.038  11.308  18.596  0.00  0.00    +0.000 A 
ATOM      6  C   UNL     1      -0.228  10.159  18.604  0.00  0.00    +0.000 A 
ENDROOT
BRANCH   1   9
ATOM      7  C   UNL     1       2.024   8.123  18.890  0.00  0.00    +0.000 C 
ATOM      8  O   UNL     1       2.438   8.868  18.004  0.00  0.00    +0.000 OA
ATOM      9  N   UNL     1       1.024   8.456  19.798  0.00  0.00    +0.000 N 
ATOM     10  H   UNL     1       0.926   7.836  20.594  0.00  0.00    +0.000 HD
BRANCH   7  12
ATOM     11  C   UNL     1       3.775   6.241  18.583  0.00  0.00    +0.000 A 
ATOM     12  C   UNL     1       2.630   6.823  19.119  0.00  0.00    +0.000 A 
ATOM     13  O   UNL     1       2.003   5.946  19.961  0.00  0.00    +0.000 OA
ATOM     14  C   UNL     1       2.734   4.796  19.961  0.00  0.00    +0.000 A 
ATOM     15  C   UNL     1       2.423   3.619  20.633  0.00  0.00    +0.000 A 
ATOM     16  F   UNL     1       1.290   3.481  21.331  0.00  0.00    +0.000 F 
ATOM     17  C   UNL     1       3.335   2.565  20.555  0.00  0.00    +0.000 A 
ATOM     18  C   UNL     1       4.518   2.703  19.827  0.00  0.00    +0.000 A 
ATOM     19  C   UNL     1       4.797   3.885  19.127  0.00  0.00    +0.000 A 
ATOM     20  C   UNL     1       3.874   4.948  19.181  0.00  0.00    +0.000 A 
BRANCH  11  22
ATOM     21  C   UNL     1       4.839   5.984  16.328  0.00  0.00    +0.000 C 
ATOM     22  C   UNL     1       4.723   6.832  17.588  0.00  0.00    +0.000 C 
ENDBRANCH  11  22
ENDBRANCH   7  12
ENDBRANCH   1   9
BRANCH   4  23
ATOM     23  C   UNL     1      -2.345  13.109  19.814  0.00  0.00    +0.000 C 
BRANCH  23  24
ATOM     24  N   UNL     1      -3.697  12.703  20.185  0.00  0.00    +0.000 N 
ATOM     25  N   UNL     1      -4.150  13.045  21.410  0.00  0.00    +0.000 NA
ATOM     26  C   UNL     1      -5.415  12.624  21.440  0.00  0.00    +0.000 A 
ATOM     27  C   UNL     1      -6.240  12.815  22.660  0.00  0.00    +0.000 C 
ATOM     28  C   UNL     1      -5.814  12.070  20.196  0.00  0.00    +0.000 A 
ATOM     29  C   UNL     1      -4.691  12.175  19.386  0.00  0.00    +0.000 A 
ATOM     30  C   UNL     1      -4.507  11.803  17.957  0.00  0.00    +0.000 C 
BRANCH  28  31
ATOM     31  C   UNL     1      -7.170  11.530  19.859  0.00  0.00    +0.000 C 
BRANCH  31  32
ATOM     32  C   UNL     1      -7.404  10.073  20.201  0.00  0.00    +0.000 C 
ATOM     33  O   UNL     1      -7.525   9.690  21.362  0.00  0.00    +0.000 OA
BRANCH  32  34
ATOM     34  O   UNL     1      -7.490   9.202  19.172  0.00  0.00    +0.000 OA
ATOM     35  H   UNL     1      -7.520   8.260  19.434  0.00  0.00    +0.000 HD
ENDBRANCH  32  34
ENDBRANCH  31  32
ENDBRANCH  28  31
ENDBRANCH  23  24
ENDBRANCH   4  23
TORSDOF 8
ENDMDL
MODEL 4
REMARK VINA RESULT:      -8.4      1.763      2.406
REMARK  Name = 
REMARK  11 active torsions:
REMARK  status: ('A' for Active; 'I' for Inactive)
REMARK    1  A    between atoms: C_1  and  C_2
REMARK    2  A    between atoms: C_2  and  C_3
REMARK    3  A    between atoms: C_4  and  C_5
REMARK    4  A    between atoms: N_7  and  C_8
REMARK    5  A    between atoms: C_11  and  C_12
REMARK    6  A    between atoms: C_12  and  N_13
REMARK    7  A    between atoms: C_15  and  C_16
REMARK    8  A    between atoms: C_17  and  C_18
REMARK    9  A    between atoms: C_18  and  C_19
REMARK   10  A    between atoms: C_19  and  O_21
REMARK   11  A    between atoms: C_22  and  C_23
REMARK                            x       y       z     vdW  Elec       q    Type
REMARK                         _______ _______ _______ _____ _____    ______ ____
ROOT
ATOM      1  C   UNL     1       0.907   9.269  20.603  0.00  0.00    +0.000 A 
ATOM      2  C   UNL     1       0.908  10.651  20.418  0.00  0.00    +0.000 A 
ATOM      3  C   UNL     1       0.090  11.485  21.185  0.00  0.00    +0.000 A 
ATOM      4  C   UNL     1      -0.757  10.952  22.161  0.00  0.00    +0.000 A 
ATOM      5  C   UNL     1      -0.820   9.557  22.295  0.00  0.00    +0.000 A 
ATOM      6  C   UNL     1       0.003   8.721  21.521  0.00  0.00    +0.000 A 
ENDROOT
BRANCH   1   9
ATOM      7  C   UNL     1       1.840   8.262  18.520  0.00  0.00    +0.000 C 
ATOM      8  O   UNL     1       1.164   8.906  17.720  0.00  0.00    +0.000 OA
ATOM      9  N   UNL     1       1.785   8.412  19.901  0.00  0.00    +0.000 N 
ATOM     10  H   UNL     1       2.534   7.972  20.424  0.00  0.00    +0.000 HD
BRANCH   7  12
ATOM     11  C   UNL     1       2.804   5.942  17.894  0.00  0.00    +0.000 A 
ATOM     12  C   UNL     1       2.849   7.323  18.061  0.00  0.00    +0.000 A 
ATOM     13  O   UNL     1       4.099   7.795  17.765  0.00  0.00    +0.000 OA
ATOM     14  C   UNL     1       4.862   6.721  17.418  0.00  0.00    +0.000 A 
ATOM     15  C   UNL     1       6.216   6.737  17.101  0.00  0.00    +0.000 A 
ATOM     16  F   UNL     1       6.945   7.857  17.167  0.00  0.00    +0.000 F 
ATOM     17  C   UNL     1       6.807   5.534  16.712  0.00  0.00    +0.000 A 
ATOM     18  C   UNL     1       6.053   4.362  16.643  0.00  0.00    +0.000 A 
ATOM     19  C   UNL     1       4.697   4.358  17.001  0.00  0.00    +0.000 A 
ATOM     20  C   UNL     1       4.094   5.563  17.415  0.00  0.00    +0.000 A 
BRANCH  11  22
ATOM     21  C   UNL     1       1.770   4.312  19.494  0.00  0.00    +0.000 C 
ATOM     22  C   UNL     1       1.650   5.025  18.154  0.00  0.00    +0.000 C 
ENDBRANCH  11  22
ENDBRANCH   7  12
ENDBRANCH   1   9
BRANCH   4  23
ATOM     23  C   UNL     1      -1.510  11.861  23.103  0.00  0.00    +0.000 C 
BRANCH  23  24
ATOM     24  N   UNL     1      -2.789  12.337  22.583  0.00  0.00    +0.000 N 
ATOM     25  N   UNL     1      -2.989  12.292  21.249  0.00  0.00    +0.000 NA
ATOM     26  C   UNL     1      -4.245  12.702  21.074  0.00  0.00    +0.000 A 
ATOM     27  C   UNL     1      -4.819  12.800  19.707  0.00  0.00    +0.000 C 
ATOM     28  C   UNL     1      -4.896  12.945  22.311  0.00  0.00    +0.000 A 
ATOM     29  C   UNL     1      -3.939  12.656  23.276  0.00  0.00    +0.000 A 
ATOM     30  C   UNL     1      -4.042  12.682  24.760  0.00  0.00    +0.000 C 
BRANCH  28  31
ATOM     31  C   UNL     1      -6.316  13.383  22.496  0.00  0.00    +0.000 C 
BRANCH  31  32
ATOM     32  C   UNL     1      -7.292  12.300  22.906  0.00  0.00    +0.000 C 
ATOM     33  O   UNL     1      -7.916  12.353  23.963  0.00  0.00    +0.000 OA
BRANCH  32  34
ATOM     34  O   UNL     1      -7.468  11.269  22.051  0.00  0.00    +0.000 OA
ATOM     35  H   UNL     1      -6.701  10.667  21.971  0.00  0.00    +0.000 HD
ENDBRANCH  32  34
ENDBRANCH  31  32
ENDBRANCH  28  31
ENDBRANCH  23  24
ENDBRANCH   4  23
TORSDOF 8
ENDMDL
MODEL 5
REMARK VINA RESULT:      -8.3      3.864     10.688
REMARK  Name = 
REMARK  11 active torsions:
REMARK  status: ('A' for Active; 'I' for Inactive)
REMARK    1  A    between atoms: C_1  and  C_2
REMARK    2  A    between atoms: C_2  and  C_3
REMARK    3  A    between atoms: C_4  and  C_5
REMARK    4  A    between atoms: N_7  and  C_8
REMARK    5  A    between atoms: C_11  and  C_12
REMARK    6  A    between atoms: C_12  and  N_13
REMARK    7  A    between atoms: C_15  and  C_16
REMARK    8  A    between atoms: C_17  and  C_18
REMARK    9  A    between atoms: C_18  and  C_19
REMARK   10  A    between atoms: C_19  and  O_21
REMARK   11  A    between atoms: C_22  and  C_23
REMARK                            x       y       z     vdW  Elec       q    Type
REMARK                         _______ _______ _______ _____ _____    ______ ____
ROOT
ATOM      1  C   UNL     1       1.304   9.081  19.693  0.00  0.00    +0.000 A 
ATOM      2  C   UNL     1       1.136   8.227  20.783  0.00  0.00    +0.000 A 
ATOM      3  C   UNL     1       1.681   6.940  20.784  0.00  0.00    +0.000 A 
ATOM      4  C   UNL     1       2.411   6.473  19.687  0.00  0.00    +0.000 A 
ATOM      5  C   UNL     1       2.514   7.299  18.558  0.00  0.00    +0.000 A 
ATOM      6  C   UNL     1       1.963   8.593  18.560  0.00  0.00    +0.000 A 
ENDROOT
BRANCH   1   9
ATOM      7  C   UNL     1       0.697  11.220  20.827  0.00  0.00    +0.000 C 
ATOM      8  O   UNL     1       1.021  10.888  21.966  0.00  0.00    +0.000 OA
ATOM      9  N   UNL     1       0.837  10.416  19.701  0.00  0.00    +0.000 N 
ATOM     10  H   UNL     1       0.725  10.883  18.808  0.00  0.00    +0.000 HD
BRANCH   7  12
ATOM     11  C   UNL     1      -0.993  13.179  20.875  0.00  0.00    +0.000 A 
ATOM     12  C   UNL     1       0.208  12.558  20.548  0.00  0.00    +0.000 A 
ATOM     13  O   UNL     1       0.988  13.400  19.801  0.00  0.00    +0.000 OA
ATOM     14  C   UNL     1       0.287  14.556  19.637  0.00  0.00    +0.000 A 
ATOM     15  C   UNL     1       0.680  15.662  18.890  0.00  0.00    +0.000 A 
ATOM     16  F   UNL     1       1.814  15.669  18.179  0.00  0.00    +0.000 F 
ATOM     17  C   UNL     1      -0.155  16.780  18.894  0.00  0.00    +0.000 A 
ATOM     18  C   UNL     1      -1.340  16.778  19.632  0.00  0.00    +0.000 A 
ATOM     19  C   UNL     1      -1.737  15.642  20.351  0.00  0.00    +0.000 A 
ATOM     20  C   UNL     1      -0.912  14.499  20.337  0.00  0.00    +0.000 A 
BRANCH  11  22
ATOM     21  C   UNL     1      -1.920  12.645  23.143  0.00  0.00    +0.000 C 
ATOM     22  C   UNL     1      -2.145  12.602  21.637  0.00  0.00    +0.000 C 
ENDBRANCH  11  22
ENDBRANCH   7  12
ENDBRANCH   1   9
BRANCH   4  23
ATOM     23  C   UNL     1       3.143   5.154  19.757  0.00  0.00    +0.000 C 
BRANCH  23  24
ATOM     24  N   UNL     1       4.386   5.117  18.993  0.00  0.00    +0.000 N 
ATOM     25  N   UNL     1       5.515   5.548  19.594  0.00  0.00    +0.000 NA
ATOM     26  C   UNL     1       6.485   5.325  18.708  0.00  0.00    +0.000 A 
ATOM     27  C   UNL     1       7.889   5.699  19.022  0.00  0.00    +0.000 C 
ATOM     28  C   UNL     1       5.997   4.673  17.546  0.00  0.00    +0.000 A 
ATOM     29  C   UNL     1       4.637   4.510  17.779  0.00  0.00    +0.000 A 
ATOM     30  C   UNL     1       3.598   3.853  16.941  0.00  0.00    +0.000 C 
BRANCH  28  31
ATOM     31  C   UNL     1       6.807   4.240  16.364  0.00  0.00    +0.000 C 
BRANCH  31  32
ATOM     32  C   UNL     1       6.854   5.213  15.204  0.00  0.00    +0.000 C 
ATOM     33  O   UNL     1       7.861   5.354  14.514  0.00  0.00    +0.000 OA
BRANCH  32  34
ATOM     34  O   UNL     1       5.733   5.919  14.942  0.00  0.00    +0.000 OA
ATOM     35  H   UNL     1       5.538   6.632  15.582  0.00  0.00    +0.000 HD
ENDBRANCH  32  34
ENDBRANCH  31  32
ENDBRANCH  28  31
ENDBRANCH  23  24
ENDBRANCH   4  23
TORSDOF 8
ENDMDL
MODEL 6
REMARK VINA RESULT:      -8.3      1.304      2.173
REMARK  Name = 
REMARK  11 active torsions:
REMARK  status: ('A' for Active; 'I' for Inactive)
REMARK    1  A    between atoms: C_1  and  C_2
REMARK    2  A    between atoms: C_2  and  C_3
REMARK    3  A    between atoms: C_4  and  C_5
REMARK    4  A    between atoms: N_7  and  C_8
REMARK    5  A    between atoms: C_11  and  C_12
REMARK    6  A    between atoms: C_12  and  N_13
REMARK    7  A    between atoms: C_15  and  C_16
REMARK    8  A    between atoms: C_17  and  C_18
REMARK    9  A    between atoms: C_18  and  C_19
REMARK   10  A    between atoms: C_19  and  O_21
REMARK   11  A    between atoms: C_22  and  C_23
REMARK                            x       y       z     vdW  Elec       q    Type
REMARK                         _______ _______ _______ _____ _____    ______ ____
ROOT
ATOM      1  C   UNL     1       0.368  10.107  19.452  0.00  0.00    +0.000 A 
ATOM      2  C   UNL     1      -0.462  10.069  20.572  0.00  0.00    +0.000 A 
ATOM      3  C   UNL     1      -1.284  11.150  20.902  0.00  0.00    +0.000 A 
ATOM      4  C   UNL     1      -1.295  12.304  20.114  0.00  0.00    +0.000 A 
ATOM      5  C   UNL     1      -0.404  12.378  19.032  0.00  0.00    +0.000 A 
ATOM      6  C   UNL     1       0.423  11.290  18.705  0.00  0.00    +0.000 A 
ENDROOT
BRANCH   1   9
ATOM      7  C   UNL     1       1.770   8.093  19.900  0.00  0.00    +0.000 C 
ATOM      8  O   UNL     1       1.679   8.110  21.126  0.00  0.00    +0.000 OA
ATOM      9  N   UNL     1       1.145   8.997  19.048  0.00  0.00    +0.000 N 
ATOM     10  H   UNL     1       1.137   8.747  18.066  0.00  0.00    +0.000 HD
BRANCH   7  12
ATOM     11  C   UNL     1       2.669   5.691  19.540  0.00  0.00    +0.000 A 
ATOM     12  C   UNL     1       2.495   7.034  19.218  0.00  0.00    +0.000 A 
ATOM     13  O   UNL     1       3.188   7.342  18.079  0.00  0.00    +0.000 OA
ATOM     14  C   UNL     1       3.817   6.204  17.672  0.00  0.00    +0.000 A 
ATOM     15  C   UNL     1       4.681   6.079  16.589  0.00  0.00    +0.000 A 
ATOM     16  F   UNL     1       5.037   7.131  15.844  0.00  0.00    +0.000 F 
ATOM     17  C   UNL     1       5.180   4.808  16.299  0.00  0.00    +0.000 A 
ATOM     18  C   UNL     1       4.813   3.707  17.074  0.00  0.00    +0.000 A 
ATOM     19  C   UNL     1       3.969   3.858  18.184  0.00  0.00    +0.000 A 
ATOM     20  C   UNL     1       3.476   5.141  18.499  0.00  0.00    +0.000 A 
BRANCH  11  22
ATOM     21  C   UNL     1       0.955   4.056  20.360  0.00  0.00    +0.000 C 
ATOM     22  C   UNL     1       2.127   4.956  20.725  0.00  0.00    +0.000 C 
ENDBRANCH  11  22
ENDBRANCH   7  12
ENDBRANCH   1   9
BRANCH   4  23
ATOM     23  C   UNL     1      -2.304  13.399  20.369  0.00  0.00    +0.000 C 
BRANCH  23  24
ATOM     24  N   UNL     1      -3.667  12.920  20.579  0.00  0.00    +0.000 N 
ATOM     25  N   UNL     1      -4.281  13.236  21.739  0.00  0.00    +0.000 NA
ATOM     26  C   UNL     1      -5.515  12.748  21.620  0.00  0.00    +0.000 A 
ATOM     27  C   UNL     1      -6.490  12.895  22.733  0.00  0.00    +0.000 C 
ATOM     28  C   UNL     1      -5.734  12.175  20.341  0.00  0.00    +0.000 A 
ATOM     29  C   UNL     1      -4.529  12.341  19.670  0.00  0.00    +0.000 A 
ATOM     30  C   UNL     1      -4.157  11.980  18.275  0.00  0.00    +0.000 C 
BRANCH  28  31
ATOM     31  C   UNL     1      -7.009  11.564  19.848  0.00  0.00    +0.000 C 
BRANCH  31  32
ATOM     32  C   UNL     1      -7.183  10.085  20.125  0.00  0.00    +0.000 C 
ATOM     33  O   UNL     1      -6.962   9.233  19.268  0.00  0.00    +0.000 OA
BRANCH  32  34
ATOM     34  O   UNL     1      -7.580   9.730  21.367  0.00  0.00    +0.000 OA
ATOM     35  H   UNL     1      -7.681  10.473  21.994  0.00  0.00    +0.000 HD
ENDBRANCH  32  34
ENDBRANCH  31  32
ENDBRANCH  28  31
ENDBRANCH  23  24
ENDBRANCH   4  23
TORSDOF 8
ENDMDL
MODEL 7
REMARK VINA RESULT:      -8.3      0.658      1.144
REMARK  Name = 
REMARK  11 active torsions:
REMARK  status: ('A' for Active; 'I' for Inactive)
REMARK    1  A    between atoms: C_1  and  C_2
REMARK    2  A    between atoms: C_2  and  C_3
REMARK    3  A    between atoms: C_4  and  C_5
REMARK    4  A    between atoms: N_7  and  C_8
REMARK    5  A    between atoms: C_11  and  C_12
REMARK    6  A    between atoms: C_12  and  N_13
REMARK    7  A    between atoms: C_15  and  C_16
REMARK    8  A    between atoms: C_17  and  C_18
REMARK    9  A    between atoms: C_18  and  C_19
REMARK   10  A    between atoms: C_19  and  O_21
REMARK   11  A    between atoms: C_22  and  C_23
REMARK                            x       y       z     vdW  Elec       q    Type
REMARK                         _______ _______ _______ _____ _____    ______ ____
ROOT
ATOM      1  C   UNL     1       1.033   9.794  18.337  0.00  0.00    +0.000 A 
ATOM      2  C   UNL     1       1.474  11.074  18.672  0.00  0.00    +0.000 A 
ATOM      3  C   UNL     1       0.591  12.039  19.164  0.00  0.00    +0.000 A 
ATOM      4  C   UNL     1      -0.765  11.745  19.334  0.00  0.00    +0.000 A 
ATOM      5  C   UNL     1      -1.227  10.485  18.925  0.00  0.00    +0.000 A 
ATOM      6  C   UNL     1      -0.336   9.517  18.428  0.00  0.00    +0.000 A 
ENDROOT
BRANCH   1   9
ATOM      7  C   UNL     1       2.419   7.755  18.721  0.00  0.00    +0.000 C 
ATOM      8  O   UNL     1       2.106   7.574  19.897  0.00  0.00    +0.000 OA
ATOM      9  N   UNL     1       1.919   8.775  17.919  0.00  0.00    +0.000 N 
ATOM     10  H   UNL     1       2.100   8.685  16.925  0.00  0.00    +0.000 HD
BRANCH   7  12
ATOM     11  C   UNL     1       3.111   5.512  17.630  0.00  0.00    +0.000 A 
ATOM     12  C   UNL     1       3.302   6.831  18.031  0.00  0.00    +0.000 A 
ATOM     13  O   UNL     1       4.572   7.239  17.726  0.00  0.00    +0.000 OA
ATOM     14  C   UNL     1       5.204   6.184  17.141  0.00  0.00    +0.000 A 
ATOM     15  C   UNL     1       6.532   6.140  16.728  0.00  0.00    +0.000 A 
ATOM     16  F   UNL     1       7.369   7.164  16.933  0.00  0.00    +0.000 F 
ATOM     17  C   UNL     1       6.977   4.981  16.093  0.00  0.00    +0.000 A 
ATOM     18  C   UNL     1       6.109   3.910  15.879  0.00  0.00    +0.000 A 
ATOM     19  C   UNL     1       4.783   3.958  16.333  0.00  0.00    +0.000 A 
ATOM     20  C   UNL     1       4.327   5.116  16.995  0.00  0.00    +0.000 A 
BRANCH  11  22
ATOM     21  C   UNL     1       1.855   3.993  19.179  0.00  0.00    +0.000 C 
ATOM     22  C   UNL     1       1.891   4.666  17.814  0.00  0.00    +0.000 C 
ENDBRANCH  11  22
ENDBRANCH   7  12
ENDBRANCH   1   9
BRANCH   4  23
ATOM     23  C   UNL     1      -1.682  12.725  20.025  0.00  0.00    +0.000 C 
BRANCH  23  24
ATOM     24  N   UNL     1      -3.095  12.560  19.693  0.00  0.00    +0.000 N 
ATOM     25  N   UNL     1      -3.408  12.025  18.493  0.00  0.00    +0.000 NA
ATOM     26  C   UNL     1      -4.736  11.919  18.499  0.00  0.00    +0.000 A 
ATOM     27  C   UNL     1      -5.451  11.378  17.314  0.00  0.00    +0.000 C 
ATOM     28  C   UNL     1      -5.291  12.318  19.743  0.00  0.00    +0.000 A 
ATOM     29  C   UNL     1      -4.196  12.687  20.515  0.00  0.00    +0.000 A 
ATOM     30  C   UNL     1      -4.138  13.152  21.926  0.00  0.00    +0.000 C 
BRANCH  28  31
ATOM     31  C   UNL     1      -6.741  12.299  20.115  0.00  0.00    +0.000 C 
BRANCH  31  32
ATOM     32  C   UNL     1      -7.171  11.176  21.036  0.00  0.00    +0.000 C 
ATOM     33  O   UNL     1      -7.251  10.013  20.649  0.00  0.00    +0.000 OA
BRANCH  32  34
ATOM     34  O   UNL     1      -7.452  11.498  22.318  0.00  0.00    +0.000 OA
ATOM     35  H   UNL     1      -7.441  10.746  22.942  0.00  0.00    +0.000 HD
ENDBRANCH  32  34
ENDBRANCH  31  32
ENDBRANCH  28  31
ENDBRANCH  23  24
ENDBRANCH   4  23
TORSDOF 8
ENDMDL
MODEL 8
REMARK VINA RESULT:      -8.3      4.007     10.904
REMARK  Name = 
REMARK  11 active torsions:
REMARK  status: ('A' for Active; 'I' for Inactive)
REMARK    1  A    between atoms: C_1  and  C_2
REMARK    2  A    between atoms: C_2  and  C_3
REMARK    3  A    between atoms: C_4  and  C_5
REMARK    4  A    between atoms: N_7  and  C_8
REMARK    5  A    between atoms: C_11  and  C_12
REMARK    6  A    between atoms: C_12  and  N_13
REMARK    7  A    between atoms: C_15  and  C_16
REMARK    8  A    between atoms: C_17  and  C_18
REMARK    9  A    between atoms: C_18  and  C_19
REMARK   10  A    between atoms: C_19  and  O_21
REMARK   11  A    between atoms: C_22  and  C_23
REMARK                            x       y       z     vdW  Elec       q    Type
REMARK                         _______ _______ _______ _____ _____    ______ ____
ROOT
ATOM      1  C   UNL     1       1.364   9.046  19.674  0.00  0.00    +0.000 A 
ATOM      2  C   UNL     1       1.234   8.196  20.772  0.00  0.00    +0.000 A 
ATOM      3  C   UNL     1       1.754   6.899  20.750  0.00  0.00    +0.000 A 
ATOM      4  C   UNL     1       2.421   6.417  19.620  0.00  0.00    +0.000 A 
ATOM      5  C   UNL     1       2.484   7.240  18.486  0.00  0.00    +0.000 A 
ATOM      6  C   UNL     1       1.958   8.543  18.511  0.00  0.00    +0.000 A 
ENDROOT
BRANCH   1   9
ATOM      7  C   UNL     1      -0.233  10.875  19.100  0.00  0.00    +0.000 C 
ATOM      8  O   UNL     1      -1.059  10.180  18.511  0.00  0.00    +0.000 OA
ATOM      9  N   UNL     1       0.923  10.389  19.701  0.00  0.00    +0.000 N 
ATOM     10  H   UNL     1       1.402  11.031  20.322  0.00  0.00    +0.000 HD
BRANCH   7  12
ATOM     11  C   UNL     1       0.281  13.403  18.882  0.00  0.00    +0.000 A 
ATOM     12  C   UNL     1      -0.455  12.297  19.297  0.00  0.00    +0.000 A 
ATOM     13  O   UNL     1      -1.529  12.696  20.045  0.00  0.00    +0.000 OA
ATOM     14  C   UNL     1      -1.481  14.055  20.124  0.00  0.00    +0.000 A 
ATOM     15  C   UNL     1      -2.347  14.873  20.842  0.00  0.00    +0.000 A 
ATOM     16  F   UNL     1      -3.322  14.371  21.608  0.00  0.00    +0.000 F 
ATOM     17  C   UNL     1      -2.166  16.254  20.747  0.00  0.00    +0.000 A 
ATOM     18  C   UNL     1      -1.149  16.784  19.951  0.00  0.00    +0.000 A 
ATOM     19  C   UNL     1      -0.263  15.943  19.263  0.00  0.00    +0.000 A 
ATOM     20  C   UNL     1      -0.423  14.546  19.367  0.00  0.00    +0.000 A 
BRANCH  11  22
ATOM     21  C   UNL     1       2.784  13.500  18.975  0.00  0.00    +0.000 C 
ATOM     22  C   UNL     1       1.549  13.414  18.089  0.00  0.00    +0.000 C 
ENDBRANCH  11  22
ENDBRANCH   7  12
ENDBRANCH   1   9
BRANCH   4  23
ATOM     23  C   UNL     1       3.131   5.085  19.657  0.00  0.00    +0.000 C 
BRANCH  23  24
ATOM     24  N   UNL     1       4.401   5.062  18.938  0.00  0.00    +0.000 N 
ATOM     25  N   UNL     1       5.480   5.611  19.535  0.00  0.00    +0.000 NA
ATOM     26  C   UNL     1       6.492   5.376  18.700  0.00  0.00    +0.000 A 
ATOM     27  C   UNL     1       7.859   5.860  19.025  0.00  0.00    +0.000 C 
ATOM     28  C   UNL     1       6.085   4.600  17.584  0.00  0.00    +0.000 A 
ATOM     29  C   UNL     1       4.730   4.373  17.788  0.00  0.00    +0.000 A 
ATOM     30  C   UNL     1       3.762   3.585  16.978  0.00  0.00    +0.000 C 
BRANCH  28  31
ATOM     31  C   UNL     1       6.962   4.122  16.468  0.00  0.00    +0.000 C 
BRANCH  31  32
ATOM     32  C   UNL     1       6.821   4.862  15.155  0.00  0.00    +0.000 C 
ATOM     33  O   UNL     1       5.830   4.732  14.439  0.00  0.00    +0.000 OA
BRANCH  32  34
ATOM     34  O   UNL     1       7.826   5.691  14.800  0.00  0.00    +0.000 OA
ATOM     35  H   UNL     1       8.252   6.162  15.544  0.00  0.00    +0.000 HD
ENDBRANCH  32  34
ENDBRANCH  31  32
ENDBRANCH  28  31
ENDBRANCH  23  24
ENDBRANCH   4  23
TORSDOF 8
ENDMDL
MODEL 9
REMARK VINA RESULT:      -8.2      0.828      1.755
REMARK  Name = 
REMARK  11 active torsions:
REMARK  status: ('A' for Active; 'I' for Inactive)
REMARK    1  A    between atoms: C_1  and  C_2
REMARK    2  A    between atoms: C_2  and  C_3
REMARK    3  A    between atoms: C_4  and  C_5
REMARK    4  A    between atoms: N_7  and  C_8
REMARK    5  A    between atoms: C_11  and  C_12
REMARK    6  A    between atoms: C_12  and  N_13
REMARK    7  A    between atoms: C_15  and  C_16
REMARK    8  A    between atoms: C_17  and  C_18
REMARK    9  A    between atoms: C_18  and  C_19
REMARK   10  A    between atoms: C_19  and  O_21
REMARK   11  A    between atoms: C_22  and  C_23
REMARK                            x       y       z     vdW  Elec       q    Type
REMARK                         _______ _______ _______ _____ _____    ______ ____
ROOT
ATOM      1  C   UNL     1       0.735   9.928  18.468  0.00  0.00    +0.000 A 
ATOM      2  C   UNL     1      -0.638   9.692  18.546  0.00  0.00    +0.000 A 
ATOM      3  C   UNL     1      -1.531  10.716  18.875  0.00  0.00    +0.000 A 
ATOM      4  C   UNL     1      -1.069  12.009  19.136  0.00  0.00    +0.000 A 
ATOM      5  C   UNL     1       0.316  12.231  19.137  0.00  0.00    +0.000 A 
ATOM      6  C   UNL     1       1.211  11.199  18.808  0.00  0.00    +0.000 A 
ENDROOT
BRANCH   1   9
ATOM      7  C   UNL     1       2.178   7.931  18.864  0.00  0.00    +0.000 C 
ATOM      8  O   UNL     1       1.867   7.746  20.039  0.00  0.00    +0.000 OA
ATOM      9  N   UNL     1       1.650   8.933  18.056  0.00  0.00    +0.000 N 
ATOM     10  H   UNL     1       1.837   8.844  17.063  0.00  0.00    +0.000 HD
BRANCH   7  12
ATOM     11  C   UNL     1       2.939   5.702  17.790  0.00  0.00    +0.000 A 
ATOM     12  C   UNL     1       3.088   7.030  18.179  0.00  0.00    +0.000 A 
ATOM     13  O   UNL     1       4.344   7.476  17.868  0.00  0.00    +0.000 OA
ATOM     14  C   UNL     1       5.008   6.436  17.290  0.00  0.00    +0.000 A 
ATOM     15  C   UNL     1       6.336   6.432  16.875  0.00  0.00    +0.000 A 
ATOM     16  F   UNL     1       7.141   7.483  17.069  0.00  0.00    +0.000 F 
ATOM     17  C   UNL     1       6.817   5.282  16.248  0.00  0.00    +0.000 A 
ATOM     18  C   UNL     1       5.982   4.181  16.046  0.00  0.00    +0.000 A 
ATOM     19  C   UNL     1       4.657   4.191  16.502  0.00  0.00    +0.000 A 
ATOM     20  C   UNL     1       4.166   5.339  17.156  0.00  0.00    +0.000 A 
BRANCH  11  22
ATOM     21  C   UNL     1       1.902   3.894  19.183  0.00  0.00    +0.000 C 
ATOM     22  C   UNL     1       1.746   4.819  17.983  0.00  0.00    +0.000 C 
ENDBRANCH  11  22
ENDBRANCH   7  12
ENDBRANCH   1   9
BRANCH   4  23
ATOM     23  C   UNL     1      -2.042  13.149  19.321  0.00  0.00    +0.000 C 
BRANCH  23  24
ATOM     24  N   UNL     1      -3.308  12.763  19.937  0.00  0.00    +0.000 N 
ATOM     25  N   UNL     1      -3.476  13.011  21.254  0.00  0.00    +0.000 NA
ATOM     26  C   UNL     1      -4.729  12.638  21.517  0.00  0.00    +0.000 A 
ATOM     27  C   UNL     1      -5.270  12.751  22.897  0.00  0.00    +0.000 C 
ATOM     28  C   UNL     1      -5.409  12.213  20.347  0.00  0.00    +0.000 A 
ATOM     29  C   UNL     1      -4.475  12.347  19.328  0.00  0.00    +0.000 A 
ATOM     30  C   UNL     1      -4.613  12.098  17.868  0.00  0.00    +0.000 C 
BRANCH  28  31
ATOM     31  C   UNL     1      -6.833  11.758  20.264  0.00  0.00    +0.000 C 
BRANCH  31  32
ATOM     32  C   UNL     1      -7.041  10.266  20.102  0.00  0.00    +0.000 C 
ATOM     33  O   UNL     1      -6.894   9.704  19.020  0.00  0.00    +0.000 OA
BRANCH  32  34
ATOM     34  O   UNL     1      -7.384   9.565  21.205  0.00  0.00    +0.000 OA
ATOM     35  H   UNL     1      -7.826   8.711  21.027  0.00  0.00    +0.000 HD
ENDBRANCH  32  34
ENDBRANCH  31  32
ENDBRANCH  28  31
ENDBRANCH  23  24
ENDBRANCH   4  23
TORSDOF 8
ENDMDL
