MODEL 1
REMARK VINA RESULT:      -7.1      0.000      0.000
REMARK  Name = 
REMARK  9 active torsions:
REMARK  status: ('A' for Active; 'I' for Inactive)
REMARK    1  A    between atoms: C_1  and  O_2
REMARK    2  A    between atoms: O_2  and  C_3
REMARK    3  A    between atoms: C_3  and  C_4
REMARK    4  A    between atoms: C_4  and  O_5
REMARK    5  A    between atoms: O_5  and  C_6
REMARK    6  A    between atoms: N_10  and  C_11
REMARK    7  A    between atoms: C_11  and  C_12
REMARK    8  A    between atoms: C_11  and  C_13
REMARK    9  A    between atoms: C_21  and  C_22
REMARK                            x       y       z     vdW  Elec       q    Type
REMARK                         _______ _______ _______ _____ _____    ______ ____
ROOT
ATOM      1  C   UNL     1       2.317   8.328  18.560  0.00  0.00    +0.000 A 
ATOM      2  C   UNL     1       2.997   7.253  18.028  0.00  0.00    +0.000 A 
ATOM      3  C   UNL     1       3.089   6.067  18.786  0.00  0.00    +0.000 A 
ATOM      4  C   UNL     1       3.914   4.976  18.453  0.00  0.00    +0.000 A 
ATOM      5  N   UNL     1       4.720   5.113  17.322  0.00  0.00    +0.000 N 
ATOM      6  N   UNL     1       3.944   3.851  19.185  0.00  0.00    +0.000 NA
ATOM      7  C   UNL     1       3.147   3.809  20.270  0.00  0.00    +0.000 A 
ATOM      8  C   UNL     1       3.026   2.518  21.020  0.00  0.00    +0.000 C 
ATOM      9  N   UNL     1       2.387   4.830  20.713  0.00  0.00    +0.000 NA
ATOM     10  C   UNL     1       2.389   5.952  19.980  0.00  0.00    +0.000 A 
ATOM     11  C   UNL     1       1.699   7.095  20.388  0.00  0.00    +0.000 A 
ATOM     12  N   UNL     1       1.658   8.284  19.728  0.00  0.00    +0.000 NA
ATOM     13  H   UNL     1       4.119   5.109  16.499  0.00  0.00    +0.000 HD
ENDROOT
BRANCH   5  14
ATOM     14  C   UNL     1       5.917   4.301  17.110  0.00  0.00    +0.000 C 
ATOM     15  C   UNL     1       7.124   4.857  17.875  0.00  0.00    +0.000 C 
BRANCH  14  16
ATOM     16  C   UNL     1       6.199   4.372  15.605  0.00  0.00    +0.000 A 
ATOM     17  C   UNL     1       7.334   5.036  15.115  0.00  0.00    +0.000 A 
ATOM     18  C   UNL     1       7.623   5.019  13.747  0.00  0.00    +0.000 A 
ATOM     19  C   UNL     1       6.782   4.342  12.868  0.00  0.00    +0.000 A 
ATOM     20  F   UNL     1       7.081   4.306  11.563  0.00  0.00    +0.000 F 
ATOM     21  C   UNL     1       5.643   3.696  13.325  0.00  0.00    +0.000 A 
ATOM     22  C   UNL     1       5.351   3.713  14.687  0.00  0.00    +0.000 A 
ENDBRANCH  14  16
ENDBRANCH   5  14
BRANCH   1  23
ATOM     23  O   UNL     1       2.324   9.495  17.829  0.00  0.00    +0.000 OA
BRANCH  23  24
ATOM     24  C   UNL     1       1.201  10.314  18.168  0.00  0.00    +0.000 C 
BRANCH  24  25
ATOM     25  C   UNL     1       1.715  11.685  18.605  0.00  0.00    +0.000 C 
BRANCH  25  27
ATOM     26  C   UNL     1       0.049  11.571  20.268  0.00  0.00    +0.000 C 
ATOM     27  O   UNL     1       1.400  11.904  19.980  0.00  0.00    +0.000 OA
ENDBRANCH  25  27
ENDBRANCH  24  25
ENDBRANCH  23  24
ENDBRANCH   1  23
TORSDOF 6
ENDMDL
MODEL 2
REMARK VINA RESULT:      -7.0      1.040      1.454
REMARK  Name = 
REMARK  9 active torsions:
REMARK  status: ('A' for Active; 'I' for Inactive)
REMARK    1  A    between atoms: C_1  and  O_2
REMARK    2  A    between atoms: O_2  and  C_3
REMARK    3  A    between atoms: C_3  and  C_4
REMARK    4  A    between atoms: C_4  and  O_5
REMARK    5  A    between atoms: O_5  and  C_6
REMARK    6  A    between atoms: N_10  and  C_11
REMARK    7  A    between atoms: C_11  and  C_12
REMARK    8  A    between atoms: C_11  and  C_13
REMARK    9  A    between atoms: C_21  and  C_22
REMARK                            x       y       z     vdW  Elec       q    Type
REMARK                         _______ _______ _______ _____ _____    ______ ____
ROOT
ATOM      1  C   UNL     1       2.066   9.096  18.513  0.00  0.00    +0.000 A 
ATOM      2  C   UNL     1       2.773   7.970  18.150  0.00  0.00    +0.000 A 
ATOM      3  C   UNL     1       2.727   6.839  18.991  0.00  0.00    +0.000 A 
ATOM      4  C   UNL     1       3.551   5.707  18.844  0.00  0.00    +0.000 A 
ATOM      5  N   UNL     1       4.500   5.743  17.822  0.00  0.00    +0.000 N 
ATOM      6  N   UNL     1       3.449   4.637  19.649  0.00  0.00    +0.000 NA
ATOM      7  C   UNL     1       2.518   4.692  20.620  0.00  0.00    +0.000 A 
ATOM      8  C   UNL     1       2.258   3.461  21.434  0.00  0.00    +0.000 C 
ATOM      9  N   UNL     1       1.741   5.760  20.889  0.00  0.00    +0.000 NA
ATOM     10  C   UNL     1       1.876   6.826  20.088  0.00  0.00    +0.000 A 
ATOM     11  C   UNL     1       1.177   8.012  20.324  0.00  0.00    +0.000 A 
ATOM     12  N   UNL     1       1.260   9.151  19.585  0.00  0.00    +0.000 NA
ATOM     13  H   UNL     1       4.011   5.696  16.930  0.00  0.00    +0.000 HD
ENDROOT
BRANCH   5  14
ATOM     14  C   UNL     1       5.687   4.890  17.824  0.00  0.00    +0.000 C 
ATOM     15  C   UNL     1       6.880   5.578  18.499  0.00  0.00    +0.000 C 
BRANCH  14  16
ATOM     16  C   UNL     1       6.018   4.644  16.347  0.00  0.00    +0.000 A 
ATOM     17  C   UNL     1       5.075   4.064  15.485  0.00  0.00    +0.000 A 
ATOM     18  C   UNL     1       5.359   3.925  14.123  0.00  0.00    +0.000 A 
ATOM     19  C   UNL     1       6.582   4.363  13.621  0.00  0.00    +0.000 A 
ATOM     20  F   UNL     1       6.836   4.253  12.311  0.00  0.00    +0.000 F 
ATOM     21  C   UNL     1       7.538   4.921  14.456  0.00  0.00    +0.000 A 
ATOM     22  C   UNL     1       7.258   5.059  15.814  0.00  0.00    +0.000 A 
ENDBRANCH  14  16
ENDBRANCH   5  14
BRANCH   1  23
ATOM     23  O   UNL     1       2.206  10.207  17.713  0.00  0.00    +0.000 OA
BRANCH  23  24
ATOM     24  C   UNL     1       1.659  11.365  18.351  0.00  0.00    +0.000 C 
BRANCH  24  25
ATOM     25  C   UNL     1       2.618  12.535  18.132  0.00  0.00    +0.000 C 
BRANCH  25  27
ATOM     26  C   UNL     1       1.883  13.007  20.322  0.00  0.00    +0.000 C 
ATOM     27  O   UNL     1       2.370  13.552  19.103  0.00  0.00    +0.000 OA
ENDBRANCH  25  27
ENDBRANCH  24  25
ENDBRANCH  23  24
ENDBRANCH   1  23
TORSDOF 6
ENDMDL
MODEL 3
REMARK VINA RESULT:      -7.0      4.572      7.873
REMARK  Name = 
REMARK  9 active torsions:
REMARK  status: ('A' for Active; 'I' for Inactive)
REMARK    1  A    between atoms: C_1  and  O_2
REMARK    2  A    between atoms: O_2  and  C_3
REMARK    3  A    between atoms: C_3  and  C_4
REMARK    4  A    between atoms: C_4  and  O_5
REMARK    5  A    between atoms: O_5  and  C_6
REMARK    6  A    between atoms: N_10  and  C_11
REMARK    7  A    between atoms: C_11  and  C_12
REMARK    8  A    between atoms: C_11  and  C_13
REMARK    9  A    between atoms: C_21  and  C_22
REMARK                            x       y       z     vdW  Elec       q    Type
REMARK                         _______ _______ _______ _____ _____    ______ ____
ROOT
ATOM      1  C   UNL     1       5.732   3.615  12.987  0.00  0.00    +0.000 A 
ATOM      2  C   UNL     1       5.169   3.609  14.245  0.00  0.00    +0.000 A 
ATOM      3  C   UNL     1       5.832   4.288  15.288  0.00  0.00    +0.000 A 
ATOM      4  C   UNL     1       5.476   4.195  16.647  0.00  0.00    +0.000 A 
ATOM      5  N   UNL     1       4.425   3.336  16.969  0.00  0.00    +0.000 N 
ATOM      6  N   UNL     1       6.115   4.887  17.604  0.00  0.00    +0.000 NA
ATOM      7  C   UNL     1       7.128   5.681  17.208  0.00  0.00    +0.000 A 
ATOM      8  C   UNL     1       7.759   6.593  18.216  0.00  0.00    +0.000 C 
ATOM      9  N   UNL     1       7.592   5.773  15.946  0.00  0.00    +0.000 NA
ATOM     10  C   UNL     1       6.955   5.056  15.010  0.00  0.00    +0.000 A 
ATOM     11  C   UNL     1       7.400   5.018  13.688  0.00  0.00    +0.000 A 
ATOM     12  N   UNL     1       6.838   4.307  12.673  0.00  0.00    +0.000 NA
ATOM     13  H   UNL     1       3.561   3.739  16.610  0.00  0.00    +0.000 HD
ENDROOT
BRANCH   5  14
ATOM     14  C   UNL     1       4.240   2.793  18.314  0.00  0.00    +0.000 C 
ATOM     15  C   UNL     1       3.468   1.469  18.292  0.00  0.00    +0.000 C 
BRANCH  14  16
ATOM     16  C   UNL     1       3.418   3.843  19.070  0.00  0.00    +0.000 A 
ATOM     17  C   UNL     1       3.152   5.097  18.500  0.00  0.00    +0.000 A 
ATOM     18  C   UNL     1       2.329   6.012  19.164  0.00  0.00    +0.000 A 
ATOM     19  C   UNL     1       1.772   5.678  20.395  0.00  0.00    +0.000 A 
ATOM     20  F   UNL     1       0.961   6.548  21.012  0.00  0.00    +0.000 F 
ATOM     21  C   UNL     1       2.036   4.453  20.989  0.00  0.00    +0.000 A 
ATOM     22  C   UNL     1       2.857   3.540  20.330  0.00  0.00    +0.000 A 
ENDBRANCH  14  16
ENDBRANCH   5  14
BRANCH   1  23
ATOM     23  O   UNL     1       5.101   2.870  12.017  0.00  0.00    +0.000 OA
BRANCH  23  24
ATOM     24  C   UNL     1       3.793   3.384  11.750  0.00  0.00    +0.000 C 
BRANCH  24  25
ATOM     25  C   UNL     1       3.648   3.579  10.241  0.00  0.00    +0.000 C 
BRANCH  25  27
ATOM     26  C   UNL     1       2.542   4.848   8.591  0.00  0.00    +0.000 C 
ATOM     27  O   UNL     1       2.830   4.718   9.977  0.00  0.00    +0.000 OA
ENDBRANCH  25  27
ENDBRANCH  24  25
ENDBRANCH  23  24
ENDBRANCH   1  23
TORSDOF 6
ENDMDL
MODEL 4
REMARK VINA RESULT:      -7.0      3.762      6.718
REMARK  Name = 
REMARK  9 active torsions:
REMARK  status: ('A' for Active; 'I' for Inactive)
REMARK    1  A    between atoms: C_1  and  O_2
REMARK    2  A    between atoms: O_2  and  C_3
REMARK    3  A    between atoms: C_3  and  C_4
REMARK    4  A    between atoms: C_4  and  O_5
REMARK    5  A    between atoms: O_5  and  C_6
REMARK    6  A    between atoms: N_10  and  C_11
REMARK    7  A    between atoms: C_11  and  C_12
REMARK    8  A    between atoms: C_11  and  C_13
REMARK    9  A    between atoms: C_21  and  C_22
REMARK                            x       y       z     vdW  Elec       q    Type
REMARK                         _______ _______ _______ _____ _____    ______ ____
ROOT
ATOM      1  C   UNL     1       6.922   6.664  16.942  0.00  0.00    +0.000 A 
ATOM      2  C   UNL     1       6.012   6.476  17.961  0.00  0.00    +0.000 A 
ATOM      3  C   UNL     1       5.245   5.293  17.976  0.00  0.00    +0.000 A 
ATOM      4  C   UNL     1       4.153   5.066  18.835  0.00  0.00    +0.000 A 
ATOM      5  N   UNL     1       3.791   6.110  19.688  0.00  0.00    +0.000 N 
ATOM      6  N   UNL     1       3.472   3.909  18.838  0.00  0.00    +0.000 NA
ATOM      7  C   UNL     1       3.878   2.962  17.972  0.00  0.00    +0.000 A 
ATOM      8  C   UNL     1       3.255   1.601  18.055  0.00  0.00    +0.000 C 
ATOM      9  N   UNL     1       4.857   3.115  17.059  0.00  0.00    +0.000 NA
ATOM     10  C   UNL     1       5.508   4.286  17.056  0.00  0.00    +0.000 A 
ATOM     11  C   UNL     1       6.486   4.579  16.103  0.00  0.00    +0.000 A 
ATOM     12  N   UNL     1       7.185   5.741  16.004  0.00  0.00    +0.000 NA
ATOM     13  H   UNL     1       4.521   6.216  20.390  0.00  0.00    +0.000 HD
ENDROOT
BRANCH   5  14
ATOM     14  C   UNL     1       2.460   6.209  20.284  0.00  0.00    +0.000 C 
ATOM     15  C   UNL     1       1.509   5.140  19.732  0.00  0.00    +0.000 C 
BRANCH  14  16
ATOM     16  C   UNL     1       1.938   7.597  19.893  0.00  0.00    +0.000 A 
ATOM     17  C   UNL     1       2.098   8.084  18.587  0.00  0.00    +0.000 A 
ATOM     18  C   UNL     1       1.541   9.314  18.223  0.00  0.00    +0.000 A 
ATOM     19  C   UNL     1       0.828  10.058  19.159  0.00  0.00    +0.000 A 
ATOM     20  F   UNL     1       0.274  11.222  18.795  0.00  0.00    +0.000 F 
ATOM     21  C   UNL     1       0.674   9.607  20.461  0.00  0.00    +0.000 A 
ATOM     22  C   UNL     1       1.229   8.383  20.827  0.00  0.00    +0.000 A 
ENDBRANCH  14  16
ENDBRANCH   5  14
BRANCH   1  23
ATOM     23  O   UNL     1       7.587   7.869  16.913  0.00  0.00    +0.000 OA
BRANCH  23  24
ATOM     24  C   UNL     1       8.302   8.084  18.133  0.00  0.00    +0.000 C 
BRANCH  24  25
ATOM     25  C   UNL     1       8.559   9.583  18.285  0.00  0.00    +0.000 C 
BRANCH  25  27
ATOM     26  C   UNL     1       9.316  11.190  19.835  0.00  0.00    +0.000 C 
ATOM     27  O   UNL     1       9.351   9.822  19.448  0.00  0.00    +0.000 OA
ENDBRANCH  25  27
ENDBRANCH  24  25
ENDBRANCH  23  24
ENDBRANCH   1  23
TORSDOF 6
ENDMDL
MODEL 5
REMARK VINA RESULT:      -6.9      3.914      7.831
REMARK  Name = 
REMARK  9 active torsions:
REMARK  status: ('A' for Active; 'I' for Inactive)
REMARK    1  A    between atoms: C_1  and  O_2
REMARK    2  A    between atoms: O_2  and  C_3
REMARK    3  A    between atoms: C_3  and  C_4
REMARK    4  A    between atoms: C_4  and  O_5
REMARK    5  A    between atoms: O_5  and  C_6
REMARK    6  A    between atoms: N_10  and  C_11
REMARK    7  A    between atoms: C_11  and  C_12
REMARK    8  A    between atoms: C_11  and  C_13
REMARK    9  A    between atoms: C_21  and  C_22
REMARK                            x       y       z     vdW  Elec       q    Type
REMARK                         _______ _______ _______ _____ _____    ______ ____
ROOT
ATOM      1  C   UNL     1       5.437   4.420  14.248  0.00  0.00    +0.000 A 
ATOM      2  C   UNL     1       4.856   5.017  15.347  0.00  0.00    +0.000 A 
ATOM      3  C   UNL     1       5.613   5.144  16.530  0.00  0.00    +0.000 A 
ATOM      4  C   UNL     1       5.085   5.547  17.770  0.00  0.00    +0.000 A 
ATOM      5  N   UNL     1       3.711   5.789  17.826  0.00  0.00    +0.000 N 
ATOM      6  N   UNL     1       5.851   5.688  18.864  0.00  0.00    +0.000 NA
ATOM      7  C   UNL     1       7.163   5.419  18.727  0.00  0.00    +0.000 A 
ATOM      8  C   UNL     1       8.079   5.719  19.874  0.00  0.00    +0.000 C 
ATOM      9  N   UNL     1       7.744   4.950  17.605  0.00  0.00    +0.000 NA
ATOM     10  C   UNL     1       6.957   4.795  16.532  0.00  0.00    +0.000 A 
ATOM     11  C   UNL     1       7.440   4.245  15.343  0.00  0.00    +0.000 A 
ATOM     12  N   UNL     1       6.719   4.027  14.210  0.00  0.00    +0.000 NA
ATOM     13  H   UNL     1       3.514   6.633  17.291  0.00  0.00    +0.000 HD
ENDROOT
BRANCH   5  14
ATOM     14  C   UNL     1       2.961   5.765  19.080  0.00  0.00    +0.000 C 
ATOM     15  C   UNL     1       1.851   4.708  19.058  0.00  0.00    +0.000 C 
BRANCH  14  16
ATOM     16  C   UNL     1       2.329   7.156  19.206  0.00  0.00    +0.000 A 
ATOM     17  C   UNL     1       2.253   8.015  18.099  0.00  0.00    +0.000 A 
ATOM     18  C   UNL     1       1.597   9.246  18.208  0.00  0.00    +0.000 A 
ATOM     19  C   UNL     1       1.019   9.620  19.418  0.00  0.00    +0.000 A 
ATOM     20  F   UNL     1       0.368  10.787  19.506  0.00  0.00    +0.000 F 
ATOM     21  C   UNL     1       1.098   8.797  20.531  0.00  0.00    +0.000 A 
ATOM     22  C   UNL     1       1.753   7.571  20.427  0.00  0.00    +0.000 A 
ENDBRANCH  14  16
ENDBRANCH   5  14
BRANCH   1  23
ATOM     23  O   UNL     1       4.638   4.235  13.143  0.00  0.00    +0.000 OA
BRANCH  23  24
ATOM     24  C   UNL     1       5.225   3.289  12.244  0.00  0.00    +0.000 C 
BRANCH  24  25
ATOM     25  C   UNL     1       4.212   2.974  11.144  0.00  0.00    +0.000 C 
BRANCH  25  27
ATOM     26  C   UNL     1       2.842   3.938   9.485  0.00  0.00    +0.000 C 
ATOM     27  O   UNL     1       3.738   4.187  10.560  0.00  0.00    +0.000 OA
ENDBRANCH  25  27
ENDBRANCH  24  25
ENDBRANCH  23  24
ENDBRANCH   1  23
TORSDOF 6
ENDMDL
MODEL 6
REMARK VINA RESULT:      -6.9      5.091      8.217
REMARK  Name = 
REMARK  9 active torsions:
REMARK  status: ('A' for Active; 'I' for Inactive)
REMARK    1  A    between atoms: C_1  and  O_2
REMARK    2  A    between atoms: O_2  and  C_3
REMARK    3  A    between atoms: C_3  and  C_4
REMARK    4  A    between atoms: C_4  and  O_5
REMARK    5  A    between atoms: O_5  and  C_6
REMARK    6  A    between atoms: N_10  and  C_11
REMARK    7  A    between atoms: C_11  and  C_12
REMARK    8  A    between atoms: C_11  and  C_13
REMARK    9  A    between atoms: C_21  and  C_22
REMARK                            x       y       z     vdW  Elec       q    Type
REMARK                         _______ _______ _______ _____ _____    ______ ____
ROOT
ATOM      1  C   UNL     1      -3.169  10.309  15.479  0.00  0.00    +0.000 A 
ATOM      2  C   UNL     1      -2.197  10.010  16.410  0.00  0.00    +0.000 A 
ATOM      3  C   UNL     1      -2.225  10.671  17.656  0.00  0.00    +0.000 A 
ATOM      4  C   UNL     1      -1.191  10.609  18.609  0.00  0.00    +0.000 A 
ATOM      5  N   UNL     1      -0.053   9.879  18.263  0.00  0.00    +0.000 N 
ATOM      6  N   UNL     1      -1.275  11.226  19.798  0.00  0.00    +0.000 NA
ATOM      7  C   UNL     1      -2.401  11.922  20.045  0.00  0.00    +0.000 A 
ATOM      8  C   UNL     1      -2.608  12.489  21.416  0.00  0.00    +0.000 C 
ATOM      9  N   UNL     1      -3.406  12.105  19.166  0.00  0.00    +0.000 NA
ATOM     10  C   UNL     1      -3.292  11.500  17.976  0.00  0.00    +0.000 A 
ATOM     11  C   UNL     1      -4.237  11.685  16.965  0.00  0.00    +0.000 A 
ATOM     12  N   UNL     1      -4.199  11.134  15.722  0.00  0.00    +0.000 NA
ATOM     13  H   UNL     1      -0.302   8.891  18.240  0.00  0.00    +0.000 HD
ENDROOT
BRANCH   5  14
ATOM     14  C   UNL     1       1.239  10.088  18.914  0.00  0.00    +0.000 C 
ATOM     15  C   UNL     1       2.142  11.022  18.099  0.00  0.00    +0.000 C 
BRANCH  14  16
ATOM     16  C   UNL     1       1.889   8.701  18.989  0.00  0.00    +0.000 A 
ATOM     17  C   UNL     1       1.706   7.880  20.112  0.00  0.00    +0.000 A 
ATOM     18  C   UNL     1       2.232   6.584  20.129  0.00  0.00    +0.000 A 
ATOM     19  C   UNL     1       2.941   6.109  19.030  0.00  0.00    +0.000 A 
ATOM     20  F   UNL     1       3.418   4.857  19.042  0.00  0.00    +0.000 F 
ATOM     21  C   UNL     1       3.153   6.907  17.916  0.00  0.00    +0.000 A 
ATOM     22  C   UNL     1       2.631   8.199  17.897  0.00  0.00    +0.000 A 
ENDBRANCH  14  16
ENDBRANCH   5  14
BRANCH   1  23
ATOM     23  O   UNL     1      -3.057   9.710  14.245  0.00  0.00    +0.000 OA
BRANCH  23  24
ATOM     24  C   UNL     1      -4.298   9.772  13.535  0.00  0.00    +0.000 C 
BRANCH  24  25
ATOM     25  C   UNL     1      -3.996   9.872  12.040  0.00  0.00    +0.000 C 
BRANCH  25  27
ATOM     26  C   UNL     1      -6.229   9.728  11.300  0.00  0.00    +0.000 C 
ATOM     27  O   UNL     1      -4.949   9.109  11.302  0.00  0.00    +0.000 OA
ENDBRANCH  25  27
ENDBRANCH  24  25
ENDBRANCH  23  24
ENDBRANCH   1  23
TORSDOF 6
ENDMDL
MODEL 7
REMARK VINA RESULT:      -6.9      1.393      1.667
REMARK  Name = 
REMARK  9 active torsions:
REMARK  status: ('A' for Active; 'I' for Inactive)
REMARK    1  A    between atoms: C_1  and  O_2
REMARK    2  A    between atoms: O_2  and  C_3
REMARK    3  A    between atoms: C_3  and  C_4
REMARK    4  A    between atoms: C_4  and  O_5
REMARK    5  A    between atoms: O_5  and  C_6
REMARK    6  A    between atoms: N_10  and  C_11
REMARK    7  A    between atoms: C_11  and  C_12
REMARK    8  A    between atoms: C_11  and  C_13
REMARK    9  A    between atoms: C_21  and  C_22
REMARK                            x       y       z     vdW  Elec       q    Type
REMARK                         _______ _______ _______ _____ _____    ______ ____
ROOT
ATOM      1  C   UNL     1       1.972   7.217  19.904  0.00  0.00    +0.000 A 
ATOM      2  C   UNL     1       2.931   6.727  19.043  0.00  0.00    +0.000 A 
ATOM      3  C   UNL     1       3.417   5.418  19.243  0.00  0.00    +0.000 A 
ATOM      4  C   UNL     1       4.526   4.873  18.568  0.00  0.00    +0.000 A 
ATOM      5  N   UNL     1       5.203   5.712  17.682  0.00  0.00    +0.000 N 
ATOM      6  N   UNL     1       4.933   3.609  18.765  0.00  0.00    +0.000 NA
ATOM      7  C   UNL     1       4.233   2.874  19.649  0.00  0.00    +0.000 A 
ATOM      8  C   UNL     1       4.549   1.415  19.778  0.00  0.00    +0.000 C 
ATOM      9  N   UNL     1       3.211   3.332  20.400  0.00  0.00    +0.000 NA
ATOM     10  C   UNL     1       2.836   4.603  20.205  0.00  0.00    +0.000 A 
ATOM     11  C   UNL     1       1.841   5.201  20.982  0.00  0.00    +0.000 A 
ATOM     12  N   UNL     1       1.406   6.485  20.876  0.00  0.00    +0.000 NA
ATOM     13  H   UNL     1       4.601   5.880  16.878  0.00  0.00    +0.000 HD
ENDROOT
BRANCH   5  14
ATOM     14  C   UNL     1       6.584   5.465  17.270  0.00  0.00    +0.000 C 
ATOM     15  C   UNL     1       7.449   6.724  17.398  0.00  0.00    +0.000 C 
BRANCH  14  16
ATOM     16  C   UNL     1       6.504   5.056  15.795  0.00  0.00    +0.000 A 
ATOM     17  C   UNL     1       7.557   5.337  14.911  0.00  0.00    +0.000 A 
ATOM     18  C   UNL     1       7.507   4.883  13.590  0.00  0.00    +0.000 A 
ATOM     19  C   UNL     1       6.409   4.149  13.149  0.00  0.00    +0.000 A 
ATOM     20  F   UNL     1       6.381   3.693  11.890  0.00  0.00    +0.000 F 
ATOM     21  C   UNL     1       5.346   3.875  13.997  0.00  0.00    +0.000 A 
ATOM     22  C   UNL     1       5.392   4.329  15.314  0.00  0.00    +0.000 A 
ENDBRANCH  14  16
ENDBRANCH   5  14
BRANCH   1  23
ATOM     23  O   UNL     1       1.587   8.527  19.730  0.00  0.00    +0.000 OA
BRANCH  23  24
ATOM     24  C   UNL     1       0.956   9.032  20.911  0.00  0.00    +0.000 C 
BRANCH  24  25
ATOM     25  C   UNL     1      -0.227   9.904  20.492  0.00  0.00    +0.000 C 
BRANCH  25  27
ATOM     26  C   UNL     1      -0.239  11.405  18.675  0.00  0.00    +0.000 C 
ATOM     27  O   UNL     1      -0.249  10.040  19.072  0.00  0.00    +0.000 OA
ENDBRANCH  25  27
ENDBRANCH  24  25
ENDBRANCH  23  24
ENDBRANCH   1  23
TORSDOF 6
ENDMDL
MODEL 8
REMARK VINA RESULT:      -6.8      4.521      7.951
REMARK  Name = 
REMARK  9 active torsions:
REMARK  status: ('A' for Active; 'I' for Inactive)
REMARK    1  A    between atoms: C_1  and  O_2
REMARK    2  A    between atoms: O_2  and  C_3
REMARK    3  A    between atoms: C_3  and  C_4
REMARK    4  A    between atoms: C_4  and  O_5
REMARK    5  A    between atoms: O_5  and  C_6
REMARK    6  A    between atoms: N_10  and  C_11
REMARK    7  A    between atoms: C_11  and  C_12
REMARK    8  A    between atoms: C_11  and  C_13
REMARK    9  A    between atoms: C_21  and  C_22
REMARK                            x       y       z     vdW  Elec       q    Type
REMARK                         _______ _______ _______ _____ _____    ______ ____
ROOT
ATOM      1  C   UNL     1       5.813   3.560  13.252  0.00  0.00    +0.000 A 
ATOM      2  C   UNL     1       5.246   3.637  14.507  0.00  0.00    +0.000 A 
ATOM      3  C   UNL     1       5.894   4.405  15.497  0.00  0.00    +0.000 A 
ATOM      4  C   UNL     1       5.536   4.407  16.858  0.00  0.00    +0.000 A 
ATOM      5  N   UNL     1       4.502   3.553  17.243  0.00  0.00    +0.000 N 
ATOM      6  N   UNL     1       6.159   5.181  17.761  0.00  0.00    +0.000 NA
ATOM      7  C   UNL     1       7.157   5.963  17.309  0.00  0.00    +0.000 A 
ATOM      8  C   UNL     1       7.767   6.960  18.246  0.00  0.00    +0.000 C 
ATOM      9  N   UNL     1       7.622   5.970  16.044  0.00  0.00    +0.000 NA
ATOM     10  C   UNL     1       7.002   5.172  15.163  0.00  0.00    +0.000 A 
ATOM     11  C   UNL     1       7.451   5.044  13.848  0.00  0.00    +0.000 A 
ATOM     12  N   UNL     1       6.906   4.249  12.889  0.00  0.00    +0.000 NA
ATOM     13  H   UNL     1       3.631   3.910  16.853  0.00  0.00    +0.000 HD
ENDROOT
BRANCH   5  14
ATOM     14  C   UNL     1       4.324   3.109  18.624  0.00  0.00    +0.000 C 
ATOM     15  C   UNL     1       3.747   1.690  18.696  0.00  0.00    +0.000 C 
BRANCH  14  16
ATOM     16  C   UNL     1       3.324   4.091  19.245  0.00  0.00    +0.000 A 
ATOM     17  C   UNL     1       2.327   3.644  20.124  0.00  0.00    +0.000 A 
ATOM     18  C   UNL     1       1.477   4.562  20.749  0.00  0.00    +0.000 A 
ATOM     19  C   UNL     1       1.621   5.924  20.497  0.00  0.00    +0.000 A 
ATOM     20  F   UNL     1       0.822   6.799  21.121  0.00  0.00    +0.000 F 
ATOM     21  C   UNL     1       2.586   6.389  19.617  0.00  0.00    +0.000 A 
ATOM     22  C   UNL     1       3.433   5.477  18.991  0.00  0.00    +0.000 A 
ENDBRANCH  14  16
ENDBRANCH   5  14
BRANCH   1  23
ATOM     23  O   UNL     1       5.199   2.732  12.340  0.00  0.00    +0.000 OA
BRANCH  23  24
ATOM     24  C   UNL     1       4.934   3.428  11.118  0.00  0.00    +0.000 C 
BRANCH  24  25
ATOM     25  C   UNL     1       3.454   3.260  10.777  0.00  0.00    +0.000 C 
BRANCH  25  27
ATOM     26  C   UNL     1       2.873   4.468   8.838  0.00  0.00    +0.000 C 
ATOM     27  O   UNL     1       2.935   4.484  10.258  0.00  0.00    +0.000 OA
ENDBRANCH  25  27
ENDBRANCH  24  25
ENDBRANCH  23  24
ENDBRANCH   1  23
TORSDOF 6
ENDMDL
MODEL 9
REMARK VINA RESULT:      -6.8      1.320      1.798
REMARK  Name = 
REMARK  9 active torsions:
REMARK  status: ('A' for Active; 'I' for Inactive)
REMARK    1  A    between atoms: C_1  and  O_2
REMARK    2  A    between atoms: O_2  and  C_3
REMARK    3  A    between atoms: C_3  and  C_4
REMARK    4  A    between atoms: C_4  and  O_5
REMARK    5  A    between atoms: O_5  and  C_6
REMARK    6  A    between atoms: N_10  and  C_11
REMARK    7  A    between atoms: C_11  and  C_12
REMARK    8  A    between atoms: C_11  and  C_13
REMARK    9  A    between atoms: C_21  and  C_22
REMARK                            x       y       z     vdW  Elec       q    Type
REMARK                         _______ _______ _______ _____ _____    ______ ____
ROOT
ATOM      1  C   UNL     1       2.006   7.147  19.861  0.00  0.00    +0.000 A 
ATOM      2  C   UNL     1       2.980   6.638  19.028  0.00  0.00    +0.000 A 
ATOM      3  C   UNL     1       3.477   5.343  19.277  0.00  0.00    +0.000 A 
ATOM      4  C   UNL     1       4.599   4.787  18.634  0.00  0.00    +0.000 A 
ATOM      5  N   UNL     1       5.279   5.602  17.727  0.00  0.00    +0.000 N 
ATOM      6  N   UNL     1       5.017   3.534  18.877  0.00  0.00    +0.000 NA
ATOM      7  C   UNL     1       4.314   2.822  19.778  0.00  0.00    +0.000 A 
ATOM      8  C   UNL     1       4.643   1.372  19.959  0.00  0.00    +0.000 C 
ATOM      9  N   UNL     1       3.279   3.294  20.501  0.00  0.00    +0.000 NA
ATOM     10  C   UNL     1       2.893   4.554  20.259  0.00  0.00    +0.000 A 
ATOM     11  C   UNL     1       1.884   5.167  21.004  0.00  0.00    +0.000 A 
ATOM     12  N   UNL     1       1.437   6.442  20.851  0.00  0.00    +0.000 NA
ATOM     13  H   UNL     1       4.684   5.737  16.912  0.00  0.00    +0.000 HD
ENDROOT
BRANCH   5  14
ATOM     14  C   UNL     1       6.666   5.356  17.340  0.00  0.00    +0.000 C 
ATOM     15  C   UNL     1       7.513   6.632  17.417  0.00  0.00    +0.000 C 
BRANCH  14  16
ATOM     16  C   UNL     1       6.606   4.879  15.884  0.00  0.00    +0.000 A 
ATOM     17  C   UNL     1       5.523   4.118  15.419  0.00  0.00    +0.000 A 
ATOM     18  C   UNL     1       5.440   3.764  14.069  0.00  0.00    +0.000 A 
ATOM     19  C   UNL     1       6.436   4.167  13.183  0.00  0.00    +0.000 A 
ATOM     20  F   UNL     1       6.335   3.848  11.886  0.00  0.00    +0.000 F 
ATOM     21  C   UNL     1       7.527   4.903  13.621  0.00  0.00    +0.000 A 
ATOM     22  C   UNL     1       7.613   5.255  14.967  0.00  0.00    +0.000 A 
ENDBRANCH  14  16
ENDBRANCH   5  14
BRANCH   1  23
ATOM     23  O   UNL     1       1.610   8.446  19.639  0.00  0.00    +0.000 OA
BRANCH  23  24
ATOM     24  C   UNL     1       1.874   8.834  18.287  0.00  0.00    +0.000 C 
BRANCH  24  25
ATOM     25  C   UNL     1       1.003  10.045  17.953  0.00  0.00    +0.000 C 
BRANCH  25  27
ATOM     26  C   UNL     1      -1.292  10.369  18.381  0.00  0.00    +0.000 C 
ATOM     27  O   UNL     1      -0.001  10.210  18.954  0.00  0.00    +0.000 OA
ENDBRANCH  25  27
ENDBRANCH  24  25
ENDBRANCH  23  24
ENDBRANCH   1  23
TORSDOF 6
ENDMDL
