MODEL 1
REMARK VINA RESULT:      -7.4      0.000      0.000
REMARK  Name = 
REMARK  10 active torsions:
REMARK  status: ('A' for Active; 'I' for Inactive)
REMARK    1  A    between atoms: O_1  and  C_2
REMARK    2  A    between atoms: C_2  and  C_3
REMARK    3  A    between atoms: C_2  and  C_15
REMARK    4  A    between atoms: C_3  and  C_4
REMARK    5  A    between atoms: C_4  and  C_5
REMARK    6  A    between atoms: C_5  and  C_6
REMARK    7  A    between atoms: C_6  and  C_7
REMARK    8  A    between atoms: C_7  and  C_8
REMARK    9  A    between atoms: C_8  and  C_9
REMARK   10  A    between atoms: C_18  and  C_19
REMARK                            x       y       z     vdW  Elec       q    Type
REMARK                         _______ _______ _______ _____ _____    ______ ____
ROOT
ATOM      1  C   UNL     1       7.919   5.682  18.867  0.00  0.00    +0.000 C 
ENDROOT
BRANCH   1   2
ATOM      2  C   UNL     1       7.952   7.107  18.403  0.00  0.00    +0.000 A 
ATOM      3  N   UNL     1       7.265   7.659  17.420  0.00  0.00    +0.000 NA
ATOM      4  C   UNL     1       7.676   8.967  17.432  0.00  0.00    +0.000 A 
ATOM      5  C   UNL     1       8.582   9.179  18.451  0.00  0.00    +0.000 A 
ATOM      6  O   UNL     1       8.766   7.977  19.082  0.00  0.00    +0.000 OA
BRANCH   5   7
ATOM      7  C   UNL     1       9.287  10.336  18.952  0.00  0.00    +0.000 A 
ATOM      8  N   UNL     1       9.207  10.557  20.280  0.00  0.00    +0.000 NA
ATOM      9  C   UNL     1       9.970  11.559  20.753  0.00  0.00    +0.000 A 
ATOM     10  C   UNL     1      10.792  12.327  19.960  0.00  0.00    +0.000 A 
ATOM     11  C   UNL     1      10.780  12.027  18.619  0.00  0.00    +0.000 A 
ATOM     12  N   UNL     1      10.041  11.039  18.088  0.00  0.00    +0.000 NA
ENDBRANCH   5   7
ENDBRANCH   1   2
BRANCH   1  13
ATOM     13  O   UNL     1       7.948   5.655  20.296  0.00  0.00    +0.000 OA
ATOM     14  H   UNL     1       8.127   4.740  20.562  0.00  0.00    +0.000 HD
ENDBRANCH   1  13
BRANCH   1  15
ATOM     15  C   UNL     1       6.700   4.921  18.335  0.00  0.00    +0.000 C 
BRANCH  15  16
ATOM     16  C   UNL     1       5.386   5.386  18.971  0.00  0.00    +0.000 C 
BRANCH  16  17
ATOM     17  C   UNL     1       4.255   5.471  17.953  0.00  0.00    +0.000 C 
BRANCH  17  18
ATOM     18  C   UNL     1       4.445   4.426  16.853  0.00  0.00    +0.000 C 
BRANCH  18  19
ATOM     19  C   UNL     1       3.246   3.485  16.794  0.00  0.00    +0.000 C 
BRANCH  19  20
ATOM     20  C   UNL     1       3.389   2.323  17.777  0.00  0.00    +0.000 C 
BRANCH  20  21
ATOM     21  C   UNL     1       2.695   2.628  19.082  0.00  0.00    +0.000 A 
ATOM     22  C   UNL     1       3.368   2.469  20.298  0.00  0.00    +0.000 A 
ATOM     23  C   UNL     1       2.705   2.690  21.505  0.00  0.00    +0.000 A 
ATOM     24  C   UNL     1       1.365   3.071  21.510  0.00  0.00    +0.000 A 
ATOM     25  C   UNL     1       0.687   3.241  20.304  0.00  0.00    +0.000 A 
ATOM     26  C   UNL     1       1.349   3.023  19.094  0.00  0.00    +0.000 A 
ENDBRANCH  20  21
ENDBRANCH  19  20
ENDBRANCH  18  19
ENDBRANCH  17  18
ENDBRANCH  16  17
ENDBRANCH  15  16
ENDBRANCH   1  15
TORSDOF 10
ENDMDL
MODEL 2
REMARK VINA RESULT:      -7.1      1.168      1.989
REMARK  Name = 
REMARK  10 active torsions:
REMARK  status: ('A' for Active; 'I' for Inactive)
REMARK    1  A    between atoms: O_1  and  C_2
REMARK    2  A    between atoms: C_2  and  C_3
REMARK    3  A    between atoms: C_2  and  C_15
REMARK    4  A    between atoms: C_3  and  C_4
REMARK    5  A    between atoms: C_4  and  C_5
REMARK    6  A    between atoms: C_5  and  C_6
REMARK    7  A    between atoms: C_6  and  C_7
REMARK    8  A    between atoms: C_7  and  C_8
REMARK    9  A    between atoms: C_8  and  C_9
REMARK   10  A    between atoms: C_18  and  C_19
REMARK                            x       y       z     vdW  Elec       q    Type
REMARK                         _______ _______ _______ _____ _____    ______ ____
ROOT
ATOM      1  C   UNL     1       7.800   5.888  18.634  0.00  0.00    +0.000 C 
ENDROOT
BRANCH   1   2
ATOM      2  C   UNL     1       7.979   7.342  18.321  0.00  0.00    +0.000 A 
ATOM      3  N   UNL     1       7.430   8.037  17.342  0.00  0.00    +0.000 NA
ATOM      4  C   UNL     1       7.929   9.302  17.522  0.00  0.00    +0.000 A 
ATOM      5  C   UNL     1       8.745   9.345  18.634  0.00  0.00    +0.000 A 
ATOM      6  O   UNL     1       8.782   8.078  19.155  0.00  0.00    +0.000 OA
BRANCH   5   7
ATOM      7  C   UNL     1       9.479  10.389  19.310  0.00  0.00    +0.000 A 
ATOM      8  N   UNL     1      10.353  11.089  18.557  0.00  0.00    +0.000 NA
ATOM      9  C   UNL     1      10.935  12.140  19.163  0.00  0.00    +0.000 A 
ATOM     10  C   UNL     1      10.677  12.506  20.465  0.00  0.00    +0.000 A 
ATOM     11  C   UNL     1       9.785  11.710  21.143  0.00  0.00    +0.000 A 
ATOM     12  N   UNL     1       9.171  10.649  20.593  0.00  0.00    +0.000 NA
ENDBRANCH   5   7
ENDBRANCH   1   2
BRANCH   1  13
ATOM     13  O   UNL     1       8.292   5.629  19.951  0.00  0.00    +0.000 OA
ATOM     14  H   UNL     1       8.119   4.695  20.144  0.00  0.00    +0.000 HD
ENDBRANCH   1  13
BRANCH   1  15
ATOM     15  C   UNL     1       6.343   5.433  18.501  0.00  0.00    +0.000 C 
BRANCH  15  16
ATOM     16  C   UNL     1       5.931   5.182  17.047  0.00  0.00    +0.000 C 
BRANCH  16  17
ATOM     17  C   UNL     1       4.534   5.711  16.746  0.00  0.00    +0.000 C 
BRANCH  17  18
ATOM     18  C   UNL     1       4.073   6.663  17.851  0.00  0.00    +0.000 C 
BRANCH  18  19
ATOM     19  C   UNL     1       2.584   6.481  18.129  0.00  0.00    +0.000 C 
BRANCH  19  20
ATOM     20  C   UNL     1       2.339   5.629  19.374  0.00  0.00    +0.000 C 
BRANCH  20  21
ATOM     21  C   UNL     1       2.658   4.178  19.109  0.00  0.00    +0.000 A 
ATOM     22  C   UNL     1       3.623   3.512  19.872  0.00  0.00    +0.000 A 
ATOM     23  C   UNL     1       3.961   2.189  19.584  0.00  0.00    +0.000 A 
ATOM     24  C   UNL     1       3.341   1.521  18.530  0.00  0.00    +0.000 A 
ATOM     25  C   UNL     1       2.372   2.172  17.769  0.00  0.00    +0.000 A 
ATOM     26  C   UNL     1       2.029   3.493  18.058  0.00  0.00    +0.000 A 
ENDBRANCH  20  21
ENDBRANCH  19  20
ENDBRANCH  18  19
ENDBRANCH  17  18
ENDBRANCH  16  17
ENDBRANCH  15  16
ENDBRANCH   1  15
TORSDOF 10
ENDMDL
MODEL 3
REMARK VINA RESULT:      -7.0      4.921      7.148
REMARK  Name = 
REMARK  10 active torsions:
REMARK  status: ('A' for Active; 'I' for Inactive)
REMARK    1  A    between atoms: O_1  and  C_2
REMARK    2  A    between atoms: C_2  and  C_3
REMARK    3  A    between atoms: C_2  and  C_15
REMARK    4  A    between atoms: C_3  and  C_4
REMARK    5  A    between atoms: C_4  and  C_5
REMARK    6  A    between atoms: C_5  and  C_6
REMARK    7  A    between atoms: C_6  and  C_7
REMARK    8  A    between atoms: C_7  and  C_8
REMARK    9  A    between atoms: C_8  and  C_9
REMARK   10  A    between atoms: C_18  and  C_19
REMARK                            x       y       z     vdW  Elec       q    Type
REMARK                         _______ _______ _______ _____ _____    ______ ____
ROOT
ATOM      1  C   UNL     1       3.879   3.399  18.379  0.00  0.00    +0.000 C 
ENDROOT
BRANCH   1   2
ATOM      2  C   UNL     1       5.126   3.900  17.716  0.00  0.00    +0.000 A 
ATOM      3  N   UNL     1       6.218   4.373  18.288  0.00  0.00    +0.000 NA
ATOM      4  C   UNL     1       7.032   4.680  17.228  0.00  0.00    +0.000 A 
ATOM      5  C   UNL     1       6.418   4.351  16.037  0.00  0.00    +0.000 A 
ATOM      6  O   UNL     1       5.182   3.847  16.347  0.00  0.00    +0.000 OA
BRANCH   5   7
ATOM      7  C   UNL     1       6.811   4.406  14.648  0.00  0.00    +0.000 A 
ATOM      8  N   UNL     1       6.169   3.566  13.811  0.00  0.00    +0.000 NA
ATOM      9  C   UNL     1       6.451   3.715  12.503  0.00  0.00    +0.000 A 
ATOM     10  C   UNL     1       7.331   4.655  12.018  0.00  0.00    +0.000 A 
ATOM     11  C   UNL     1       7.944   5.444  12.963  0.00  0.00    +0.000 A 
ATOM     12  N   UNL     1       7.703   5.343  14.281  0.00  0.00    +0.000 NA
ENDBRANCH   5   7
ENDBRANCH   1   2
BRANCH   1  13
ATOM     13  O   UNL     1       3.889   1.970  18.375  0.00  0.00    +0.000 OA
ATOM     14  H   UNL     1       3.361   1.677  19.133  0.00  0.00    +0.000 HD
ENDBRANCH   1  13
BRANCH   1  15
ATOM     15  C   UNL     1       3.717   3.936  19.806  0.00  0.00    +0.000 C 
BRANCH  15  16
ATOM     16  C   UNL     1       2.260   3.937  20.277  0.00  0.00    +0.000 C 
BRANCH  16  17
ATOM     17  C   UNL     1       1.795   5.325  20.702  0.00  0.00    +0.000 C 
BRANCH  17  18
ATOM     18  C   UNL     1       2.349   6.388  19.752  0.00  0.00    +0.000 C 
BRANCH  18  19
ATOM     19  C   UNL     1       1.891   7.780  20.179  0.00  0.00    +0.000 C 
BRANCH  19  20
ATOM     20  C   UNL     1       0.863   7.715  21.309  0.00  0.00    +0.000 C 
BRANCH  20  21
ATOM     21  C   UNL     1       0.227   9.065  21.540  0.00  0.00    +0.000 A 
ATOM     22  C   UNL     1      -0.230   9.425  22.812  0.00  0.00    +0.000 A 
ATOM     23  C   UNL     1      -0.875  10.647  23.010  0.00  0.00    +0.000 A 
ATOM     24  C   UNL     1      -1.071  11.518  21.940  0.00  0.00    +0.000 A 
ATOM     25  C   UNL     1      -0.611  11.172  20.670  0.00  0.00    +0.000 A 
ATOM     26  C   UNL     1       0.037   9.953  20.470  0.00  0.00    +0.000 A 
ENDBRANCH  20  21
ENDBRANCH  19  20
ENDBRANCH  18  19
ENDBRANCH  17  18
ENDBRANCH  16  17
ENDBRANCH  15  16
ENDBRANCH   1  15
TORSDOF 10
ENDMDL
MODEL 4
REMARK VINA RESULT:      -7.0      4.902      7.329
REMARK  Name = 
REMARK  10 active torsions:
REMARK  status: ('A' for Active; 'I' for Inactive)
REMARK    1  A    between atoms: O_1  and  C_2
REMARK    2  A    between atoms: C_2  and  C_3
REMARK    3  A    between atoms: C_2  and  C_15
REMARK    4  A    between atoms: C_3  and  C_4
REMARK    5  A    between atoms: C_4  and  C_5
REMARK    6  A    between atoms: C_5  and  C_6
REMARK    7  A    between atoms: C_6  and  C_7
REMARK    8  A    between atoms: C_7  and  C_8
REMARK    9  A    between atoms: C_8  and  C_9
REMARK   10  A    between atoms: C_18  and  C_19
REMARK                            x       y       z     vdW  Elec       q    Type
REMARK                         _______ _______ _______ _____ _____    ______ ____
ROOT
ATOM      1  C   UNL     1       2.525   5.600  19.922  0.00  0.00    +0.000 C 
ENDROOT
BRANCH   1   2
ATOM      2  C   UNL     1       2.078   7.021  19.757  0.00  0.00    +0.000 A 
ATOM      3  N   UNL     1       2.286   7.825  18.731  0.00  0.00    +0.000 NA
ATOM      4  C   UNL     1       1.667   8.992  19.104  0.00  0.00    +0.000 A 
ATOM      5  C   UNL     1       1.069   8.848  20.339  0.00  0.00    +0.000 A 
ATOM      6  O   UNL     1       1.333   7.574  20.768  0.00  0.00    +0.000 OA
BRANCH   5   7
ATOM      7  C   UNL     1       0.262   9.704  21.177  0.00  0.00    +0.000 A 
ATOM      8  N   UNL     1      -0.074   9.211  22.386  0.00  0.00    +0.000 NA
ATOM      9  C   UNL     1      -0.715  10.064  23.207  0.00  0.00    +0.000 A 
ATOM     10  C   UNL     1      -1.021  11.362  22.866  0.00  0.00    +0.000 A 
ATOM     11  C   UNL     1      -0.648  11.751  21.602  0.00  0.00    +0.000 A 
ATOM     12  N   UNL     1      -0.006  10.946  20.738  0.00  0.00    +0.000 NA
ENDBRANCH   5   7
ENDBRANCH   1   2
BRANCH   1  13
ATOM     13  O   UNL     1       2.476   5.252  21.307  0.00  0.00    +0.000 OA
ATOM     14  H   UNL     1       3.181   4.606  21.466  0.00  0.00    +0.000 HD
ENDBRANCH   1  13
BRANCH   1  15
ATOM     15  C   UNL     1       1.691   4.622  19.086  0.00  0.00    +0.000 C 
BRANCH  15  16
ATOM     16  C   UNL     1       2.332   4.303  17.732  0.00  0.00    +0.000 C 
BRANCH  16  17
ATOM     17  C   UNL     1       3.848   4.453  17.765  0.00  0.00    +0.000 C 
BRANCH  17  18
ATOM     18  C   UNL     1       4.495   3.572  16.695  0.00  0.00    +0.000 C 
BRANCH  18  19
ATOM     19  C   UNL     1       5.089   4.430  15.582  0.00  0.00    +0.000 C 
BRANCH  19  20
ATOM     20  C   UNL     1       6.617   4.399  15.596  0.00  0.00    +0.000 C 
BRANCH  20  21
ATOM     21  C   UNL     1       7.166   5.266  16.702  0.00  0.00    +0.000 A 
ATOM     22  C   UNL     1       7.602   4.694  17.902  0.00  0.00    +0.000 A 
ATOM     23  C   UNL     1       8.050   5.503  18.947  0.00  0.00    +0.000 A 
ATOM     24  C   UNL     1       8.065   6.889  18.805  0.00  0.00    +0.000 A 
ATOM     25  C   UNL     1       7.641   7.469  17.610  0.00  0.00    +0.000 A 
ATOM     26  C   UNL     1       7.196   6.662  16.562  0.00  0.00    +0.000 A 
ENDBRANCH  20  21
ENDBRANCH  19  20
ENDBRANCH  18  19
ENDBRANCH  17  18
ENDBRANCH  16  17
ENDBRANCH  15  16
ENDBRANCH   1  15
TORSDOF 10
ENDMDL
MODEL 5
REMARK VINA RESULT:      -6.9      8.330      9.807
REMARK  Name = 
REMARK  10 active torsions:
REMARK  status: ('A' for Active; 'I' for Inactive)
REMARK    1  A    between atoms: O_1  and  C_2
REMARK    2  A    between atoms: C_2  and  C_3
REMARK    3  A    between atoms: C_2  and  C_15
REMARK    4  A    between atoms: C_3  and  C_4
REMARK    5  A    between atoms: C_4  and  C_5
REMARK    6  A    between atoms: C_5  and  C_6
REMARK    7  A    between atoms: C_6  and  C_7
REMARK    8  A    between atoms: C_7  and  C_8
REMARK    9  A    between atoms: C_8  and  C_9
REMARK   10  A    between atoms: C_18  and  C_19
REMARK                            x       y       z     vdW  Elec       q    Type
REMARK                         _______ _______ _______ _____ _____    ______ ____
ROOT
ATOM      1  C   UNL     1       0.058   9.530  23.049  0.00  0.00    +0.000 C 
ENDROOT
BRANCH   1   2
ATOM      2  C   UNL     1      -0.546  10.867  22.743  0.00  0.00    +0.000 A 
ATOM      3  N   UNL     1      -0.006  11.870  22.075  0.00  0.00    +0.000 NA
ATOM      4  C   UNL     1      -0.982  12.833  22.092  0.00  0.00    +0.000 A 
ATOM      5  C   UNL     1      -2.106  12.370  22.744  0.00  0.00    +0.000 A 
ATOM      6  O   UNL     1      -1.829  11.097  23.169  0.00  0.00    +0.000 OA
BRANCH   5   7
ATOM      7  C   UNL     1      -3.416  12.916  23.012  0.00  0.00    +0.000 A 
ATOM      8  N   UNL     1      -4.221  12.178  23.804  0.00  0.00    +0.000 NA
ATOM      9  C   UNL     1      -5.387  12.754  24.151  0.00  0.00    +0.000 A 
ATOM     10  C   UNL     1      -5.763  14.014  23.743  0.00  0.00    +0.000 A 
ATOM     11  C   UNL     1      -4.874  14.667  22.923  0.00  0.00    +0.000 A 
ATOM     12  N   UNL     1      -3.696  14.145  22.542  0.00  0.00    +0.000 NA
ENDBRANCH   5   7
ENDBRANCH   1   2
BRANCH   1  13
ATOM     13  O   UNL     1      -0.942   8.519  22.897  0.00  0.00    +0.000 OA
ATOM     14  H   UNL     1      -1.654   8.724  23.522  0.00  0.00    +0.000 HD
ENDBRANCH   1  13
BRANCH   1  15
ATOM     15  C   UNL     1       1.278   9.223  22.173  0.00  0.00    +0.000 C 
BRANCH  15  16
ATOM     16  C   UNL     1       0.911   8.474  20.888  0.00  0.00    +0.000 C 
BRANCH  16  17
ATOM     17  C   UNL     1       1.017   9.364  19.655  0.00  0.00    +0.000 C 
BRANCH  17  18
ATOM     18  C   UNL     1       1.813   8.660  18.555  0.00  0.00    +0.000 C 
BRANCH  18  19
ATOM     19  C   UNL     1       2.524   7.430  19.110  0.00  0.00    +0.000 C 
BRANCH  19  20
ATOM     20  C   UNL     1       2.501   6.266  18.119  0.00  0.00    +0.000 C 
BRANCH  20  21
ATOM     21  C   UNL     1       1.934   5.022  18.757  0.00  0.00    +0.000 A 
ATOM     22  C   UNL     1       1.773   4.946  20.145  0.00  0.00    +0.000 A 
ATOM     23  C   UNL     1       1.309   3.772  20.739  0.00  0.00    +0.000 A 
ATOM     24  C   UNL     1       1.003   2.662  19.953  0.00  0.00    +0.000 A 
ATOM     25  C   UNL     1       1.152   2.730  18.569  0.00  0.00    +0.000 A 
ATOM     26  C   UNL     1       1.612   3.905  17.972  0.00  0.00    +0.000 A 
ENDBRANCH  20  21
ENDBRANCH  19  20
ENDBRANCH  18  19
ENDBRANCH  17  18
ENDBRANCH  16  17
ENDBRANCH  15  16
ENDBRANCH   1  15
TORSDOF 10
ENDMDL
MODEL 6
REMARK VINA RESULT:      -6.9      4.877      7.185
REMARK  Name = 
REMARK  10 active torsions:
REMARK  status: ('A' for Active; 'I' for Inactive)
REMARK    1  A    between atoms: O_1  and  C_2
REMARK    2  A    between atoms: C_2  and  C_3
REMARK    3  A    between atoms: C_2  and  C_15
REMARK    4  A    between atoms: C_3  and  C_4
REMARK    5  A    between atoms: C_4  and  C_5
REMARK    6  A    between atoms: C_5  and  C_6
REMARK    7  A    between atoms: C_6  and  C_7
REMARK    8  A    between atoms: C_7  and  C_8
REMARK    9  A    between atoms: C_8  and  C_9
REMARK   10  A    between atoms: C_18  and  C_19
REMARK                            x       y       z     vdW  Elec       q    Type
REMARK                         _______ _______ _______ _____ _____    ______ ____
ROOT
ATOM      1  C   UNL     1       2.551   5.775  19.630  0.00  0.00    +0.000 C 
ENDROOT
BRANCH   1   2
ATOM      2  C   UNL     1       2.049   7.182  19.508  0.00  0.00    +0.000 A 
ATOM      3  N   UNL     1       2.154   7.995  18.473  0.00  0.00    +0.000 NA
ATOM      4  C   UNL     1       1.530   9.141  18.897  0.00  0.00    +0.000 A 
ATOM      5  C   UNL     1       1.032   8.975  20.173  0.00  0.00    +0.000 A 
ATOM      6  O   UNL     1       1.367   7.708  20.574  0.00  0.00    +0.000 OA
BRANCH   5   7
ATOM      7  C   UNL     1       0.265   9.803  21.075  0.00  0.00    +0.000 A 
ATOM      8  N   UNL     1      -0.125   9.227  22.230  0.00  0.00    +0.000 NA
ATOM      9  C   UNL     1      -0.726  10.043  23.116  0.00  0.00    +0.000 A 
ATOM     10  C   UNL     1      -0.943  11.383  22.889  0.00  0.00    +0.000 A 
ATOM     11  C   UNL     1      -0.523  11.858  21.670  0.00  0.00    +0.000 A 
ATOM     12  N   UNL     1       0.084  11.094  20.746  0.00  0.00    +0.000 NA
ENDBRANCH   5   7
ENDBRANCH   1   2
BRANCH   1  13
ATOM     13  O   UNL     1       3.942   5.801  19.955  0.00  0.00    +0.000 OA
ATOM     14  H   UNL     1       4.317   4.950  19.682  0.00  0.00    +0.000 HD
ENDBRANCH   1  13
BRANCH   1  15
ATOM     15  C   UNL     1       1.767   4.961  20.666  0.00  0.00    +0.000 C 
BRANCH  15  16
ATOM     16  C   UNL     1       0.963   3.819  20.037  0.00  0.00    +0.000 C 
BRANCH  16  17
ATOM     17  C   UNL     1       1.807   2.567  19.832  0.00  0.00    +0.000 C 
BRANCH  17  18
ATOM     18  C   UNL     1       1.915   2.233  18.344  0.00  0.00    +0.000 C 
BRANCH  18  19
ATOM     19  C   UNL     1       3.325   2.515  17.832  0.00  0.00    +0.000 C 
BRANCH  19  20
ATOM     20  C   UNL     1       3.399   3.846  17.082  0.00  0.00    +0.000 C 
BRANCH  20  21
ATOM     21  C   UNL     1       4.794   4.099  16.566  0.00  0.00    +0.000 A 
ATOM     22  C   UNL     1       5.810   4.507  17.438  0.00  0.00    +0.000 A 
ATOM     23  C   UNL     1       7.083   4.802  16.948  0.00  0.00    +0.000 A 
ATOM     24  C   UNL     1       7.352   4.695  15.585  0.00  0.00    +0.000 A 
ATOM     25  C   UNL     1       6.350   4.282  14.710  0.00  0.00    +0.000 A 
ATOM     26  C   UNL     1       5.077   3.982  15.197  0.00  0.00    +0.000 A 
ENDBRANCH  20  21
ENDBRANCH  19  20
ENDBRANCH  18  19
ENDBRANCH  17  18
ENDBRANCH  16  17
ENDBRANCH  15  16
ENDBRANCH   1  15
TORSDOF 10
ENDMDL
MODEL 7
REMARK VINA RESULT:      -6.9      5.458      6.931
REMARK  Name = 
REMARK  10 active torsions:
REMARK  status: ('A' for Active; 'I' for Inactive)
REMARK    1  A    between atoms: O_1  and  C_2
REMARK    2  A    between atoms: C_2  and  C_3
REMARK    3  A    between atoms: C_2  and  C_15
REMARK    4  A    between atoms: C_3  and  C_4
REMARK    5  A    between atoms: C_4  and  C_5
REMARK    6  A    between atoms: C_5  and  C_6
REMARK    7  A    between atoms: C_6  and  C_7
REMARK    8  A    between atoms: C_7  and  C_8
REMARK    9  A    between atoms: C_8  and  C_9
REMARK   10  A    between atoms: C_18  and  C_19
REMARK                            x       y       z     vdW  Elec       q    Type
REMARK                         _______ _______ _______ _____ _____    ______ ____
ROOT
ATOM      1  C   UNL     1       2.639   7.369  19.429  0.00  0.00    +0.000 C 
ENDROOT
BRANCH   1   2
ATOM      2  C   UNL     1       1.690   8.523  19.321  0.00  0.00    +0.000 A 
ATOM      3  N   UNL     1       1.255   9.119  18.225  0.00  0.00    +0.000 NA
ATOM      4  C   UNL     1       0.418  10.097  18.699  0.00  0.00    +0.000 A 
ATOM      5  C   UNL     1       0.343  10.043  20.075  0.00  0.00    +0.000 A 
ATOM      6  O   UNL     1       1.166   9.027  20.484  0.00  0.00    +0.000 OA
BRANCH   5   7
ATOM      7  C   UNL     1      -0.399  10.774  21.077  0.00  0.00    +0.000 A 
ATOM      8  N   UNL     1      -1.022  11.895  20.659  0.00  0.00    +0.000 NA
ATOM      9  C   UNL     1      -1.813  12.496  21.567  0.00  0.00    +0.000 A 
ATOM     10  C   UNL     1      -1.997  12.023  22.847  0.00  0.00    +0.000 A 
ATOM     11  C   UNL     1      -1.297  10.885  23.169  0.00  0.00    +0.000 A 
ATOM     12  N   UNL     1      -0.493  10.240  22.307  0.00  0.00    +0.000 NA
ENDBRANCH   5   7
ENDBRANCH   1   2
BRANCH   1  13
ATOM     13  O   UNL     1       2.229   6.526  20.508  0.00  0.00    +0.000 OA
ATOM     14  H   UNL     1       2.000   7.103  21.252  0.00  0.00    +0.000 HD
ENDBRANCH   1  13
BRANCH   1  15
ATOM     15  C   UNL     1       2.743   6.570  18.125  0.00  0.00    +0.000 C 
BRANCH  15  16
ATOM     16  C   UNL     1       4.049   6.836  17.370  0.00  0.00    +0.000 C 
BRANCH  16  17
ATOM     17  C   UNL     1       5.046   5.694  17.528  0.00  0.00    +0.000 C 
BRANCH  17  18
ATOM     18  C   UNL     1       4.798   4.617  16.471  0.00  0.00    +0.000 C 
BRANCH  18  19
ATOM     19  C   UNL     1       4.450   3.287  17.133  0.00  0.00    +0.000 C 
BRANCH  19  20
ATOM     20  C   UNL     1       2.939   3.064  17.196  0.00  0.00    +0.000 C 
BRANCH  20  21
ATOM     21  C   UNL     1       2.457   3.023  18.626  0.00  0.00    +0.000 A 
ATOM     22  C   UNL     1       1.120   3.302  18.932  0.00  0.00    +0.000 A 
ATOM     23  C   UNL     1       0.691   3.326  20.260  0.00  0.00    +0.000 A 
ATOM     24  C   UNL     1       1.592   3.075  21.293  0.00  0.00    +0.000 A 
ATOM     25  C   UNL     1       2.924   2.788  20.998  0.00  0.00    +0.000 A 
ATOM     26  C   UNL     1       3.354   2.759  19.671  0.00  0.00    +0.000 A 
ENDBRANCH  20  21
ENDBRANCH  19  20
ENDBRANCH  18  19
ENDBRANCH  17  18
ENDBRANCH  16  17
ENDBRANCH  15  16
ENDBRANCH   1  15
TORSDOF 10
ENDMDL
MODEL 8
REMARK VINA RESULT:      -6.9      3.052      9.369
REMARK  Name = 
REMARK  10 active torsions:
REMARK  status: ('A' for Active; 'I' for Inactive)
REMARK    1  A    between atoms: O_1  and  C_2
REMARK    2  A    between atoms: C_2  and  C_3
REMARK    3  A    between atoms: C_2  and  C_15
REMARK    4  A    between atoms: C_3  and  C_4
REMARK    5  A    between atoms: C_4  and  C_5
REMARK    6  A    between atoms: C_5  and  C_6
REMARK    7  A    between atoms: C_6  and  C_7
REMARK    8  A    between atoms: C_7  and  C_8
REMARK    9  A    between atoms: C_8  and  C_9
REMARK   10  A    between atoms: C_18  and  C_19
REMARK                            x       y       z     vdW  Elec       q    Type
REMARK                         _______ _______ _______ _____ _____    ______ ____
ROOT
ATOM      1  C   UNL     1       7.140   5.699  16.930  0.00  0.00    +0.000 C 
ENDROOT
BRANCH   1   2
ATOM      2  C   UNL     1       5.916   4.838  17.002  0.00  0.00    +0.000 A 
ATOM      3  N   UNL     1       5.518   3.916  16.144  0.00  0.00    +0.000 NA
ATOM      4  C   UNL     1       4.353   3.444  16.692  0.00  0.00    +0.000 A 
ATOM      5  C   UNL     1       4.094   4.075  17.892  0.00  0.00    +0.000 A 
ATOM      6  O   UNL     1       5.102   4.980  18.097  0.00  0.00    +0.000 OA
BRANCH   5   7
ATOM      7  C   UNL     1       3.065   3.949  18.898  0.00  0.00    +0.000 A 
ATOM      8  N   UNL     1       3.116   4.830  19.918  0.00  0.00    +0.000 NA
ATOM      9  C   UNL     1       2.083   4.787  20.780  0.00  0.00    +0.000 A 
ATOM     10  C   UNL     1       1.026   3.915  20.655  0.00  0.00    +0.000 A 
ATOM     11  C   UNL     1       1.088   3.049  19.590  0.00  0.00    +0.000 A 
ATOM     12  N   UNL     1       2.091   3.044  18.696  0.00  0.00    +0.000 NA
ENDBRANCH   5   7
ENDBRANCH   1   2
BRANCH   1  13
ATOM     13  O   UNL     1       7.637   5.694  15.590  0.00  0.00    +0.000 OA
ATOM     14  H   UNL     1       6.874   5.588  15.001  0.00  0.00    +0.000 HD
ENDBRANCH   1  13
BRANCH   1  15
ATOM     15  C   UNL     1       6.878   7.132  17.406  0.00  0.00    +0.000 C 
BRANCH  15  16
ATOM     16  C   UNL     1       8.088   7.754  18.110  0.00  0.00    +0.000 C 
BRANCH  16  17
ATOM     17  C   UNL     1       8.217   9.244  17.819  0.00  0.00    +0.000 C 
BRANCH  17  18
ATOM     18  C   UNL     1       9.062   9.928  18.896  0.00  0.00    +0.000 C 
BRANCH  18  19
ATOM     19  C   UNL     1       9.709  11.195  18.345  0.00  0.00    +0.000 C 
BRANCH  19  20
ATOM     20  C   UNL     1      10.550  11.907  19.405  0.00  0.00    +0.000 C 
BRANCH  20  21
ATOM     21  C   UNL     1       9.674  12.667  20.371  0.00  0.00    +0.000 A 
ATOM     22  C   UNL     1       9.647  12.321  21.727  0.00  0.00    +0.000 A 
ATOM     23  C   UNL     1       8.790  12.982  22.606  0.00  0.00    +0.000 A 
ATOM     24  C   UNL     1       7.950  13.992  22.141  0.00  0.00    +0.000 A 
ATOM     25  C   UNL     1       7.975  14.350  20.794  0.00  0.00    +0.000 A 
ATOM     26  C   UNL     1       8.835  13.693  19.913  0.00  0.00    +0.000 A 
ENDBRANCH  20  21
ENDBRANCH  19  20
ENDBRANCH  18  19
ENDBRANCH  17  18
ENDBRANCH  16  17
ENDBRANCH  15  16
ENDBRANCH   1  15
TORSDOF 10
ENDMDL
MODEL 9
REMARK VINA RESULT:      -6.9      2.986      9.743
REMARK  Name = 
REMARK  10 active torsions:
REMARK  status: ('A' for Active; 'I' for Inactive)
REMARK    1  A    between atoms: O_1  and  C_2
REMARK    2  A    between atoms: C_2  and  C_3
REMARK    3  A    between atoms: C_2  and  C_15
REMARK    4  A    between atoms: C_3  and  C_4
REMARK    5  A    between atoms: C_4  and  C_5
REMARK    6  A    between atoms: C_5  and  C_6
REMARK    7  A    between atoms: C_6  and  C_7
REMARK    8  A    between atoms: C_7  and  C_8
REMARK    9  A    between atoms: C_8  and  C_9
REMARK   10  A    between atoms: C_18  and  C_19
REMARK                            x       y       z     vdW  Elec       q    Type
REMARK                         _______ _______ _______ _____ _____    ______ ____
ROOT
ATOM      1  C   UNL     1       7.178   5.886  16.986  0.00  0.00    +0.000 C 
ENDROOT
BRANCH   1   2
ATOM      2  C   UNL     1       5.994   4.982  17.147  0.00  0.00    +0.000 A 
ATOM      3  N   UNL     1       5.499   4.126  16.272  0.00  0.00    +0.000 NA
ATOM      4  C   UNL     1       4.431   3.570  16.931  0.00  0.00    +0.000 A 
ATOM      5  C   UNL     1       4.330   4.085  18.207  0.00  0.00    +0.000 A 
ATOM      6  O   UNL     1       5.339   5.001  18.352  0.00  0.00    +0.000 OA
BRANCH   5   7
ATOM      7  C   UNL     1       3.456   3.839  19.330  0.00  0.00    +0.000 A 
ATOM      8  N   UNL     1       3.720   2.739  20.064  0.00  0.00    +0.000 NA
ATOM      9  C   UNL     1       2.982   2.589  21.179  0.00  0.00    +0.000 A 
ATOM     10  C   UNL     1       2.013   3.483  21.575  0.00  0.00    +0.000 A 
ATOM     11  C   UNL     1       1.815   4.557  20.741  0.00  0.00    +0.000 A 
ATOM     12  N   UNL     1       2.520   4.762  19.615  0.00  0.00    +0.000 NA
ENDBRANCH   5   7
ENDBRANCH   1   2
BRANCH   1  13
ATOM     13  O   UNL     1       7.632   5.824  15.632  0.00  0.00    +0.000 OA
ATOM     14  H   UNL     1       6.898   6.113  15.069  0.00  0.00    +0.000 HD
ENDBRANCH   1  13
BRANCH   1  15
ATOM     15  C   UNL     1       6.871   7.332  17.389  0.00  0.00    +0.000 C 
BRANCH  15  16
ATOM     16  C   UNL     1       8.075   8.040  18.019  0.00  0.00    +0.000 C 
BRANCH  16  17
ATOM     17  C   UNL     1       8.380   9.369  17.338  0.00  0.00    +0.000 C 
BRANCH  17  18
ATOM     18  C   UNL     1       8.464  10.493  18.372  0.00  0.00    +0.000 C 
BRANCH  18  19
ATOM     19  C   UNL     1       9.453  10.132  19.476  0.00  0.00    +0.000 C 
BRANCH  19  20
ATOM     20  C   UNL     1      10.103  11.376  20.083  0.00  0.00    +0.000 C 
BRANCH  20  21
ATOM     21  C   UNL     1      10.561  12.328  19.004  0.00  0.00    +0.000 A 
ATOM     22  C   UNL     1       9.926  13.563  18.832  0.00  0.00    +0.000 A 
ATOM     23  C   UNL     1      10.308  14.414  17.795  0.00  0.00    +0.000 A 
ATOM     24  C   UNL     1      11.326  14.039  16.919  0.00  0.00    +0.000 A 
ATOM     25  C   UNL     1      11.971  12.815  17.087  0.00  0.00    +0.000 A 
ATOM     26  C   UNL     1      11.593  11.964  18.127  0.00  0.00    +0.000 A 
ENDBRANCH  20  21
ENDBRANCH  19  20
ENDBRANCH  18  19
ENDBRANCH  17  18
ENDBRANCH  16  17
ENDBRANCH  15  16
ENDBRANCH   1  15
TORSDOF 10
ENDMDL
