MODEL 1
REMARK VINA RESULT:      -5.9      0.000      0.000
REMARK  Name = 
REMARK  25 active torsions:
REMARK  status: ('A' for Active; 'I' for Inactive)
REMARK    1  A    between atoms: C_1  and  C_2
REMARK    2  A    between atoms: C_2  and  C_3
REMARK    3  A    between atoms: C_3  and  C_4
REMARK    4  A    between atoms: C_4  and  C_5
REMARK    5  A    between atoms: C_5  and  C_6
REMARK    6  A    between atoms: C_6  and  C_7
REMARK    7  A    between atoms: C_7  and  C_8
REMARK    8  A    between atoms: C_8  and  C_9
REMARK    9  A    between atoms: C_9  and  C_10
REMARK   10  A    between atoms: C_10  and  C_11
REMARK   11  A    between atoms: C_11  and  C_12
REMARK   12  A    between atoms: C_12  and  C_13
REMARK   13  A    between atoms: C_13  and  C_14
REMARK   14  A    between atoms: C_15  and  C_16
REMARK   15  A    between atoms: C_16  and  O_17
REMARK   16  A    between atoms: C_16  and  C_18
REMARK   17  A    between atoms: C_18  and  C_19
REMARK   18  A    between atoms: C_18  and  N_21
REMARK   19  A    between atoms: C_19  and  O_20
REMARK   20  A    between atoms: C_22  and  C_24
REMARK   21  A    between atoms: C_24  and  O_25
REMARK   22  A    between atoms: C_24  and  C_26
REMARK   23  A    between atoms: C_26  and  C_27
REMARK   24  A    between atoms: C_27  and  C_28
REMARK   25  A    between atoms: C_28  and  C_29
REMARK                            x       y       z     vdW  Elec       q    Type
REMARK                         _______ _______ _______ _____ _____    ______ ____
ROOT
ATOM      1  C   UNK A   1       6.219   4.256  17.164  0.00  0.00    +0.000 C 
ENDROOT
BRANCH   1   3
ATOM      2  C   UNK A   1       3.745   3.740  17.517  0.00  0.00    +0.000 C 
ATOM      3  C   UNK A   1       4.944   3.478  16.977  0.00  0.00    +0.000 C 
BRANCH   2   4
ATOM      4  C   UNK A   1       2.520   2.947  17.175  0.00  0.00    +0.000 C 
BRANCH   4   5
ATOM      5  C   UNK A   1       2.262   1.855  18.205  0.00  0.00    +0.000 C 
BRANCH   5   6
ATOM      6  C   UNK A   1       2.130   2.470  19.593  0.00  0.00    +0.000 C 
BRANCH   6   7
ATOM      7  C   UNK A   1       0.773   3.145  19.741  0.00  0.00    +0.000 C 
BRANCH   7   8
ATOM      8  C   UNK A   1       0.918   4.470  20.478  0.00  0.00    +0.000 C 
BRANCH   8   9
ATOM      9  C   UNK A   1       2.320   4.604  21.039  0.00  0.00    +0.000 C 
BRANCH   9  10
ATOM     10  C   UNK A   1       3.123   5.586  20.204  0.00  0.00    +0.000 C 
BRANCH  10  11
ATOM     11  C   UNK A   1       2.193   6.580  19.528  0.00  0.00    +0.000 C 
BRANCH  11  12
ATOM     12  C   UNK A   1       2.884   7.217  18.334  0.00  0.00    +0.000 C 
BRANCH  12  13
ATOM     13  C   UNK A   1       1.920   8.138  17.600  0.00  0.00    +0.000 C 
BRANCH  13  14
ATOM     14  C   UNK A   1       1.835   9.483  18.306  0.00  0.00    +0.000 C 
BRANCH  14  16
ATOM     15  C   UNK A   1       0.041  10.029  19.958  0.00  0.00    +0.000 C 
ATOM     16  C   UNK A   1       0.384   9.907  18.486  0.00  0.00    +0.000 C 
ENDBRANCH  14  16
ENDBRANCH  13  14
ENDBRANCH  12  13
ENDBRANCH  11  12
ENDBRANCH  10  11
ENDBRANCH   9  10
ENDBRANCH   8   9
ENDBRANCH   7   8
ENDBRANCH   6   7
ENDBRANCH   5   6
ENDBRANCH   4   5
ENDBRANCH   2   4
ENDBRANCH   1   3
BRANCH   1  17
ATOM     17  O   UNK A   1       6.050   5.166  18.261  0.00  0.00    +0.000 OA
ATOM     18  H   UNK A   1       6.503   4.806  19.040  0.00  0.00    +0.000 HD
ENDBRANCH   1  17
BRANCH   1  19
ATOM     19  C   UNK A   1       6.803   5.031  15.952  0.00  0.00    +0.000 C 
BRANCH  19  20
ATOM     20  N   UNK A   1       6.397   4.453  14.662  0.00  0.00    +0.000 N 
ATOM     21  C   UNK A   0       7.123   4.731  13.524  0.00  0.00    +0.000 C 
ATOM     22  O   UNK A   0       8.157   5.398  13.549  0.00  0.00    +0.000 OA
ATOM     23  H   UNK A   1       5.424   4.194  14.547  0.00  0.00    +0.000 HD
BRANCH  21  24
ATOM     24  C   UNK A   0       6.540   4.186  12.212  0.00  0.00    +0.000 C 
BRANCH  24  25
ATOM     25  O   UNK A   0       7.400   3.141  11.765  0.00  0.00    +0.000 OA
ATOM     26  H   UNK A   0       8.314   3.467  11.881  0.00  0.00    +0.000 HD
ENDBRANCH  24  25
BRANCH  24  27
ATOM     27  C   UNK A   0       5.122   3.640  12.415  0.00  0.00    +0.000 C 
BRANCH  27  28
ATOM     28  C   UNK A   0       4.658   2.799  11.223  0.00  0.00    +0.000 C 
BRANCH  28  29
ATOM     29  C   UNK A   0       3.216   3.121  10.841  0.00  0.00    +0.000 C 
ATOM     30  C   UNK A   0       3.175   4.168   9.741  0.00  0.00    +0.000 C 
ENDBRANCH  28  29
ENDBRANCH  27  28
ENDBRANCH  24  27
ENDBRANCH  21  24
ENDBRANCH  19  20
BRANCH  19  31
ATOM     31  C   UNK A   1       6.404   6.521  16.041  0.00  0.00    +0.000 C 
BRANCH  31  32
ATOM     32  O   UNK A   1       5.076   6.750  15.565  0.00  0.00    +0.000 OA
ATOM     33  H   UNK A   1       5.102   7.590  15.071  0.00  0.00    +0.000 HD
ENDBRANCH  31  32
ENDBRANCH  19  31
ENDBRANCH   1  19
TORSDOF 23
ENDMDL
MODEL 2
REMARK VINA RESULT:      -5.8      2.536      6.144
REMARK  Name = 
REMARK  25 active torsions:
REMARK  status: ('A' for Active; 'I' for Inactive)
REMARK    1  A    between atoms: C_1  and  C_2
REMARK    2  A    between atoms: C_2  and  C_3
REMARK    3  A    between atoms: C_3  and  C_4
REMARK    4  A    between atoms: C_4  and  C_5
REMARK    5  A    between atoms: C_5  and  C_6
REMARK    6  A    between atoms: C_6  and  C_7
REMARK    7  A    between atoms: C_7  and  C_8
REMARK    8  A    between atoms: C_8  and  C_9
REMARK    9  A    between atoms: C_9  and  C_10
REMARK   10  A    between atoms: C_10  and  C_11
REMARK   11  A    between atoms: C_11  and  C_12
REMARK   12  A    between atoms: C_12  and  C_13
REMARK   13  A    between atoms: C_13  and  C_14
REMARK   14  A    between atoms: C_15  and  C_16
REMARK   15  A    between atoms: C_16  and  O_17
REMARK   16  A    between atoms: C_16  and  C_18
REMARK   17  A    between atoms: C_18  and  C_19
REMARK   18  A    between atoms: C_18  and  N_21
REMARK   19  A    between atoms: C_19  and  O_20
REMARK   20  A    between atoms: C_22  and  C_24
REMARK   21  A    between atoms: C_24  and  O_25
REMARK   22  A    between atoms: C_24  and  C_26
REMARK   23  A    between atoms: C_26  and  C_27
REMARK   24  A    between atoms: C_27  and  C_28
REMARK   25  A    between atoms: C_28  and  C_29
REMARK                            x       y       z     vdW  Elec       q    Type
REMARK                         _______ _______ _______ _____ _____    ______ ____
ROOT
ATOM      1  C   UNK A   1       5.342   6.295  17.304  0.00  0.00    +0.000 C 
ENDROOT
BRANCH   1   3
ATOM      2  C   UNK A   1       3.196   7.434  18.087  0.00  0.00    +0.000 C 
ATOM      3  C   UNK A   1       4.089   7.113  17.138  0.00  0.00    +0.000 C 
BRANCH   2   4
ATOM      4  C   UNK A   1       2.035   8.343  17.822  0.00  0.00    +0.000 C 
BRANCH   4   5
ATOM      5  C   UNK A   1       1.468   8.907  19.118  0.00  0.00    +0.000 C 
BRANCH   5   6
ATOM      6  C   UNK A   1       1.739   7.944  20.267  0.00  0.00    +0.000 C 
BRANCH   6   7
ATOM      7  C   UNK A   1       1.193   8.514  21.569  0.00  0.00    +0.000 C 
BRANCH   7   8
ATOM      8  C   UNK A   1       0.861   9.990  21.403  0.00  0.00    +0.000 C 
BRANCH   8   9
ATOM      9  C   UNK A   1      -0.311  10.365  22.288  0.00  0.00    +0.000 C 
BRANCH   9  10
ATOM     10  C   UNK A   1      -1.112  11.484  21.645  0.00  0.00    +0.000 C 
BRANCH  10  11
ATOM     11  C   UNK A   1      -0.883  11.494  20.143  0.00  0.00    +0.000 C 
BRANCH  11  12
ATOM     12  C   UNK A   1      -1.240  12.853  19.567  0.00  0.00    +0.000 C 
BRANCH  12  13
ATOM     13  C   UNK A   1      -0.031  13.461  18.870  0.00  0.00    +0.000 C 
BRANCH  13  14
ATOM     14  C   UNK A   1       1.018  13.871  19.894  0.00  0.00    +0.000 C 
BRANCH  14  16
ATOM     15  C   UNK A   1       2.283  12.378  18.339  0.00  0.00    +0.000 C 
ATOM     16  C   UNK A   1       2.393  13.357  19.492  0.00  0.00    +0.000 C 
ENDBRANCH  14  16
ENDBRANCH  13  14
ENDBRANCH  12  13
ENDBRANCH  11  12
ENDBRANCH  10  11
ENDBRANCH   9  10
ENDBRANCH   8   9
ENDBRANCH   7   8
ENDBRANCH   6   7
ENDBRANCH   5   6
ENDBRANCH   4   5
ENDBRANCH   2   4
ENDBRANCH   1   3
BRANCH   1  17
ATOM     17  O   UNK A   1       6.435   6.990  16.687  0.00  0.00    +0.000 OA
ATOM     18  H   UNK A   1       6.125   7.862  16.391  0.00  0.00    +0.000 HD
ENDBRANCH   1  17
BRANCH   1  19
ATOM     19  C   UNK A   1       5.340   4.822  16.814  0.00  0.00    +0.000 C 
BRANCH  19  20
ATOM     20  N   UNK A   1       4.008   4.202  16.889  0.00  0.00    +0.000 N 
ATOM     21  C   UNK A   0       3.738   3.267  17.865  0.00  0.00    +0.000 C 
ATOM     22  O   UNK A   0       4.554   2.972  18.737  0.00  0.00    +0.000 OA
ATOM     23  H   UNK A   1       3.456   4.169  16.040  0.00  0.00    +0.000 HD
BRANCH  21  24
ATOM     24  C   UNK A   0       2.364   2.588  17.774  0.00  0.00    +0.000 C 
BRANCH  24  25
ATOM     25  O   UNK A   0       2.390   1.456  18.639  0.00  0.00    +0.000 OA
ATOM     26  H   UNK A   0       2.429   1.806  19.551  0.00  0.00    +0.000 HD
ENDBRANCH  24  25
BRANCH  24  27
ATOM     27  C   UNK A   0       1.240   3.540  18.200  0.00  0.00    +0.000 C 
BRANCH  27  28
ATOM     28  C   UNK A   0       0.817   3.311  19.652  0.00  0.00    +0.000 C 
BRANCH  28  29
ATOM     29  C   UNK A   0       1.510   4.288  20.597  0.00  0.00    +0.000 C 
ATOM     30  C   UNK A   0       2.231   3.539  21.706  0.00  0.00    +0.000 C 
ENDBRANCH  28  29
ENDBRANCH  27  28
ENDBRANCH  24  27
ENDBRANCH  21  24
ENDBRANCH  19  20
BRANCH  19  31
ATOM     31  C   UNK A   1       5.905   4.748  15.377  0.00  0.00    +0.000 C 
BRANCH  31  32
ATOM     32  O   UNK A   1       6.356   3.432  15.046  0.00  0.00    +0.000 OA
ATOM     33  H   UNK A   1       6.506   3.427  14.083  0.00  0.00    +0.000 HD
ENDBRANCH  31  32
ENDBRANCH  19  31
ENDBRANCH   1  19
TORSDOF 23
ENDMDL
MODEL 3
REMARK VINA RESULT:      -5.8      2.498      5.410
REMARK  Name = 
REMARK  25 active torsions:
REMARK  status: ('A' for Active; 'I' for Inactive)
REMARK    1  A    between atoms: C_1  and  C_2
REMARK    2  A    between atoms: C_2  and  C_3
REMARK    3  A    between atoms: C_3  and  C_4
REMARK    4  A    between atoms: C_4  and  C_5
REMARK    5  A    between atoms: C_5  and  C_6
REMARK    6  A    between atoms: C_6  and  C_7
REMARK    7  A    between atoms: C_7  and  C_8
REMARK    8  A    between atoms: C_8  and  C_9
REMARK    9  A    between atoms: C_9  and  C_10
REMARK   10  A    between atoms: C_10  and  C_11
REMARK   11  A    between atoms: C_11  and  C_12
REMARK   12  A    between atoms: C_12  and  C_13
REMARK   13  A    between atoms: C_13  and  C_14
REMARK   14  A    between atoms: C_15  and  C_16
REMARK   15  A    between atoms: C_16  and  O_17
REMARK   16  A    between atoms: C_16  and  C_18
REMARK   17  A    between atoms: C_18  and  C_19
REMARK   18  A    between atoms: C_18  and  N_21
REMARK   19  A    between atoms: C_19  and  O_20
REMARK   20  A    between atoms: C_22  and  C_24
REMARK   21  A    between atoms: C_24  and  O_25
REMARK   22  A    between atoms: C_24  and  C_26
REMARK   23  A    between atoms: C_26  and  C_27
REMARK   24  A    between atoms: C_27  and  C_28
REMARK   25  A    between atoms: C_28  and  C_29
REMARK                            x       y       z     vdW  Elec       q    Type
REMARK                         _______ _______ _______ _____ _____    ______ ____
ROOT
ATOM      1  C   UNK A   1       2.926   2.842  20.182  0.00  0.00    +0.000 C 
ENDROOT
BRANCH   1   3
ATOM      2  C   UNK A   1       2.268   5.308  20.195  0.00  0.00    +0.000 C 
ATOM      3  C   UNK A   1       2.316   4.092  20.759  0.00  0.00    +0.000 C 
BRANCH   2   4
ATOM      4  C   UNK A   1       1.542   6.457  20.826  0.00  0.00    +0.000 C 
BRANCH   4   5
ATOM      5  C   UNK A   1       1.844   7.764  20.105  0.00  0.00    +0.000 C 
BRANCH   5   6
ATOM      6  C   UNK A   1       2.271   7.480  18.670  0.00  0.00    +0.000 C 
BRANCH   6   7
ATOM      7  C   UNK A   1       2.481   8.787  17.917  0.00  0.00    +0.000 C 
BRANCH   7   8
ATOM      8  C   UNK A   1       1.239   9.662  18.016  0.00  0.00    +0.000 C 
BRANCH   8   9
ATOM      9  C   UNK A   1       1.619  11.062  18.455  0.00  0.00    +0.000 C 
BRANCH   9  10
ATOM     10  C   UNK A   1       0.615  11.581  19.470  0.00  0.00    +0.000 C 
BRANCH  10  11
ATOM     11  C   UNK A   1      -0.711  10.856  19.310  0.00  0.00    +0.000 C 
BRANCH  11  12
ATOM     12  C   UNK A   1      -1.597  11.598  18.324  0.00  0.00    +0.000 C 
BRANCH  12  13
ATOM     13  C   UNK A   1      -2.048  10.658  17.215  0.00  0.00    +0.000 C 
BRANCH  13  14
ATOM     14  C   UNK A   1      -3.565  10.541  17.207  0.00  0.00    +0.000 C 
BRANCH  14  16
ATOM     15  C   UNK A   1      -3.043  10.313  14.774  0.00  0.00    +0.000 C 
ATOM     16  C   UNK A   1      -4.109  10.670  15.792  0.00  0.00    +0.000 C 
ENDBRANCH  14  16
ENDBRANCH  13  14
ENDBRANCH  12  13
ENDBRANCH  11  12
ENDBRANCH  10  11
ENDBRANCH   9  10
ENDBRANCH   8   9
ENDBRANCH   7   8
ENDBRANCH   6   7
ENDBRANCH   5   6
ENDBRANCH   4   5
ENDBRANCH   2   4
ENDBRANCH   1   3
BRANCH   1  17
ATOM     17  O   UNK A   1       3.976   2.394  21.051  0.00  0.00    +0.000 OA
ATOM     18  H   UNK A   1       4.768   2.215  20.520  0.00  0.00    +0.000 HD
ENDBRANCH   1  17
BRANCH   1  19
ATOM     19  C   UNK A   1       3.459   2.878  18.724  0.00  0.00    +0.000 C 
BRANCH  19  20
ATOM     20  N   UNK A   1       4.806   3.462  18.628  0.00  0.00    +0.000 N 
ATOM     21  C   UNK A   0       5.029   4.550  17.814  0.00  0.00    +0.000 C 
ATOM     22  O   UNK A   0       4.120   5.112  17.203  0.00  0.00    +0.000 OA
ATOM     23  H   UNK A   1       5.595   2.861  18.836  0.00  0.00    +0.000 HD
BRANCH  21  24
ATOM     24  C   UNK A   0       6.492   4.998  17.685  0.00  0.00    +0.000 C 
BRANCH  24  25
ATOM     25  O   UNK A   0       7.298   4.009  18.319  0.00  0.00    +0.000 OA
ATOM     26  H   UNK A   0       7.162   4.117  19.280  0.00  0.00    +0.000 HD
ENDBRANCH  24  25
BRANCH  24  27
ATOM     27  C   UNK A   0       6.905   5.142  16.215  0.00  0.00    +0.000 C 
BRANCH  27  28
ATOM     28  C   UNK A   0       6.235   4.090  15.328  0.00  0.00    +0.000 C 
BRANCH  28  29
ATOM     29  C   UNK A   0       6.602   4.282  13.860  0.00  0.00    +0.000 C 
ATOM     30  C   UNK A   0       5.636   3.525  12.963  0.00  0.00    +0.000 C 
ENDBRANCH  28  29
ENDBRANCH  27  28
ENDBRANCH  24  27
ENDBRANCH  21  24
ENDBRANCH  19  20
BRANCH  19  31
ATOM     31  C   UNK A   1       3.427   1.457  18.119  0.00  0.00    +0.000 C 
BRANCH  31  32
ATOM     32  O   UNK A   1       4.476   0.632  18.633  0.00  0.00    +0.000 OA
ATOM     33  H   UNK A   1       5.302   0.952  18.226  0.00  0.00    +0.000 HD
ENDBRANCH  31  32
ENDBRANCH  19  31
ENDBRANCH   1  19
TORSDOF 23
ENDMDL
MODEL 4
REMARK VINA RESULT:      -5.8      5.088      8.715
REMARK  Name = 
REMARK  25 active torsions:
REMARK  status: ('A' for Active; 'I' for Inactive)
REMARK    1  A    between atoms: C_1  and  C_2
REMARK    2  A    between atoms: C_2  and  C_3
REMARK    3  A    between atoms: C_3  and  C_4
REMARK    4  A    between atoms: C_4  and  C_5
REMARK    5  A    between atoms: C_5  and  C_6
REMARK    6  A    between atoms: C_6  and  C_7
REMARK    7  A    between atoms: C_7  and  C_8
REMARK    8  A    between atoms: C_8  and  C_9
REMARK    9  A    between atoms: C_9  and  C_10
REMARK   10  A    between atoms: C_10  and  C_11
REMARK   11  A    between atoms: C_11  and  C_12
REMARK   12  A    between atoms: C_12  and  C_13
REMARK   13  A    between atoms: C_13  and  C_14
REMARK   14  A    between atoms: C_15  and  C_16
REMARK   15  A    between atoms: C_16  and  O_17
REMARK   16  A    between atoms: C_16  and  C_18
REMARK   17  A    between atoms: C_18  and  C_19
REMARK   18  A    between atoms: C_18  and  N_21
REMARK   19  A    between atoms: C_19  and  O_20
REMARK   20  A    between atoms: C_22  and  C_24
REMARK   21  A    between atoms: C_24  and  O_25
REMARK   22  A    between atoms: C_24  and  C_26
REMARK   23  A    between atoms: C_26  and  C_27
REMARK   24  A    between atoms: C_27  and  C_28
REMARK   25  A    between atoms: C_28  and  C_29
REMARK                            x       y       z     vdW  Elec       q    Type
REMARK                         _______ _______ _______ _____ _____    ______ ____
ROOT
ATOM      1  C   UNK A   1       0.621   9.004  21.521  0.00  0.00    +0.000 C 
ENDROOT
BRANCH   1   3
ATOM      2  C   UNK A   1       1.533   8.488  19.194  0.00  0.00    +0.000 C 
ATOM      3  C   UNK A   1       1.662   8.562  20.527  0.00  0.00    +0.000 C 
BRANCH   2   4
ATOM      4  C   UNK A   1       2.677   8.128  18.296  0.00  0.00    +0.000 C 
BRANCH   4   5
ATOM      5  C   UNK A   1       2.422   6.810  17.578  0.00  0.00    +0.000 C 
BRANCH   5   6
ATOM      6  C   UNK A   1       2.497   5.655  18.568  0.00  0.00    +0.000 C 
BRANCH   6   7
ATOM      7  C   UNK A   1       1.830   4.417  17.983  0.00  0.00    +0.000 C 
BRANCH   7   8
ATOM      8  C   UNK A   1       2.847   3.577  17.223  0.00  0.00    +0.000 C 
BRANCH   8   9
ATOM      9  C   UNK A   1       4.212   3.695  17.873  0.00  0.00    +0.000 C 
BRANCH   9  10
ATOM     10  C   UNK A   1       5.294   3.733  16.807  0.00  0.00    +0.000 C 
BRANCH  10  11
ATOM     11  C   UNK A   1       4.857   4.617  15.651  0.00  0.00    +0.000 C 
BRANCH  11  12
ATOM     12  C   UNK A   1       5.463   6.003  15.793  0.00  0.00    +0.000 C 
BRANCH  12  13
ATOM     13  C   UNK A   1       6.845   5.909  16.424  0.00  0.00    +0.000 C 
BRANCH  13  14
ATOM     14  C   UNK A   1       7.027   7.009  17.460  0.00  0.00    +0.000 C 
BRANCH  14  16
ATOM     15  C   UNK A   1       7.190   5.534  19.472  0.00  0.00    +0.000 C 
ATOM     16  C   UNK A   1       7.921   6.535  18.597  0.00  0.00    +0.000 C 
ENDBRANCH  14  16
ENDBRANCH  13  14
ENDBRANCH  12  13
ENDBRANCH  11  12
ENDBRANCH  10  11
ENDBRANCH   9  10
ENDBRANCH   8   9
ENDBRANCH   7   8
ENDBRANCH   6   7
ENDBRANCH   5   6
ENDBRANCH   4   5
ENDBRANCH   2   4
ENDBRANCH   1   3
BRANCH   1  17
ATOM     17  O   UNK A   1      -0.479   8.083  21.482  0.00  0.00    +0.000 OA
ATOM     18  H   UNK A   1      -1.309   8.585  21.510  0.00  0.00    +0.000 HD
ENDBRANCH   1  17
BRANCH   1  19
ATOM     19  C   UNK A   1       0.070  10.452  21.428  0.00  0.00    +0.000 C 
BRANCH  19  20
ATOM     20  N   UNK A   1      -0.788  10.657  20.251  0.00  0.00    +0.000 N 
ATOM     21  C   UNK A   0      -0.940  11.920  19.721  0.00  0.00    +0.000 C 
ATOM     22  O   UNK A   0      -0.326  12.893  20.154  0.00  0.00    +0.000 OA
ATOM     23  H   UNK A   1      -1.527   9.985  20.084  0.00  0.00    +0.000 HD
BRANCH  21  24
ATOM     24  C   UNK A   0      -1.957  12.044  18.577  0.00  0.00    +0.000 C 
BRANCH  24  25
ATOM     25  O   UNK A   0      -1.270  12.590  17.454  0.00  0.00    +0.000 OA
ATOM     26  H   UNK A   0      -1.474  12.007  16.696  0.00  0.00    +0.000 HD
ENDBRANCH  24  25
BRANCH  24  27
ATOM     27  C   UNK A   0      -2.553  10.681  18.208  0.00  0.00    +0.000 C 
BRANCH  27  28
ATOM     28  C   UNK A   0      -1.915  10.102  16.943  0.00  0.00    +0.000 C 
BRANCH  28  29
ATOM     29  C   UNK A   0      -2.971   9.580  15.973  0.00  0.00    +0.000 C 
ATOM     30  C   UNK A   0      -2.998  10.420  14.708  0.00  0.00    +0.000 C 
ENDBRANCH  28  29
ENDBRANCH  27  28
ENDBRANCH  24  27
ENDBRANCH  21  24
ENDBRANCH  19  20
BRANCH  19  31
ATOM     31  C   UNK A   1      -0.682  10.811  22.729  0.00  0.00    +0.000 C 
BRANCH  31  32
ATOM     32  O   UNK A   1      -0.407   9.883  23.781  0.00  0.00    +0.000 OA
ATOM     33  H   UNK A   1       0.255   9.258  23.431  0.00  0.00    +0.000 HD
ENDBRANCH  31  32
ENDBRANCH  19  31
ENDBRANCH   1  19
TORSDOF 23
ENDMDL
MODEL 5
REMARK VINA RESULT:      -5.7      4.375      8.404
REMARK  Name = 
REMARK  25 active torsions:
REMARK  status: ('A' for Active; 'I' for Inactive)
REMARK    1  A    between atoms: C_1  and  C_2
REMARK    2  A    between atoms: C_2  and  C_3
REMARK    3  A    between atoms: C_3  and  C_4
REMARK    4  A    between atoms: C_4  and  C_5
REMARK    5  A    between atoms: C_5  and  C_6
REMARK    6  A    between atoms: C_6  and  C_7
REMARK    7  A    between atoms: C_7  and  C_8
REMARK    8  A    between atoms: C_8  and  C_9
REMARK    9  A    between atoms: C_9  and  C_10
REMARK   10  A    between atoms: C_10  and  C_11
REMARK   11  A    between atoms: C_11  and  C_12
REMARK   12  A    between atoms: C_12  and  C_13
REMARK   13  A    between atoms: C_13  and  C_14
REMARK   14  A    between atoms: C_15  and  C_16
REMARK   15  A    between atoms: C_16  and  O_17
REMARK   16  A    between atoms: C_16  and  C_18
REMARK   17  A    between atoms: C_18  and  C_19
REMARK   18  A    between atoms: C_18  and  N_21
REMARK   19  A    between atoms: C_19  and  O_20
REMARK   20  A    between atoms: C_22  and  C_24
REMARK   21  A    between atoms: C_24  and  O_25
REMARK   22  A    between atoms: C_24  and  C_26
REMARK   23  A    between atoms: C_26  and  C_27
REMARK   24  A    between atoms: C_27  and  C_28
REMARK   25  A    between atoms: C_28  and  C_29
REMARK                            x       y       z     vdW  Elec       q    Type
REMARK                         _______ _______ _______ _____ _____    ______ ____
ROOT
ATOM      1  C   UNK A   1       1.335   9.662  18.048  0.00  0.00    +0.000 C 
ENDROOT
BRANCH   1   3
ATOM      2  C   UNK A   1       1.799   7.275  18.822  0.00  0.00    +0.000 C 
ATOM      3  C   UNK A   1       1.970   8.603  18.909  0.00  0.00    +0.000 C 
BRANCH   2   4
ATOM      4  C   UNK A   1       2.568   6.310  19.672  0.00  0.00    +0.000 C 
BRANCH   4   5
ATOM      5  C   UNK A   1       1.633   5.443  20.506  0.00  0.00    +0.000 C 
BRANCH   5   6
ATOM      6  C   UNK A   1       2.438   4.406  21.279  0.00  0.00    +0.000 C 
BRANCH   6   7
ATOM      7  C   UNK A   1       1.913   3.007  20.984  0.00  0.00    +0.000 C 
BRANCH   7   8
ATOM      8  C   UNK A   1       0.732   3.077  20.024  0.00  0.00    +0.000 C 
BRANCH   8   9
ATOM      9  C   UNK A   1       1.074   2.375  18.724  0.00  0.00    +0.000 C 
BRANCH   9  10
ATOM     10  C   UNK A   1       2.420   1.682  18.844  0.00  0.00    +0.000 C 
BRANCH  10  11
ATOM     11  C   UNK A   1       3.307   2.056  17.668  0.00  0.00    +0.000 C 
BRANCH  11  12
ATOM     12  C   UNK A   1       3.122   3.523  17.318  0.00  0.00    +0.000 C 
BRANCH  12  13
ATOM     13  C   UNK A   1       4.408   4.090  16.736  0.00  0.00    +0.000 C 
BRANCH  13  14
ATOM     14  C   UNK A   1       5.201   4.815  17.814  0.00  0.00    +0.000 C 
BRANCH  14  16
ATOM     15  C   UNK A   1       6.982   4.600  16.073  0.00  0.00    +0.000 C 
ATOM     16  C   UNK A   1       6.697   4.689  17.561  0.00  0.00    +0.000 C 
ENDBRANCH  14  16
ENDBRANCH  13  14
ENDBRANCH  12  13
ENDBRANCH  11  12
ENDBRANCH  10  11
ENDBRANCH   9  10
ENDBRANCH   8   9
ENDBRANCH   7   8
ENDBRANCH   6   7
ENDBRANCH   5   6
ENDBRANCH   4   5
ENDBRANCH   2   4
ENDBRANCH   1   3
BRANCH   1  17
ATOM     17  O   UNK A   1       2.365  10.354  17.327  0.00  0.00    +0.000 OA
ATOM     18  H   UNK A   1       1.962  10.828  16.582  0.00  0.00    +0.000 HD
ENDBRANCH   1  17
BRANCH   1  19
ATOM     19  C   UNK A   1       0.402  10.706  18.720  0.00  0.00    +0.000 C 
BRANCH  19  20
ATOM     20  N   UNK A   1      -1.020  10.458  18.439  0.00  0.00    +0.000 N 
ATOM     21  C   UNK A   0      -1.891  11.517  18.306  0.00  0.00    +0.000 C 
ATOM     22  O   UNK A   0      -1.514  12.688  18.344  0.00  0.00    +0.000 OA
ATOM     23  H   UNK A   1      -1.407   9.564  18.719  0.00  0.00    +0.000 HD
BRANCH  21  24
ATOM     24  C   UNK A   0      -3.372  11.146  18.145  0.00  0.00    +0.000 C 
BRANCH  24  25
ATOM     25  O   UNK A   0      -4.066  12.323  17.739  0.00  0.00    +0.000 OA
ATOM     26  H   UNK A   0      -4.140  12.887  18.534  0.00  0.00    +0.000 HD
ENDBRANCH  24  25
BRANCH  24  27
ATOM     27  C   UNK A   0      -3.562  10.045  17.094  0.00  0.00    +0.000 C 
BRANCH  27  28
ATOM     28  C   UNK A   0      -3.869  10.623  15.711  0.00  0.00    +0.000 C 
BRANCH  28  29
ATOM     29  C   UNK A   0      -2.869  10.136  14.667  0.00  0.00    +0.000 C 
ATOM     30  C   UNK A   0      -3.570   9.828  13.355  0.00  0.00    +0.000 C 
ENDBRANCH  28  29
ENDBRANCH  27  28
ENDBRANCH  24  27
ENDBRANCH  21  24
ENDBRANCH  19  20
BRANCH  19  31
ATOM     31  C   UNK A   1       0.667  10.743  20.241  0.00  0.00    +0.000 C 
BRANCH  31  32
ATOM     32  O   UNK A   1      -0.370  10.096  20.983  0.00  0.00    +0.000 OA
ATOM     33  H   UNK A   1      -0.144   9.147  21.001  0.00  0.00    +0.000 HD
ENDBRANCH  31  32
ENDBRANCH  19  31
ENDBRANCH   1  19
TORSDOF 23
ENDMDL
MODEL 6
REMARK VINA RESULT:      -5.6      2.389      6.078
REMARK  Name = 
REMARK  25 active torsions:
REMARK  status: ('A' for Active; 'I' for Inactive)
REMARK    1  A    between atoms: C_1  and  C_2
REMARK    2  A    between atoms: C_2  and  C_3
REMARK    3  A    between atoms: C_3  and  C_4
REMARK    4  A    between atoms: C_4  and  C_5
REMARK    5  A    between atoms: C_5  and  C_6
REMARK    6  A    between atoms: C_6  and  C_7
REMARK    7  A    between atoms: C_7  and  C_8
REMARK    8  A    between atoms: C_8  and  C_9
REMARK    9  A    between atoms: C_9  and  C_10
REMARK   10  A    between atoms: C_10  and  C_11
REMARK   11  A    between atoms: C_11  and  C_12
REMARK   12  A    between atoms: C_12  and  C_13
REMARK   13  A    between atoms: C_13  and  C_14
REMARK   14  A    between atoms: C_15  and  C_16
REMARK   15  A    between atoms: C_16  and  O_17
REMARK   16  A    between atoms: C_16  and  C_18
REMARK   17  A    between atoms: C_18  and  C_19
REMARK   18  A    between atoms: C_18  and  N_21
REMARK   19  A    between atoms: C_19  and  O_20
REMARK   20  A    between atoms: C_22  and  C_24
REMARK   21  A    between atoms: C_24  and  O_25
REMARK   22  A    between atoms: C_24  and  C_26
REMARK   23  A    between atoms: C_26  and  C_27
REMARK   24  A    between atoms: C_27  and  C_28
REMARK   25  A    between atoms: C_28  and  C_29
REMARK                            x       y       z     vdW  Elec       q    Type
REMARK                         _______ _______ _______ _____ _____    ______ ____
ROOT
ATOM      1  C   UNK A   1       5.862   5.604  16.687  0.00  0.00    +0.000 C 
ENDROOT
BRANCH   1   3
ATOM      2  C   UNK A   1       4.168   7.227  17.690  0.00  0.00    +0.000 C 
ATOM      3  C   UNK A   1       4.700   6.560  16.656  0.00  0.00    +0.000 C 
BRANCH   2   4
ATOM      4  C   UNK A   1       3.071   8.234  17.518  0.00  0.00    +0.000 C 
BRANCH   4   5
ATOM      5  C   UNK A   1       1.775   7.754  18.159  0.00  0.00    +0.000 C 
BRANCH   5   6
ATOM      6  C   UNK A   1       1.784   8.069  19.649  0.00  0.00    +0.000 C 
BRANCH   6   7
ATOM      7  C   UNK A   1       1.039   9.370  19.916  0.00  0.00    +0.000 C 
BRANCH   7   8
ATOM      8  C   UNK A   1       0.793   9.543  21.408  0.00  0.00    +0.000 C 
BRANCH   8   9
ATOM      9  C   UNK A   1       0.028  10.827  21.667  0.00  0.00    +0.000 C 
BRANCH   9  10
ATOM     10  C   UNK A   1       0.550  11.933  20.766  0.00  0.00    +0.000 C 
BRANCH  10  11
ATOM     11  C   UNK A   1      -0.343  13.159  20.874  0.00  0.00    +0.000 C 
BRANCH  11  12
ATOM     12  C   UNK A   1      -0.806  13.593  19.494  0.00  0.00    +0.000 C 
BRANCH  12  13
ATOM     13  C   UNK A   1      -0.781  12.410  18.537  0.00  0.00    +0.000 C 
BRANCH  13  14
ATOM     14  C   UNK A   1      -2.157  11.765  18.459  0.00  0.00    +0.000 C 
BRANCH  14  16
ATOM     15  C   UNK A   1      -2.058   9.934  16.760  0.00  0.00    +0.000 C 
ATOM     16  C   UNK A   1      -2.038  10.263  18.241  0.00  0.00    +0.000 C 
ENDBRANCH  14  16
ENDBRANCH  13  14
ENDBRANCH  12  13
ENDBRANCH  11  12
ENDBRANCH  10  11
ENDBRANCH   9  10
ENDBRANCH   8   9
ENDBRANCH   7   8
ENDBRANCH   6   7
ENDBRANCH   5   6
ENDBRANCH   4   5
ENDBRANCH   2   4
ENDBRANCH   1   3
BRANCH   1  17
ATOM     17  O   UNK A   1       6.855   6.050  15.752  0.00  0.00    +0.000 OA
ATOM     18  H   UNK A   1       6.411   6.477  15.002  0.00  0.00    +0.000 HD
ENDBRANCH   1  17
BRANCH   1  19
ATOM     19  C   UNK A   1       5.591   4.094  16.453  0.00  0.00    +0.000 C 
BRANCH  19  20
ATOM     20  N   UNK A   1       4.170   3.744  16.598  0.00  0.00    +0.000 N 
ATOM     21  C   UNK A   0       3.711   3.205  17.781  0.00  0.00    +0.000 C 
ATOM     22  O   UNK A   0       4.436   3.064  18.765  0.00  0.00    +0.000 OA
ATOM     23  H   UNK A   1       3.645   3.543  15.755  0.00  0.00    +0.000 HD
BRANCH  21  24
ATOM     24  C   UNK A   0       2.242   2.756  17.783  0.00  0.00    +0.000 C 
BRANCH  24  25
ATOM     25  O   UNK A   0       2.198   1.445  18.339  0.00  0.00    +0.000 OA
ATOM     26  H   UNK A   0       1.775   1.532  19.216  0.00  0.00    +0.000 HD
ENDBRANCH  24  25
BRANCH  24  27
ATOM     27  C   UNK A   0       1.370   3.703  18.616  0.00  0.00    +0.000 C 
BRANCH  27  28
ATOM     28  C   UNK A   0       0.784   3.006  19.846  0.00  0.00    +0.000 C 
BRANCH  28  29
ATOM     29  C   UNK A   0       1.587   3.325  21.103  0.00  0.00    +0.000 C 
ATOM     30  C   UNK A   0       2.148   4.736  21.037  0.00  0.00    +0.000 C 
ENDBRANCH  28  29
ENDBRANCH  27  28
ENDBRANCH  24  27
ENDBRANCH  21  24
ENDBRANCH  19  20
BRANCH  19  31
ATOM     31  C   UNK A   1       6.124   3.675  15.064  0.00  0.00    +0.000 C 
BRANCH  31  32
ATOM     32  O   UNK A   1       5.339   4.222  14.001  0.00  0.00    +0.000 OA
ATOM     33  H   UNK A   1       5.370   3.573  13.274  0.00  0.00    +0.000 HD
ENDBRANCH  31  32
ENDBRANCH  19  31
ENDBRANCH   1  19
TORSDOF 23
ENDMDL
MODEL 7
REMARK VINA RESULT:      -5.5      3.238      6.418
REMARK  Name = 
REMARK  25 active torsions:
REMARK  status: ('A' for Active; 'I' for Inactive)
REMARK    1  A    between atoms: C_1  and  C_2
REMARK    2  A    between atoms: C_2  and  C_3
REMARK    3  A    between atoms: C_3  and  C_4
REMARK    4  A    between atoms: C_4  and  C_5
REMARK    5  A    between atoms: C_5  and  C_6
REMARK    6  A    between atoms: C_6  and  C_7
REMARK    7  A    between atoms: C_7  and  C_8
REMARK    8  A    between atoms: C_8  and  C_9
REMARK    9  A    between atoms: C_9  and  C_10
REMARK   10  A    between atoms: C_10  and  C_11
REMARK   11  A    between atoms: C_11  and  C_12
REMARK   12  A    between atoms: C_12  and  C_13
REMARK   13  A    between atoms: C_13  and  C_14
REMARK   14  A    between atoms: C_15  and  C_16
REMARK   15  A    between atoms: C_16  and  O_17
REMARK   16  A    between atoms: C_16  and  C_18
REMARK   17  A    between atoms: C_18  and  C_19
REMARK   18  A    between atoms: C_18  and  N_21
REMARK   19  A    between atoms: C_19  and  O_20
REMARK   20  A    between atoms: C_22  and  C_24
REMARK   21  A    between atoms: C_24  and  O_25
REMARK   22  A    between atoms: C_24  and  C_26
REMARK   23  A    between atoms: C_26  and  C_27
REMARK   24  A    between atoms: C_27  and  C_28
REMARK   25  A    between atoms: C_28  and  C_29
REMARK                            x       y       z     vdW  Elec       q    Type
REMARK                         _______ _______ _______ _____ _____    ______ ____
ROOT
ATOM      1  C   UNK A   1       5.449   5.825  16.885  0.00  0.00    +0.000 C 
ENDROOT
BRANCH   1   3
ATOM      2  C   UNK A   1       3.208   6.731  17.705  0.00  0.00    +0.000 C 
ATOM      3  C   UNK A   1       4.515   6.870  17.435  0.00  0.00    +0.000 C 
BRANCH   2   4
ATOM      4  C   UNK A   1       2.401   7.817  18.348  0.00  0.00    +0.000 C 
BRANCH   4   5
ATOM      5  C   UNK A   1       2.159   7.526  19.823  0.00  0.00    +0.000 C 
BRANCH   5   6
ATOM      6  C   UNK A   1       1.296   8.623  20.435  0.00  0.00    +0.000 C 
BRANCH   6   7
ATOM      7  C   UNK A   1       0.775   9.551  19.346  0.00  0.00    +0.000 C 
BRANCH   7   8
ATOM      8  C   UNK A   1      -0.377  10.393  19.875  0.00  0.00    +0.000 C 
BRANCH   8   9
ATOM      9  C   UNK A   1      -1.140  11.018  18.723  0.00  0.00    +0.000 C 
BRANCH   9  10
ATOM     10  C   UNK A   1      -2.155  12.017  19.252  0.00  0.00    +0.000 C 
BRANCH  10  11
ATOM     11  C   UNK A   1      -1.485  12.983  20.215  0.00  0.00    +0.000 C 
BRANCH  11  12
ATOM     12  C   UNK A   1      -0.719  14.045  19.443  0.00  0.00    +0.000 C 
BRANCH  12  13
ATOM     13  C   UNK A   1       0.539  14.439  20.202  0.00  0.00    +0.000 C 
BRANCH  13  14
ATOM     14  C   UNK A   1       1.662  13.454  19.909  0.00  0.00    +0.000 C 
BRANCH  14  16
ATOM     15  C   UNK A   1       2.555  12.171  17.958  0.00  0.00    +0.000 C 
ATOM     16  C   UNK A   1       2.075  13.525  18.446  0.00  0.00    +0.000 C 
ENDBRANCH  14  16
ENDBRANCH  13  14
ENDBRANCH  12  13
ENDBRANCH  11  12
ENDBRANCH  10  11
ENDBRANCH   9  10
ENDBRANCH   8   9
ENDBRANCH   7   8
ENDBRANCH   6   7
ENDBRANCH   5   6
ENDBRANCH   4   5
ENDBRANCH   2   4
ENDBRANCH   1   3
BRANCH   1  17
ATOM     17  O   UNK A   1       4.717   4.970  15.995  0.00  0.00    +0.000 OA
ATOM     18  H   UNK A   1       3.770   5.168  16.078  0.00  0.00    +0.000 HD
ENDBRANCH   1  17
BRANCH   1  19
ATOM     19  C   UNK A   1       6.252   4.946  17.881  0.00  0.00    +0.000 C 
BRANCH  19  20
ATOM     20  N   UNK A   1       5.537   3.717  18.257  0.00  0.00    +0.000 N 
ATOM     21  C   UNK A   0       4.770   3.689  19.401  0.00  0.00    +0.000 C 
ATOM     22  O   UNK A   0       4.597   4.685  20.102  0.00  0.00    +0.000 OA
ATOM     23  H   UNK A   1       5.901   2.836  17.913  0.00  0.00    +0.000 HD
BRANCH  21  24
ATOM     24  C   UNK A   0       4.173   2.323  19.770  0.00  0.00    +0.000 C 
BRANCH  24  25
ATOM     25  O   UNK A   0       5.201   1.564  20.400  0.00  0.00    +0.000 OA
ATOM     26  H   UNK A   0       4.897   1.393  21.314  0.00  0.00    +0.000 HD
ENDBRANCH  24  25
BRANCH  24  27
ATOM     27  C   UNK A   0       2.980   2.472  20.722  0.00  0.00    +0.000 C 
BRANCH  27  28
ATOM     28  C   UNK A   0       1.652   2.165  20.026  0.00  0.00    +0.000 C 
BRANCH  28  29
ATOM     29  C   UNK A   0       1.005   3.430  19.472  0.00  0.00    +0.000 C 
ATOM     30  C   UNK A   0       0.955   4.515  20.535  0.00  0.00    +0.000 C 
ENDBRANCH  28  29
ENDBRANCH  27  28
ENDBRANCH  24  27
ENDBRANCH  21  24
ENDBRANCH  19  20
BRANCH  19  31
ATOM     31  C   UNK A   1       7.641   4.619  17.289  0.00  0.00    +0.000 C 
BRANCH  31  32
ATOM     32  O   UNK A   1       7.670   4.780  15.868  0.00  0.00    +0.000 OA
ATOM     33  H   UNK A   1       8.514   5.219  15.658  0.00  0.00    +0.000 HD
ENDBRANCH  31  32
ENDBRANCH  19  31
ENDBRANCH   1  19
TORSDOF 23
ENDMDL
MODEL 8
REMARK VINA RESULT:      -5.5      1.355      1.722
REMARK  Name = 
REMARK  25 active torsions:
REMARK  status: ('A' for Active; 'I' for Inactive)
REMARK    1  A    between atoms: C_1  and  C_2
REMARK    2  A    between atoms: C_2  and  C_3
REMARK    3  A    between atoms: C_3  and  C_4
REMARK    4  A    between atoms: C_4  and  C_5
REMARK    5  A    between atoms: C_5  and  C_6
REMARK    6  A    between atoms: C_6  and  C_7
REMARK    7  A    between atoms: C_7  and  C_8
REMARK    8  A    between atoms: C_8  and  C_9
REMARK    9  A    between atoms: C_9  and  C_10
REMARK   10  A    between atoms: C_10  and  C_11
REMARK   11  A    between atoms: C_11  and  C_12
REMARK   12  A    between atoms: C_12  and  C_13
REMARK   13  A    between atoms: C_13  and  C_14
REMARK   14  A    between atoms: C_15  and  C_16
REMARK   15  A    between atoms: C_16  and  O_17
REMARK   16  A    between atoms: C_16  and  C_18
REMARK   17  A    between atoms: C_18  and  C_19
REMARK   18  A    between atoms: C_18  and  N_21
REMARK   19  A    between atoms: C_19  and  O_20
REMARK   20  A    between atoms: C_22  and  C_24
REMARK   21  A    between atoms: C_24  and  O_25
REMARK   22  A    between atoms: C_24  and  C_26
REMARK   23  A    between atoms: C_26  and  C_27
REMARK   24  A    between atoms: C_27  and  C_28
REMARK   25  A    between atoms: C_28  and  C_29
REMARK                            x       y       z     vdW  Elec       q    Type
REMARK                         _______ _______ _______ _____ _____    ______ ____
ROOT
ATOM      1  C   UNK A   1       5.973   5.013  18.210  0.00  0.00    +0.000 C 
ENDROOT
BRANCH   1   3
ATOM      2  C   UNK A   1       4.038   3.510  17.496  0.00  0.00    +0.000 C 
ATOM      3  C   UNK A   1       4.673   4.691  17.522  0.00  0.00    +0.000 C 
BRANCH   2   4
ATOM      4  C   UNK A   1       2.692   3.337  16.860  0.00  0.00    +0.000 C 
BRANCH   4   5
ATOM      5  C   UNK A   1       1.578   3.803  17.788  0.00  0.00    +0.000 C 
BRANCH   5   6
ATOM      6  C   UNK A   1       1.096   2.641  18.646  0.00  0.00    +0.000 C 
BRANCH   6   7
ATOM      7  C   UNK A   1       0.920   3.091  20.090  0.00  0.00    +0.000 C 
BRANCH   7   8
ATOM      8  C   UNK A   1       2.264   3.483  20.689  0.00  0.00    +0.000 C 
BRANCH   8   9
ATOM      9  C   UNK A   1       2.181   4.871  21.295  0.00  0.00    +0.000 C 
BRANCH   9  10
ATOM     10  C   UNK A   1       1.547   5.833  20.305  0.00  0.00    +0.000 C 
BRANCH  10  11
ATOM     11  C   UNK A   1       2.445   7.043  20.104  0.00  0.00    +0.000 C 
BRANCH  11  12
ATOM     12  C   UNK A   1       2.654   7.299  18.621  0.00  0.00    +0.000 C 
BRANCH  12  13
ATOM     13  C   UNK A   1       1.407   7.928  18.017  0.00  0.00    +0.000 C 
BRANCH  13  14
ATOM     14  C   UNK A   1       1.627   9.416  17.784  0.00  0.00    +0.000 C 
BRANCH  14  16
ATOM     15  C   UNK A   1      -0.340  10.767  18.528  0.00  0.00    +0.000 C 
ATOM     16  C   UNK A   1       1.026  10.235  18.918  0.00  0.00    +0.000 C 
ENDBRANCH  14  16
ENDBRANCH  13  14
ENDBRANCH  12  13
ENDBRANCH  11  12
ENDBRANCH  10  11
ENDBRANCH   9  10
ENDBRANCH   8   9
ENDBRANCH   7   8
ENDBRANCH   6   7
ENDBRANCH   5   6
ENDBRANCH   4   5
ENDBRANCH   2   4
ENDBRANCH   1   3
BRANCH   1  17
ATOM     17  O   UNK A   1       5.700   5.825  19.361  0.00  0.00    +0.000 OA
ATOM     18  H   UNK A   1       6.377   5.651  20.035  0.00  0.00    +0.000 HD
ENDBRANCH   1  17
BRANCH   1  19
ATOM     19  C   UNK A   1       7.109   5.674  17.384  0.00  0.00    +0.000 C 
BRANCH  19  20
ATOM     20  N   UNK A   1       6.784   5.775  15.953  0.00  0.00    +0.000 N 
ATOM     21  C   UNK A   0       6.891   4.666  15.143  0.00  0.00    +0.000 C 
ATOM     22  O   UNK A   0       7.186   3.555  15.582  0.00  0.00    +0.000 OA
ATOM     23  H   UNK A   1       6.861   6.686  15.516  0.00  0.00    +0.000 HD
BRANCH  21  24
ATOM     24  C   UNK A   0       6.656   4.910  13.645  0.00  0.00    +0.000 C 
BRANCH  24  25
ATOM     25  O   UNK A   0       7.829   5.527  13.123  0.00  0.00    +0.000 OA
ATOM     26  H   UNK A   0       8.585   4.999  13.446  0.00  0.00    +0.000 HD
ENDBRANCH  24  25
BRANCH  24  27
ATOM     27  C   UNK A   0       6.385   3.597  12.901  0.00  0.00    +0.000 C 
BRANCH  27  28
ATOM     28  C   UNK A   0       5.586   3.823  11.615  0.00  0.00    +0.000 C 
BRANCH  28  29
ATOM     29  C   UNK A   0       4.127   3.410  11.784  0.00  0.00    +0.000 C 
ATOM     30  C   UNK A   0       3.475   3.183  10.431  0.00  0.00    +0.000 C 
ENDBRANCH  28  29
ENDBRANCH  27  28
ENDBRANCH  24  27
ENDBRANCH  21  24
ENDBRANCH  19  20
BRANCH  19  31
ATOM     31  C   UNK A   1       7.446   7.061  17.974  0.00  0.00    +0.000 C 
BRANCH  31  32
ATOM     32  O   UNK A   1       8.408   6.977  19.029  0.00  0.00    +0.000 OA
ATOM     33  H   UNK A   1       7.964   7.304  19.833  0.00  0.00    +0.000 HD
ENDBRANCH  31  32
ENDBRANCH  19  31
ENDBRANCH   1  19
TORSDOF 23
ENDMDL
MODEL 9
REMARK VINA RESULT:      -5.5      3.273      6.738
REMARK  Name = 
REMARK  25 active torsions:
REMARK  status: ('A' for Active; 'I' for Inactive)
REMARK    1  A    between atoms: C_1  and  C_2
REMARK    2  A    between atoms: C_2  and  C_3
REMARK    3  A    between atoms: C_3  and  C_4
REMARK    4  A    between atoms: C_4  and  C_5
REMARK    5  A    between atoms: C_5  and  C_6
REMARK    6  A    between atoms: C_6  and  C_7
REMARK    7  A    between atoms: C_7  and  C_8
REMARK    8  A    between atoms: C_8  and  C_9
REMARK    9  A    between atoms: C_9  and  C_10
REMARK   10  A    between atoms: C_10  and  C_11
REMARK   11  A    between atoms: C_11  and  C_12
REMARK   12  A    between atoms: C_12  and  C_13
REMARK   13  A    between atoms: C_13  and  C_14
REMARK   14  A    between atoms: C_15  and  C_16
REMARK   15  A    between atoms: C_16  and  O_17
REMARK   16  A    between atoms: C_16  and  C_18
REMARK   17  A    between atoms: C_18  and  C_19
REMARK   18  A    between atoms: C_18  and  N_21
REMARK   19  A    between atoms: C_19  and  O_20
REMARK   20  A    between atoms: C_22  and  C_24
REMARK   21  A    between atoms: C_24  and  O_25
REMARK   22  A    between atoms: C_24  and  C_26
REMARK   23  A    between atoms: C_26  and  C_27
REMARK   24  A    between atoms: C_27  and  C_28
REMARK   25  A    between atoms: C_28  and  C_29
REMARK                            x       y       z     vdW  Elec       q    Type
REMARK                         _______ _______ _______ _____ _____    ______ ____
ROOT
ATOM      1  C   UNK A   1       5.746   6.243  17.577  0.00  0.00    +0.000 C 
ENDROOT
BRANCH   1   3
ATOM      2  C   UNK A   1       3.479   6.911  18.540  0.00  0.00    +0.000 C 
ATOM      3  C   UNK A   1       4.382   6.878  17.548  0.00  0.00    +0.000 C 
BRANCH   2   4
ATOM      4  C   UNK A   1       2.189   7.664  18.426  0.00  0.00    +0.000 C 
BRANCH   4   5
ATOM      5  C   UNK A   1       2.359   8.931  17.598  0.00  0.00    +0.000 C 
BRANCH   5   6
ATOM      6  C   UNK A   1       1.615  10.086  18.255  0.00  0.00    +0.000 C 
BRANCH   6   7
ATOM      7  C   UNK A   1       0.720   9.567  19.373  0.00  0.00    +0.000 C 
BRANCH   7   8
ATOM      8  C   UNK A   1      -0.693  10.111  19.215  0.00  0.00    +0.000 C 
BRANCH   8   9
ATOM      9  C   UNK A   1      -0.853  11.391  20.012  0.00  0.00    +0.000 C 
BRANCH   9  10
ATOM     10  C   UNK A   1      -1.321  12.515  19.103  0.00  0.00    +0.000 C 
BRANCH  10  11
ATOM     11  C   UNK A   1      -1.029  13.861  19.745  0.00  0.00    +0.000 C 
BRANCH  11  12
ATOM     12  C   UNK A   1      -0.126  14.686  18.845  0.00  0.00    +0.000 C 
BRANCH  12  13
ATOM     13  C   UNK A   1      -0.091  16.131  19.320  0.00  0.00    +0.000 C 
BRANCH  13  14
ATOM     14  C   UNK A   1       1.328  16.677  19.245  0.00  0.00    +0.000 C 
BRANCH  14  16
ATOM     15  C   UNK A   1       2.971  16.802  17.365  0.00  0.00    +0.000 C 
ATOM     16  C   UNK A   1       1.611  17.254  17.865  0.00  0.00    +0.000 C 
ENDBRANCH  14  16
ENDBRANCH  13  14
ENDBRANCH  12  13
ENDBRANCH  11  12
ENDBRANCH  10  11
ENDBRANCH   9  10
ENDBRANCH   8   9
ENDBRANCH   7   8
ENDBRANCH   6   7
ENDBRANCH   5   6
ENDBRANCH   4   5
ENDBRANCH   2   4
ENDBRANCH   1   3
BRANCH   1  17
ATOM     17  O   UNK A   1       6.657   7.067  16.834  0.00  0.00    +0.000 OA
ATOM     18  H   UNK A   1       6.781   7.905  17.309  0.00  0.00    +0.000 HD
ENDBRANCH   1  17
BRANCH   1  19
ATOM     19  C   UNK A   1       5.894   4.773  17.101  0.00  0.00    +0.000 C 
BRANCH  19  20
ATOM     20  N   UNK A   1       4.597   4.097  16.941  0.00  0.00    +0.000 N 
ATOM     21  C   UNK A   0       4.084   3.339  17.971  0.00  0.00    +0.000 C 
ATOM     22  O   UNK A   0       4.638   3.256  19.066  0.00  0.00    +0.000 OA
ATOM     23  H   UNK A   1       4.294   3.878  15.999  0.00  0.00    +0.000 HD
BRANCH  21  24
ATOM     24  C   UNK A   0       2.792   2.572  17.654  0.00  0.00    +0.000 C 
BRANCH  24  25
ATOM     25  O   UNK A   0       2.844   1.337  18.362  0.00  0.00    +0.000 OA
ATOM     26  H   UNK A   0       1.942   1.176  18.702  0.00  0.00    +0.000 HD
ENDBRANCH  24  25
BRANCH  24  27
ATOM     27  C   UNK A   0       1.552   3.365  18.084  0.00  0.00    +0.000 C 
BRANCH  27  28
ATOM     28  C   UNK A   0       0.897   2.768  19.332  0.00  0.00    +0.000 C 
BRANCH  28  29
ATOM     29  C   UNK A   0       1.095   3.666  20.550  0.00  0.00    +0.000 C 
ATOM     30  C   UNK A   0       2.041   3.016  21.546  0.00  0.00    +0.000 C 
ENDBRANCH  28  29
ENDBRANCH  27  28
ENDBRANCH  24  27
ENDBRANCH  21  24
ENDBRANCH  19  20
BRANCH  19  31
ATOM     31  C   UNK A   1       6.708   4.727  15.789  0.00  0.00    +0.000 C 
BRANCH  31  32
ATOM     32  O   UNK A   1       6.072   5.456  14.736  0.00  0.00    +0.000 OA
ATOM     33  H   UNK A   1       6.708   6.136  14.449  0.00  0.00    +0.000 HD
ENDBRANCH  31  32
ENDBRANCH  19  31
ENDBRANCH   1  19
TORSDOF 23
ENDMDL
