MODEL 1
REMARK VINA RESULT:      -5.4      0.000      0.000
REMARK  Name = 
REMARK  4 active torsions:
REMARK  status: ('A' for Active; 'I' for Inactive)
REMARK    1  A    between atoms: C_1  and  N_2
REMARK    2  A    between atoms: N_2  and  C_3
REMARK    3  A    between atoms: C_3  and  C_4
REMARK    4  A    between atoms: C_4  and  C_5
REMARK                            x       y       z     vdW  Elec       q    Type
REMARK                         _______ _______ _______ _____ _____    ______ ____
ROOT
ATOM      1  C   UNL     1       3.153   3.168  19.093  0.00  0.00    +0.000 A 
ATOM      2  C   UNL     1       3.521   2.630  20.341  0.00  0.00    +0.000 A 
ATOM      3  C   UNL     1       2.633   2.615  21.419  0.00  0.00    +0.000 A 
ATOM      4  C   UNL     1       1.361   3.157  21.282  0.00  0.00    +0.000 A 
ATOM      5  C   UNL     1       0.981   3.721  20.067  0.00  0.00    +0.000 A 
ATOM      6  C   UNL     1       1.869   3.735  18.983  0.00  0.00    +0.000 A 
ATOM      7 CL   UNL     1       1.312   4.489  17.529  0.00  0.00    +0.000 Cl
ENDROOT
BRANCH   1   8
ATOM      8  C   UNL     1       4.144   3.202  17.939  0.00  0.00    +0.000 C 
BRANCH   8   9
ATOM      9  C   UNL     1       5.081   4.424  17.916  0.00  0.00    +0.000 C 
BRANCH   9  11
ATOM     10  C   UNL     1       7.462   4.663  17.678  0.00  0.00    +0.000 C 
ATOM     11  N   UNL     1       6.391   4.103  18.495  0.00  0.00    +0.000 NA
ATOM     12  H   UNL     1       6.450   4.486  19.438  0.00  0.00    +0.000 HD
ENDBRANCH   9  11
ENDBRANCH   8   9
ENDBRANCH   1   8
TORSDOF 3
ENDMDL
MODEL 2
REMARK VINA RESULT:      -5.3      1.516      1.835
REMARK  Name = 
REMARK  4 active torsions:
REMARK  status: ('A' for Active; 'I' for Inactive)
REMARK    1  A    between atoms: C_1  and  N_2
REMARK    2  A    between atoms: N_2  and  C_3
REMARK    3  A    between atoms: C_3  and  C_4
REMARK    4  A    between atoms: C_4  and  C_5
REMARK                            x       y       z     vdW  Elec       q    Type
REMARK                         _______ _______ _______ _____ _____    ______ ____
ROOT
ATOM      1  C   UNL     1       2.993   4.216  18.864  0.00  0.00    +0.000 A 
ATOM      2  C   UNL     1       2.233   5.090  19.664  0.00  0.00    +0.000 A 
ATOM      3  C   UNL     1       1.278   4.611  20.564  0.00  0.00    +0.000 A 
ATOM      4  C   UNL     1       1.044   3.246  20.671  0.00  0.00    +0.000 A 
ATOM      5  C   UNL     1       1.762   2.361  19.871  0.00  0.00    +0.000 A 
ATOM      6  C   UNL     1       2.722   2.838  18.970  0.00  0.00    +0.000 A 
ATOM      7 CL   UNL     1       3.534   1.659  17.999  0.00  0.00    +0.000 Cl
ENDROOT
BRANCH   1   8
ATOM      8  C   UNL     1       4.007   4.758  17.868  0.00  0.00    +0.000 C 
BRANCH   8   9
ATOM      9  C   UNL     1       5.358   5.182  18.473  0.00  0.00    +0.000 C 
BRANCH   9  11
ATOM     10  C   UNL     1       7.555   4.628  17.670  0.00  0.00    +0.000 C 
ATOM     11  N   UNL     1       6.362   4.120  18.336  0.00  0.00    +0.000 NA
ATOM     12  H   UNL     1       6.614   3.768  19.259  0.00  0.00    +0.000 HD
ENDBRANCH   9  11
ENDBRANCH   8   9
ENDBRANCH   1   8
TORSDOF 3
ENDMDL
MODEL 3
REMARK VINA RESULT:      -5.2      1.869      1.965
REMARK  Name = 
REMARK  4 active torsions:
REMARK  status: ('A' for Active; 'I' for Inactive)
REMARK    1  A    between atoms: C_1  and  N_2
REMARK    2  A    between atoms: N_2  and  C_3
REMARK    3  A    between atoms: C_3  and  C_4
REMARK    4  A    between atoms: C_4  and  C_5
REMARK                            x       y       z     vdW  Elec       q    Type
REMARK                         _______ _______ _______ _____ _____    ______ ____
ROOT
ATOM      1  C   UNL     1       2.738   4.235  18.220  0.00  0.00    +0.000 A 
ATOM      2  C   UNL     1       2.337   2.918  17.923  0.00  0.00    +0.000 A 
ATOM      3  C   UNL     1       1.338   2.276  18.659  0.00  0.00    +0.000 A 
ATOM      4  C   UNL     1       0.728   2.929  19.724  0.00  0.00    +0.000 A 
ATOM      5  C   UNL     1       1.126   4.221  20.056  0.00  0.00    +0.000 A 
ATOM      6  C   UNL     1       2.125   4.868  19.319  0.00  0.00    +0.000 A 
ATOM      7 CL   UNL     1       2.569   6.459  19.834  0.00  0.00    +0.000 Cl
ENDROOT
BRANCH   1   8
ATOM      8  C   UNL     1       3.848   4.906  17.426  0.00  0.00    +0.000 C 
BRANCH   8   9
ATOM      9  C   UNL     1       5.110   4.050  17.210  0.00  0.00    +0.000 C 
BRANCH   9  11
ATOM     10  C   UNL     1       6.078   5.273  19.039  0.00  0.00    +0.000 C 
ATOM     11  N   UNL     1       5.908   3.955  18.438  0.00  0.00    +0.000 NA
ATOM     12  H   UNL     1       5.441   3.339  19.102  0.00  0.00    +0.000 HD
ENDBRANCH   9  11
ENDBRANCH   8   9
ENDBRANCH   1   8
TORSDOF 3
ENDMDL
MODEL 4
REMARK VINA RESULT:      -5.1      2.439      4.634
REMARK  Name = 
REMARK  4 active torsions:
REMARK  status: ('A' for Active; 'I' for Inactive)
REMARK    1  A    between atoms: C_1  and  N_2
REMARK    2  A    between atoms: N_2  and  C_3
REMARK    3  A    between atoms: C_3  and  C_4
REMARK    4  A    between atoms: C_4  and  C_5
REMARK                            x       y       z     vdW  Elec       q    Type
REMARK                         _______ _______ _______ _____ _____    ______ ____
ROOT
ATOM      1  C   UNL     1       2.478   4.331  18.171  0.00  0.00    +0.000 A 
ATOM      2  C   UNL     1       2.644   5.726  18.072  0.00  0.00    +0.000 A 
ATOM      3  C   UNL     1       3.815   6.286  17.554  0.00  0.00    +0.000 A 
ATOM      4  C   UNL     1       4.857   5.464  17.142  0.00  0.00    +0.000 A 
ATOM      5  C   UNL     1       4.730   4.082  17.256  0.00  0.00    +0.000 A 
ATOM      6  C   UNL     1       3.556   3.518  17.772  0.00  0.00    +0.000 A 
ATOM      7 CL   UNL     1       3.512   1.794  17.902  0.00  0.00    +0.000 Cl
ENDROOT
BRANCH   1   8
ATOM      8  C   UNL     1       1.208   3.741  18.766  0.00  0.00    +0.000 C 
BRANCH   8   9
ATOM      9  C   UNL     1       0.943   4.103  20.238  0.00  0.00    +0.000 C 
BRANCH   9  11
ATOM     10  C   UNL     1       2.351   2.726  21.617  0.00  0.00    +0.000 C 
ATOM     11  N   UNL     1       1.001   2.916  21.099  0.00  0.00    +0.000 NA
ATOM     12  H   UNL     1       0.353   3.027  21.879  0.00  0.00    +0.000 HD
ENDBRANCH   9  11
ENDBRANCH   8   9
ENDBRANCH   1   8
TORSDOF 3
ENDMDL
MODEL 5
REMARK VINA RESULT:      -5.1      1.727      2.254
REMARK  Name = 
REMARK  4 active torsions:
REMARK  status: ('A' for Active; 'I' for Inactive)
REMARK    1  A    between atoms: C_1  and  N_2
REMARK    2  A    between atoms: N_2  and  C_3
REMARK    3  A    between atoms: C_3  and  C_4
REMARK    4  A    between atoms: C_4  and  C_5
REMARK                            x       y       z     vdW  Elec       q    Type
REMARK                         _______ _______ _______ _____ _____    ______ ____
ROOT
ATOM      1  C   UNL     1       3.040   3.288  19.039  0.00  0.00    +0.000 A 
ATOM      2  C   UNL     1       1.786   3.924  18.961  0.00  0.00    +0.000 A 
ATOM      3  C   UNL     1       0.927   3.981  20.062  0.00  0.00    +0.000 A 
ATOM      4  C   UNL     1       1.292   3.385  21.262  0.00  0.00    +0.000 A 
ATOM      5  C   UNL     1       2.515   2.724  21.358  0.00  0.00    +0.000 A 
ATOM      6  C   UNL     1       3.378   2.667  20.257  0.00  0.00    +0.000 A 
ATOM      7 CL   UNL     1       4.857   1.794  20.470  0.00  0.00    +0.000 Cl
ENDROOT
BRANCH   1   8
ATOM      8  C   UNL     1       3.948   3.210  17.821  0.00  0.00    +0.000 C 
BRANCH   8   9
ATOM      9  C   UNL     1       4.919   4.392  17.651  0.00  0.00    +0.000 C 
BRANCH   9  11
ATOM     10  C   UNL     1       6.466   5.356  19.218  0.00  0.00    +0.000 C 
ATOM     11  N   UNL     1       6.156   4.182  18.412  0.00  0.00    +0.000 NA
ATOM     12  H   UNL     1       6.047   3.372  19.023  0.00  0.00    +0.000 HD
ENDBRANCH   9  11
ENDBRANCH   8   9
ENDBRANCH   1   8
TORSDOF 3
ENDMDL
MODEL 6
REMARK VINA RESULT:      -5.1      2.577      3.438
REMARK  Name = 
REMARK  4 active torsions:
REMARK  status: ('A' for Active; 'I' for Inactive)
REMARK    1  A    between atoms: C_1  and  N_2
REMARK    2  A    between atoms: N_2  and  C_3
REMARK    3  A    between atoms: C_3  and  C_4
REMARK    4  A    between atoms: C_4  and  C_5
REMARK                            x       y       z     vdW  Elec       q    Type
REMARK                         _______ _______ _______ _____ _____    ______ ____
ROOT
ATOM      1  C   UNL     1       4.507   5.060  17.024  0.00  0.00    +0.000 A 
ATOM      2  C   UNL     1       4.614   6.464  17.051  0.00  0.00    +0.000 A 
ATOM      3  C   UNL     1       3.617   7.261  17.619  0.00  0.00    +0.000 A 
ATOM      4  C   UNL     1       2.478   6.675  18.156  0.00  0.00    +0.000 A 
ATOM      5  C   UNL     1       2.334   5.290  18.118  0.00  0.00    +0.000 A 
ATOM      6  C   UNL     1       3.332   4.488  17.551  0.00  0.00    +0.000 A 
ATOM      7 CL   UNL     1       3.041   2.783  17.523  0.00  0.00    +0.000 Cl
ENDROOT
BRANCH   1   8
ATOM      8  C   UNL     1       5.588   4.211  16.375  0.00  0.00    +0.000 C 
BRANCH   8   9
ATOM      9  C   UNL     1       7.034   4.663  16.653  0.00  0.00    +0.000 C 
BRANCH   9  11
ATOM     10  C   UNL     1       7.757   5.547  18.769  0.00  0.00    +0.000 C 
ATOM     11  N   UNL     1       7.441   4.334  18.024  0.00  0.00    +0.000 NA
ATOM     12  H   UNL     1       6.686   3.836  18.495  0.00  0.00    +0.000 HD
ENDBRANCH   9  11
ENDBRANCH   8   9
ENDBRANCH   1   8
TORSDOF 3
ENDMDL
MODEL 7
REMARK VINA RESULT:      -5.0      2.450      2.777
REMARK  Name = 
REMARK  4 active torsions:
REMARK  status: ('A' for Active; 'I' for Inactive)
REMARK    1  A    between atoms: C_1  and  N_2
REMARK    2  A    between atoms: N_2  and  C_3
REMARK    3  A    between atoms: C_3  and  C_4
REMARK    4  A    between atoms: C_4  and  C_5
REMARK                            x       y       z     vdW  Elec       q    Type
REMARK                         _______ _______ _______ _____ _____    ______ ____
ROOT
ATOM      1  C   UNL     1       4.297   4.195  17.589  0.00  0.00    +0.000 A 
ATOM      2  C   UNL     1       3.845   2.864  17.665  0.00  0.00    +0.000 A 
ATOM      3  C   UNL     1       2.491   2.560  17.825  0.00  0.00    +0.000 A 
ATOM      4  C   UNL     1       1.556   3.582  17.934  0.00  0.00    +0.000 A 
ATOM      5  C   UNL     1       1.979   4.909  17.890  0.00  0.00    +0.000 A 
ATOM      6  C   UNL     1       3.336   5.215  17.728  0.00  0.00    +0.000 A 
ATOM      7 CL   UNL     1       3.760   6.893  17.720  0.00  0.00    +0.000 Cl
ENDROOT
BRANCH   1   8
ATOM      8  C   UNL     1       5.779   4.506  17.444  0.00  0.00    +0.000 C 
BRANCH   8   9
ATOM      9  C   UNL     1       6.246   4.824  16.012  0.00  0.00    +0.000 C 
BRANCH   9  11
ATOM     10  C   UNL     1       7.310   6.562  17.288  0.00  0.00    +0.000 C 
ATOM     11  N   UNL     1       7.280   5.866  16.007  0.00  0.00    +0.000 NA
ATOM     12  H   UNL     1       8.191   5.442  15.832  0.00  0.00    +0.000 HD
ENDBRANCH   9  11
ENDBRANCH   8   9
ENDBRANCH   1   8
TORSDOF 3
ENDMDL
MODEL 8
REMARK VINA RESULT:      -5.0      1.995      2.294
REMARK  Name = 
REMARK  4 active torsions:
REMARK  status: ('A' for Active; 'I' for Inactive)
REMARK    1  A    between atoms: C_1  and  N_2
REMARK    2  A    between atoms: N_2  and  C_3
REMARK    3  A    between atoms: C_3  and  C_4
REMARK    4  A    between atoms: C_4  and  C_5
REMARK                            x       y       z     vdW  Elec       q    Type
REMARK                         _______ _______ _______ _____ _____    ______ ____
ROOT
ATOM      1  C   UNL     1       3.683   4.266  17.515  0.00  0.00    +0.000 A 
ATOM      2  C   UNL     1       3.751   2.860  17.499  0.00  0.00    +0.000 A 
ATOM      3  C   UNL     1       2.681   2.073  17.934  0.00  0.00    +0.000 A 
ATOM      4  C   UNL     1       1.525   2.673  18.417  0.00  0.00    +0.000 A 
ATOM      5  C   UNL     1       1.443   4.063  18.471  0.00  0.00    +0.000 A 
ATOM      6  C   UNL     1       2.512   4.854  18.033  0.00  0.00    +0.000 A 
ATOM      7 CL   UNL     1       2.322   6.568  18.173  0.00  0.00    +0.000 Cl
ENDROOT
BRANCH   1   8
ATOM      8  C   UNL     1       4.868   5.106  17.065  0.00  0.00    +0.000 C 
BRANCH   8   9
ATOM      9  C   UNL     1       6.169   4.884  17.859  0.00  0.00    +0.000 C 
BRANCH   9  11
ATOM     10  C   UNL     1       6.988   4.576  15.620  0.00  0.00    +0.000 C 
ATOM     11  N   UNL     1       7.202   4.257  17.026  0.00  0.00    +0.000 NA
ATOM     12  H   UNL     1       8.122   4.592  17.312  0.00  0.00    +0.000 HD
ENDBRANCH   9  11
ENDBRANCH   8   9
ENDBRANCH   1   8
TORSDOF 3
ENDMDL
MODEL 9
REMARK VINA RESULT:      -5.0      1.613      1.812
REMARK  Name = 
REMARK  4 active torsions:
REMARK  status: ('A' for Active; 'I' for Inactive)
REMARK    1  A    between atoms: C_1  and  N_2
REMARK    2  A    between atoms: N_2  and  C_3
REMARK    3  A    between atoms: C_3  and  C_4
REMARK    4  A    between atoms: C_4  and  C_5
REMARK                            x       y       z     vdW  Elec       q    Type
REMARK                         _______ _______ _______ _____ _____    ______ ____
ROOT
ATOM      1  C   UNL     1       3.180   4.656  19.244  0.00  0.00    +0.000 A 
ATOM      2  C   UNL     1       2.587   4.791  20.514  0.00  0.00    +0.000 A 
ATOM      3  C   UNL     1       1.441   4.072  20.865  0.00  0.00    +0.000 A 
ATOM      4  C   UNL     1       0.848   3.215  19.946  0.00  0.00    +0.000 A 
ATOM      5  C   UNL     1       1.397   3.085  18.673  0.00  0.00    +0.000 A 
ATOM      6  C   UNL     1       2.547   3.803  18.320  0.00  0.00    +0.000 A 
ATOM      7 CL   UNL     1       3.129   3.595  16.704  0.00  0.00    +0.000 Cl
ENDROOT
BRANCH   1   8
ATOM      8  C   UNL     1       4.409   5.469  18.871  0.00  0.00    +0.000 C 
BRANCH   8   9
ATOM      9  C   UNL     1       5.740   4.695  18.894  0.00  0.00    +0.000 C 
BRANCH   9  11
ATOM     10  C   UNL     1       7.795   5.942  18.953  0.00  0.00    +0.000 C 
ATOM     11  N   UNL     1       6.727   5.357  19.755  0.00  0.00    +0.000 NA
ATOM     12  H   UNL     1       6.271   6.091  20.297  0.00  0.00    +0.000 HD
ENDBRANCH   9  11
ENDBRANCH   8   9
ENDBRANCH   1   8
TORSDOF 3
ENDMDL
