MODEL 1
REMARK VINA RESULT:      -6.9      0.000      0.000
REMARK  Name = 
REMARK  13 active torsions:
REMARK  status: ('A' for Active; 'I' for Inactive)
REMARK    1  A    between atoms: C_1  and  C_2
REMARK    2  A    between atoms: C_2  and  C_3
REMARK    3  A    between atoms: C_3  and  C_4
REMARK    4  A    between atoms: C_4  and  C_5
REMARK    5  A    between atoms: C_5  and  C_6
REMARK    6  A    between atoms: C_6  and  C_7
REMARK    7  A    between atoms: C_7  and  C_8
REMARK    8  A    between atoms: C_8  and  C_9
REMARK    9  A    between atoms: C_9  and  C_10
REMARK   10  A    between atoms: C_10  and  C_11
REMARK   11  A    between atoms: C_10  and  N_14
REMARK   12  A    between atoms: C_11  and  C_12
REMARK   13  A    between atoms: C_12  and  O_13
REMARK                            x       y       z     vdW  Elec       q    Type
REMARK                         _______ _______ _______ _____ _____    ______ ____
ROOT
ATOM      1  C   UNL     1       5.588   5.523  17.030  0.00  0.00    +0.000 C 
ENDROOT
BRANCH   1   2
ATOM      2  N   UNL     1       4.390   5.280  17.836  0.00  0.00    +0.000 N 
ATOM      3  C   UNL     1       3.632   6.268  18.415  0.00  0.00    +0.000 A 
ATOM      4  N   UNL     1       2.604   5.780  19.079  0.00  0.00    +0.000 NA
ATOM      5  C   UNL     1       2.710   4.413  18.946  0.00  0.00    +0.000 A 
ATOM      6  C   UNL     1       1.977   3.325  19.402  0.00  0.00    +0.000 A 
ATOM      7 CL   UNL     1       0.590   3.597  20.336  0.00  0.00    +0.000 Cl
ATOM      8  N   UNL     1       2.330   2.055  19.130  0.00  0.00    +0.000 NA
ATOM      9  C   UNL     1       3.429   1.890  18.374  0.00  0.00    +0.000 A 
ATOM     10  N   UNL     1       4.215   2.844  17.841  0.00  0.00    +0.000 NA
ATOM     11  C   UNL     1       3.814   4.080  18.172  0.00  0.00    +0.000 A 
ENDBRANCH   1   2
BRANCH   1  12
ATOM     12  C   UNL     1       5.480   4.969  15.595  0.00  0.00    +0.000 C 
BRANCH  12  13
ATOM     13  C   UNL     1       6.713   4.203  15.130  0.00  0.00    +0.000 C 
BRANCH  13  14
ATOM     14  C   UNL     1       7.015   4.517  13.665  0.00  0.00    +0.000 C 
BRANCH  14  15
ATOM     15  C   UNL     1       5.872   4.037  12.779  0.00  0.00    +0.000 C 
BRANCH  15  16
ATOM     16  C   UNL     1       6.236   2.750  12.050  0.00  0.00    +0.000 C 
BRANCH  16  17
ATOM     17  C   UNL     1       5.089   2.315  11.140  0.00  0.00    +0.000 C 
BRANCH  17  18
ATOM     18  C   UNL     1       3.905   3.266  11.268  0.00  0.00    +0.000 C 
BRANCH  18  20
ATOM     19  C   UNL     1       2.801   4.484   9.375  0.00  0.00    +0.000 C 
ATOM     20  C   UNL     1       2.968   3.144  10.070  0.00  0.00    +0.000 C 
ENDBRANCH  18  20
ENDBRANCH  17  18
ENDBRANCH  16  17
ENDBRANCH  15  16
ENDBRANCH  14  15
ENDBRANCH  13  14
ENDBRANCH  12  13
ENDBRANCH   1  12
BRANCH   1  21
ATOM     21  C   UNL     1       6.033   6.996  17.120  0.00  0.00    +0.000 C 
BRANCH  21  22
ATOM     22  C   UNL     1       7.455   7.213  17.622  0.00  0.00    +0.000 C 
BRANCH  22  23
ATOM     23  O   UNL     1       7.717   8.612  17.679  0.00  0.00    +0.000 OA
ATOM     24  H   UNL     1       8.667   8.729  17.852  0.00  0.00    +0.000 HD
ENDBRANCH  22  23
ENDBRANCH  21  22
ENDBRANCH   1  21
TORSDOF 12
ENDMDL
MODEL 2
REMARK VINA RESULT:      -6.8      1.308      1.640
REMARK  Name = 
REMARK  13 active torsions:
REMARK  status: ('A' for Active; 'I' for Inactive)
REMARK    1  A    between atoms: C_1  and  C_2
REMARK    2  A    between atoms: C_2  and  C_3
REMARK    3  A    between atoms: C_3  and  C_4
REMARK    4  A    between atoms: C_4  and  C_5
REMARK    5  A    between atoms: C_5  and  C_6
REMARK    6  A    between atoms: C_6  and  C_7
REMARK    7  A    between atoms: C_7  and  C_8
REMARK    8  A    between atoms: C_8  and  C_9
REMARK    9  A    between atoms: C_9  and  C_10
REMARK   10  A    between atoms: C_10  and  C_11
REMARK   11  A    between atoms: C_10  and  N_14
REMARK   12  A    between atoms: C_11  and  C_12
REMARK   13  A    between atoms: C_12  and  O_13
REMARK                            x       y       z     vdW  Elec       q    Type
REMARK                         _______ _______ _______ _____ _____    ______ ____
ROOT
ATOM      1  C   UNL     1       6.101   4.957  17.395  0.00  0.00    +0.000 C 
ENDROOT
BRANCH   1   2
ATOM      2  N   UNL     1       4.919   4.848  18.252  0.00  0.00    +0.000 N 
ATOM      3  C   UNL     1       4.430   5.867  19.032  0.00  0.00    +0.000 A 
ATOM      4  N   UNL     1       3.352   5.508  19.699  0.00  0.00    +0.000 NA
ATOM      5  C   UNL     1       3.144   4.190  19.358  0.00  0.00    +0.000 A 
ATOM      6  C   UNL     1       2.210   3.224  19.708  0.00  0.00    +0.000 A 
ATOM      7 CL   UNL     1       0.965   3.630  20.783  0.00  0.00    +0.000 Cl
ATOM      8  N   UNL     1       2.257   1.969  19.223  0.00  0.00    +0.000 NA
ATOM      9  C   UNL     1       3.253   1.699  18.362  0.00  0.00    +0.000 A 
ATOM     10  N   UNL     1       4.205   2.537  17.912  0.00  0.00    +0.000 NA
ATOM     11  C   UNL     1       4.107   3.760  18.455  0.00  0.00    +0.000 A 
ENDBRANCH   1   2
BRANCH   1  12
ATOM     12  C   UNL     1       6.040   6.154  16.424  0.00  0.00    +0.000 C 
BRANCH  12  13
ATOM     13  C   UNL     1       5.318   5.855  15.115  0.00  0.00    +0.000 C 
BRANCH  13  14
ATOM     14  C   UNL     1       5.522   4.394  14.714  0.00  0.00    +0.000 C 
BRANCH  14  15
ATOM     15  C   UNL     1       6.777   4.256  13.860  0.00  0.00    +0.000 C 
BRANCH  15  16
ATOM     16  C   UNL     1       6.432   4.128  12.381  0.00  0.00    +0.000 C 
BRANCH  16  17
ATOM     17  C   UNL     1       6.419   2.659  11.966  0.00  0.00    +0.000 C 
BRANCH  17  18
ATOM     18  C   UNL     1       5.086   2.287  11.327  0.00  0.00    +0.000 C 
BRANCH  18  20
ATOM     19  C   UNL     1       3.300   3.612  10.170  0.00  0.00    +0.000 C 
ATOM     20  C   UNL     1       4.074   3.420  11.462  0.00  0.00    +0.000 C 
ENDBRANCH  18  20
ENDBRANCH  17  18
ENDBRANCH  16  17
ENDBRANCH  15  16
ENDBRANCH  14  15
ENDBRANCH  13  14
ENDBRANCH  12  13
ENDBRANCH   1  12
BRANCH   1  21
ATOM     21  C   UNL     1       7.400   4.863  18.219  0.00  0.00    +0.000 C 
BRANCH  21  22
ATOM     22  C   UNL     1       7.336   5.495  19.604  0.00  0.00    +0.000 C 
BRANCH  22  23
ATOM     23  O   UNL     1       8.596   5.331  20.247  0.00  0.00    +0.000 OA
ATOM     24  H   UNL     1       8.573   5.836  21.078  0.00  0.00    +0.000 HD
ENDBRANCH  22  23
ENDBRANCH  21  22
ENDBRANCH   1  21
TORSDOF 12
ENDMDL
MODEL 3
REMARK VINA RESULT:      -6.8      1.325      1.509
REMARK  Name = 
REMARK  13 active torsions:
REMARK  status: ('A' for Active; 'I' for Inactive)
REMARK    1  A    between atoms: C_1  and  C_2
REMARK    2  A    between atoms: C_2  and  C_3
REMARK    3  A    between atoms: C_3  and  C_4
REMARK    4  A    between atoms: C_4  and  C_5
REMARK    5  A    between atoms: C_5  and  C_6
REMARK    6  A    between atoms: C_6  and  C_7
REMARK    7  A    between atoms: C_7  and  C_8
REMARK    8  A    between atoms: C_8  and  C_9
REMARK    9  A    between atoms: C_9  and  C_10
REMARK   10  A    between atoms: C_10  and  C_11
REMARK   11  A    between atoms: C_10  and  N_14
REMARK   12  A    between atoms: C_11  and  C_12
REMARK   13  A    between atoms: C_12  and  O_13
REMARK                            x       y       z     vdW  Elec       q    Type
REMARK                         _______ _______ _______ _____ _____    ______ ____
ROOT
ATOM      1  C   UNL     1       5.585   5.522  17.217  0.00  0.00    +0.000 C 
ENDROOT
BRANCH   1   2
ATOM      2  N   UNL     1       4.491   5.172  18.124  0.00  0.00    +0.000 N 
ATOM      3  C   UNL     1       3.915   6.042  19.017  0.00  0.00    +0.000 A 
ATOM      4  N   UNL     1       2.947   5.476  19.708  0.00  0.00    +0.000 NA
ATOM      5  C   UNL     1       2.906   4.173  19.263  0.00  0.00    +0.000 A 
ATOM      6  C   UNL     1       2.144   3.055  19.576  0.00  0.00    +0.000 A 
ATOM      7 CL   UNL     1       0.929   3.186  20.750  0.00  0.00    +0.000 Cl
ATOM      8  N   UNL     1       2.336   1.864  18.980  0.00  0.00    +0.000 NA
ATOM      9  C   UNL     1       3.300   1.813  18.045  0.00  0.00    +0.000 A 
ATOM     10  N   UNL     1       4.091   2.815  17.620  0.00  0.00    +0.000 NA
ATOM     11  C   UNL     1       3.857   3.963  18.273  0.00  0.00    +0.000 A 
ENDBRANCH   1   2
BRANCH   1  12
ATOM     12  C   UNL     1       5.164   6.508  16.109  0.00  0.00    +0.000 C 
BRANCH  12  13
ATOM     13  C   UNL     1       5.011   5.868  14.733  0.00  0.00    +0.000 C 
BRANCH  13  14
ATOM     14  C   UNL     1       5.653   4.481  14.715  0.00  0.00    +0.000 C 
BRANCH  14  15
ATOM     15  C   UNL     1       6.920   4.501  13.869  0.00  0.00    +0.000 C 
BRANCH  15  16
ATOM     16  C   UNL     1       6.705   3.806  12.529  0.00  0.00    +0.000 C 
BRANCH  16  17
ATOM     17  C   UNL     1       5.301   3.208  12.463  0.00  0.00    +0.000 C 
BRANCH  17  18
ATOM     18  C   UNL     1       4.390   4.059  11.586  0.00  0.00    +0.000 C 
BRANCH  18  20
ATOM     19  C   UNL     1       2.919   4.001   9.557  0.00  0.00    +0.000 C 
ATOM     20  C   UNL     1       3.511   3.187  10.694  0.00  0.00    +0.000 C 
ENDBRANCH  18  20
ENDBRANCH  17  18
ENDBRANCH  16  17
ENDBRANCH  15  16
ENDBRANCH  14  15
ENDBRANCH  13  14
ENDBRANCH  12  13
ENDBRANCH   1  12
BRANCH   1  21
ATOM     21  C   UNL     1       6.849   5.932  17.997  0.00  0.00    +0.000 C 
BRANCH  21  22
ATOM     22  C   UNL     1       7.804   4.792  18.328  0.00  0.00    +0.000 C 
BRANCH  22  23
ATOM     23  O   UNL     1       8.120   4.091  17.130  0.00  0.00    +0.000 OA
ATOM     24  H   UNL     1       7.674   4.545  16.394  0.00  0.00    +0.000 HD
ENDBRANCH  22  23
ENDBRANCH  21  22
ENDBRANCH   1  21
TORSDOF 12
ENDMDL
MODEL 4
REMARK VINA RESULT:      -6.8      1.362      1.436
REMARK  Name = 
REMARK  13 active torsions:
REMARK  status: ('A' for Active; 'I' for Inactive)
REMARK    1  A    between atoms: C_1  and  C_2
REMARK    2  A    between atoms: C_2  and  C_3
REMARK    3  A    between atoms: C_3  and  C_4
REMARK    4  A    between atoms: C_4  and  C_5
REMARK    5  A    between atoms: C_5  and  C_6
REMARK    6  A    between atoms: C_6  and  C_7
REMARK    7  A    between atoms: C_7  and  C_8
REMARK    8  A    between atoms: C_8  and  C_9
REMARK    9  A    between atoms: C_9  and  C_10
REMARK   10  A    between atoms: C_10  and  C_11
REMARK   11  A    between atoms: C_10  and  N_14
REMARK   12  A    between atoms: C_11  and  C_12
REMARK   13  A    between atoms: C_12  and  O_13
REMARK                            x       y       z     vdW  Elec       q    Type
REMARK                         _______ _______ _______ _____ _____    ______ ____
ROOT
ATOM      1  C   UNL     1       6.183   5.422  17.628  0.00  0.00    +0.000 C 
ENDROOT
BRANCH   1   2
ATOM      2  N   UNL     1       4.883   5.298  18.291  0.00  0.00    +0.000 N 
ATOM      3  C   UNL     1       3.888   6.242  18.229  0.00  0.00    +0.000 A 
ATOM      4  N   UNL     1       2.818   5.881  18.906  0.00  0.00    +0.000 NA
ATOM      5  C   UNL     1       3.138   4.658  19.453  0.00  0.00    +0.000 A 
ATOM      6  C   UNL     1       2.480   3.750  20.272  0.00  0.00    +0.000 A 
ATOM      7 CL   UNL     1       0.899   4.087  20.778  0.00  0.00    +0.000 Cl
ATOM      8  N   UNL     1       3.056   2.604  20.683  0.00  0.00    +0.000 NA
ATOM      9  C   UNL     1       4.305   2.373  20.245  0.00  0.00    +0.000 A 
ATOM     10  N   UNL     1       5.049   3.143  19.429  0.00  0.00    +0.000 NA
ATOM     11  C   UNL     1       4.418   4.274  19.079  0.00  0.00    +0.000 A 
ENDBRANCH   1   2
BRANCH   1  12
ATOM     12  C   UNL     1       6.083   5.429  16.090  0.00  0.00    +0.000 C 
BRANCH  12  13
ATOM     13  C   UNL     1       5.196   4.327  15.519  0.00  0.00    +0.000 C 
BRANCH  13  14
ATOM     14  C   UNL     1       5.262   4.326  13.992  0.00  0.00    +0.000 C 
BRANCH  14  15
ATOM     15  C   UNL     1       6.543   3.648  13.523  0.00  0.00    +0.000 C 
BRANCH  15  16
ATOM     16  C   UNL     1       6.524   3.403  12.019  0.00  0.00    +0.000 C 
BRANCH  16  17
ATOM     17  C   UNL     1       5.255   2.653  11.621  0.00  0.00    +0.000 C 
BRANCH  17  18
ATOM     18  C   UNL     1       4.116   3.625  11.336  0.00  0.00    +0.000 C 
BRANCH  18  20
ATOM     19  C   UNL     1       2.802   4.096   9.254  0.00  0.00    +0.000 C 
ATOM     20  C   UNL     1       3.149   3.055  10.303  0.00  0.00    +0.000 C 
ENDBRANCH  18  20
ENDBRANCH  17  18
ENDBRANCH  16  17
ENDBRANCH  15  16
ENDBRANCH  14  15
ENDBRANCH  13  14
ENDBRANCH  12  13
ENDBRANCH   1  12
BRANCH   1  21
ATOM     21  C   UNL     1       7.006   6.580  18.225  0.00  0.00    +0.000 C 
BRANCH  21  22
ATOM     22  C   UNL     1       8.186   6.156  19.091  0.00  0.00    +0.000 C 
BRANCH  22  23
ATOM     23  O   UNL     1       7.696   5.455  20.230  0.00  0.00    +0.000 OA
ATOM     24  H   UNL     1       8.097   4.569  20.228  0.00  0.00    +0.000 HD
ENDBRANCH  22  23
ENDBRANCH  21  22
ENDBRANCH   1  21
TORSDOF 12
ENDMDL
MODEL 5
REMARK VINA RESULT:      -6.7      1.421      2.297
REMARK  Name = 
REMARK  13 active torsions:
REMARK  status: ('A' for Active; 'I' for Inactive)
REMARK    1  A    between atoms: C_1  and  C_2
REMARK    2  A    between atoms: C_2  and  C_3
REMARK    3  A    between atoms: C_3  and  C_4
REMARK    4  A    between atoms: C_4  and  C_5
REMARK    5  A    between atoms: C_5  and  C_6
REMARK    6  A    between atoms: C_6  and  C_7
REMARK    7  A    between atoms: C_7  and  C_8
REMARK    8  A    between atoms: C_8  and  C_9
REMARK    9  A    between atoms: C_9  and  C_10
REMARK   10  A    between atoms: C_10  and  C_11
REMARK   11  A    between atoms: C_10  and  N_14
REMARK   12  A    between atoms: C_11  and  C_12
REMARK   13  A    between atoms: C_12  and  O_13
REMARK                            x       y       z     vdW  Elec       q    Type
REMARK                         _______ _______ _______ _____ _____    ______ ____
ROOT
ATOM      1  C   UNL     1       5.932   4.444  17.348  0.00  0.00    +0.000 C 
ENDROOT
BRANCH   1   2
ATOM      2  N   UNL     1       4.859   3.969  18.224  0.00  0.00    +0.000 N 
ATOM      3  C   UNL     1       4.612   2.647  18.501  0.00  0.00    +0.000 A 
ATOM      4  N   UNL     1       3.594   2.494  19.323  0.00  0.00    +0.000 NA
ATOM      5  C   UNL     1       3.144   3.771  19.575  0.00  0.00    +0.000 A 
ATOM      6  C   UNL     1       2.115   4.315  20.332  0.00  0.00    +0.000 A 
ATOM      7 CL   UNL     1       1.110   3.282  21.223  0.00  0.00    +0.000 Cl
ATOM      8  N   UNL     1       1.883   5.640  20.384  0.00  0.00    +0.000 NA
ATOM      9  C   UNL     1       2.714   6.420  19.673  0.00  0.00    +0.000 A 
ATOM     10  N   UNL     1       3.765   6.038  18.924  0.00  0.00    +0.000 NA
ATOM     11  C   UNL     1       3.921   4.706  18.903  0.00  0.00    +0.000 A 
ENDBRANCH   1   2
BRANCH   1  12
ATOM     12  C   UNL     1       5.528   5.666  16.498  0.00  0.00    +0.000 C 
BRANCH  12  13
ATOM     13  C   UNL     1       5.476   5.391  14.999  0.00  0.00    +0.000 C 
BRANCH  13  14
ATOM     14  C   UNL     1       6.722   4.626  14.554  0.00  0.00    +0.000 C 
BRANCH  14  15
ATOM     15  C   UNL     1       6.488   3.994  13.187  0.00  0.00    +0.000 C 
BRANCH  15  16
ATOM     16  C   UNL     1       5.002   3.809  12.906  0.00  0.00    +0.000 C 
BRANCH  16  17
ATOM     17  C   UNL     1       4.799   3.143  11.546  0.00  0.00    +0.000 C 
BRANCH  17  18
ATOM     18  C   UNL     1       3.327   3.154  11.151  0.00  0.00    +0.000 C 
BRANCH  18  20
ATOM     19  C   UNL     1       2.602   4.758   9.366  0.00  0.00    +0.000 C 
ATOM     20  C   UNL     1       3.161   3.375   9.650  0.00  0.00    +0.000 C 
ENDBRANCH  18  20
ENDBRANCH  17  18
ENDBRANCH  16  17
ENDBRANCH  15  16
ENDBRANCH  14  15
ENDBRANCH  13  14
ENDBRANCH  12  13
ENDBRANCH   1  12
BRANCH   1  21
ATOM     21  C   UNL     1       7.255   4.607  18.121  0.00  0.00    +0.000 C 
BRANCH  21  22
ATOM     22  C   UNL     1       7.382   5.897  18.923  0.00  0.00    +0.000 C 
BRANCH  22  23
ATOM     23  O   UNL     1       7.844   5.584  20.233  0.00  0.00    +0.000 OA
ATOM     24  H   UNL     1       8.762   5.896  20.306  0.00  0.00    +0.000 HD
ENDBRANCH  22  23
ENDBRANCH  21  22
ENDBRANCH   1  21
TORSDOF 12
ENDMDL
MODEL 6
REMARK VINA RESULT:      -6.7      1.703      2.430
REMARK  Name = 
REMARK  13 active torsions:
REMARK  status: ('A' for Active; 'I' for Inactive)
REMARK    1  A    between atoms: C_1  and  C_2
REMARK    2  A    between atoms: C_2  and  C_3
REMARK    3  A    between atoms: C_3  and  C_4
REMARK    4  A    between atoms: C_4  and  C_5
REMARK    5  A    between atoms: C_5  and  C_6
REMARK    6  A    between atoms: C_6  and  C_7
REMARK    7  A    between atoms: C_7  and  C_8
REMARK    8  A    between atoms: C_8  and  C_9
REMARK    9  A    between atoms: C_9  and  C_10
REMARK   10  A    between atoms: C_10  and  C_11
REMARK   11  A    between atoms: C_10  and  N_14
REMARK   12  A    between atoms: C_11  and  C_12
REMARK   13  A    between atoms: C_12  and  O_13
REMARK                            x       y       z     vdW  Elec       q    Type
REMARK                         _______ _______ _______ _____ _____    ______ ____
ROOT
ATOM      1  C   UNL     1       5.717   4.216  18.198  0.00  0.00    +0.000 C 
ENDROOT
BRANCH   1   2
ATOM      2  N   UNL     1       4.736   3.664  19.134  0.00  0.00    +0.000 N 
ATOM      3  C   UNL     1       4.819   2.414  19.697  0.00  0.00    +0.000 A 
ATOM      4  N   UNL     1       3.811   2.168  20.509  0.00  0.00    +0.000 NA
ATOM      5  C   UNL     1       3.025   3.298  20.455  0.00  0.00    +0.000 A 
ATOM      6  C   UNL     1       1.831   3.688  21.046  0.00  0.00    +0.000 A 
ATOM      7 CL   UNL     1       1.058   2.633  22.124  0.00  0.00    +0.000 Cl
ATOM      8  N   UNL     1       1.258   4.879  20.791  0.00  0.00    +0.000 NA
ATOM      9  C   UNL     1       1.914   5.687  19.942  0.00  0.00    +0.000 A 
ATOM     10  N   UNL     1       3.087   5.456  19.322  0.00  0.00    +0.000 NA
ATOM     11  C   UNL     1       3.585   4.244  19.607  0.00  0.00    +0.000 A 
ENDBRANCH   1   2
BRANCH   1  12
ATOM     12  C   UNL     1       5.234   4.205  16.734  0.00  0.00    +0.000 C 
BRANCH  12  13
ATOM     13  C   UNL     1       6.357   4.080  15.710  0.00  0.00    +0.000 C 
BRANCH  13  14
ATOM     14  C   UNL     1       6.197   5.130  14.611  0.00  0.00    +0.000 C 
BRANCH  14  15
ATOM     15  C   UNL     1       6.992   4.723  13.377  0.00  0.00    +0.000 C 
BRANCH  15  16
ATOM     16  C   UNL     1       6.450   3.437  12.764  0.00  0.00    +0.000 C 
BRANCH  16  17
ATOM     17  C   UNL     1       4.953   3.571  12.491  0.00  0.00    +0.000 C 
BRANCH  17  18
ATOM     18  C   UNL     1       4.603   3.032  11.109  0.00  0.00    +0.000 C 
BRANCH  18  20
ATOM     19  C   UNL     1       2.992   4.145   9.544  0.00  0.00    +0.000 C 
ATOM     20  C   UNL     1       3.134   3.273  10.779  0.00  0.00    +0.000 C 
ENDBRANCH  18  20
ENDBRANCH  17  18
ENDBRANCH  16  17
ENDBRANCH  15  16
ENDBRANCH  14  15
ENDBRANCH  13  14
ENDBRANCH  12  13
ENDBRANCH   1  12
BRANCH   1  21
ATOM     21  C   UNL     1       6.255   5.574  18.688  0.00  0.00    +0.000 C 
BRANCH  21  22
ATOM     22  C   UNL     1       7.733   5.590  19.057  0.00  0.00    +0.000 C 
BRANCH  22  23
ATOM     23  O   UNL     1       7.861   5.403  20.463  0.00  0.00    +0.000 OA
ATOM     24  H   UNL     1       7.062   4.944  20.775  0.00  0.00    +0.000 HD
ENDBRANCH  22  23
ENDBRANCH  21  22
ENDBRANCH   1  21
TORSDOF 12
ENDMDL
MODEL 7
REMARK VINA RESULT:      -6.7      3.189      6.945
REMARK  Name = 
REMARK  13 active torsions:
REMARK  status: ('A' for Active; 'I' for Inactive)
REMARK    1  A    between atoms: C_1  and  C_2
REMARK    2  A    between atoms: C_2  and  C_3
REMARK    3  A    between atoms: C_3  and  C_4
REMARK    4  A    between atoms: C_4  and  C_5
REMARK    5  A    between atoms: C_5  and  C_6
REMARK    6  A    between atoms: C_6  and  C_7
REMARK    7  A    between atoms: C_7  and  C_8
REMARK    8  A    between atoms: C_8  and  C_9
REMARK    9  A    between atoms: C_9  and  C_10
REMARK   10  A    between atoms: C_10  and  C_11
REMARK   11  A    between atoms: C_10  and  N_14
REMARK   12  A    between atoms: C_11  and  C_12
REMARK   13  A    between atoms: C_12  and  O_13
REMARK                            x       y       z     vdW  Elec       q    Type
REMARK                         _______ _______ _______ _____ _____    ______ ____
ROOT
ATOM      1  C   UNL     1       5.494   6.305  17.170  0.00  0.00    +0.000 C 
ENDROOT
BRANCH   1   2
ATOM      2  N   UNL     1       4.348   5.903  17.987  0.00  0.00    +0.000 N 
ATOM      3  C   UNL     1       3.213   6.657  18.155  0.00  0.00    +0.000 A 
ATOM      4  N   UNL     1       2.332   6.062  18.933  0.00  0.00    +0.000 NA
ATOM      5  C   UNL     1       2.929   4.878  19.307  0.00  0.00    +0.000 A 
ATOM      6  C   UNL     1       2.562   3.810  20.114  0.00  0.00    +0.000 A 
ATOM      7 CL   UNL     1       1.041   3.822  20.862  0.00  0.00    +0.000 Cl
ATOM      8  N   UNL     1       3.374   2.758  20.328  0.00  0.00    +0.000 NA
ATOM      9  C   UNL     1       4.563   2.786  19.703  0.00  0.00    +0.000 A 
ATOM     10  N   UNL     1       5.038   3.734  18.874  0.00  0.00    +0.000 NA
ATOM     11  C   UNL     1       4.184   4.757  18.726  0.00  0.00    +0.000 A 
ENDBRANCH   1   2
BRANCH   1  12
ATOM     12  C   UNL     1       6.827   6.295  17.945  0.00  0.00    +0.000 C 
BRANCH  12  13
ATOM     13  C   UNL     1       7.860   7.284  17.417  0.00  0.00    +0.000 C 
BRANCH  13  14
ATOM     14  C   UNL     1       7.439   8.718  17.738  0.00  0.00    +0.000 C 
BRANCH  14  15
ATOM     15  C   UNL     1       8.670   9.596  17.929  0.00  0.00    +0.000 C 
BRANCH  15  16
ATOM     16  C   UNL     1       8.993   9.788  19.406  0.00  0.00    +0.000 C 
BRANCH  16  17
ATOM     17  C   UNL     1       9.786  11.077  19.610  0.00  0.00    +0.000 C 
BRANCH  17  18
ATOM     18  C   UNL     1      10.346  11.585  18.286  0.00  0.00    +0.000 C 
BRANCH  18  20
ATOM     19  C   UNL     1      12.315  11.944  19.796  0.00  0.00    +0.000 C 
ATOM     20  C   UNL     1      11.860  11.761  18.359  0.00  0.00    +0.000 C 
ENDBRANCH  18  20
ENDBRANCH  17  18
ENDBRANCH  16  17
ENDBRANCH  15  16
ENDBRANCH  14  15
ENDBRANCH  13  14
ENDBRANCH  12  13
ENDBRANCH   1  12
BRANCH   1  21
ATOM     21  C   UNL     1       5.522   5.541  15.832  0.00  0.00    +0.000 C 
BRANCH  21  22
ATOM     22  C   UNL     1       6.525   4.396  15.760  0.00  0.00    +0.000 C 
BRANCH  22  23
ATOM     23  O   UNL     1       5.852   3.174  16.043  0.00  0.00    +0.000 OA
ATOM     24  H   UNL     1       6.101   2.532  15.355  0.00  0.00    +0.000 HD
ENDBRANCH  22  23
ENDBRANCH  21  22
ENDBRANCH   1  21
TORSDOF 12
ENDMDL
MODEL 8
REMARK VINA RESULT:      -6.5      1.228      1.333
REMARK  Name = 
REMARK  13 active torsions:
REMARK  status: ('A' for Active; 'I' for Inactive)
REMARK    1  A    between atoms: C_1  and  C_2
REMARK    2  A    between atoms: C_2  and  C_3
REMARK    3  A    between atoms: C_3  and  C_4
REMARK    4  A    between atoms: C_4  and  C_5
REMARK    5  A    between atoms: C_5  and  C_6
REMARK    6  A    between atoms: C_6  and  C_7
REMARK    7  A    between atoms: C_7  and  C_8
REMARK    8  A    between atoms: C_8  and  C_9
REMARK    9  A    between atoms: C_9  and  C_10
REMARK   10  A    between atoms: C_10  and  C_11
REMARK   11  A    between atoms: C_10  and  N_14
REMARK   12  A    between atoms: C_11  and  C_12
REMARK   13  A    between atoms: C_12  and  O_13
REMARK                            x       y       z     vdW  Elec       q    Type
REMARK                         _______ _______ _______ _____ _____    ______ ____
ROOT
ATOM      1  C   UNL     1       6.670   6.297  17.670  0.00  0.00    +0.000 C 
ENDROOT
BRANCH   1   2
ATOM      2  N   UNL     1       5.281   5.958  17.987  0.00  0.00    +0.000 N 
ATOM      3  C   UNL     1       4.201   6.750  17.681  0.00  0.00    +0.000 A 
ATOM      4  N   UNL     1       3.064   6.209  18.070  0.00  0.00    +0.000 NA
ATOM      5  C   UNL     1       3.421   5.025  18.676  0.00  0.00    +0.000 A 
ATOM      6  C   UNL     1       2.727   3.999  19.304  0.00  0.00    +0.000 A 
ATOM      7 CL   UNL     1       1.038   4.082  19.401  0.00  0.00    +0.000 Cl
ATOM      8  N   UNL     1       3.350   2.935  19.843  0.00  0.00    +0.000 NA
ATOM      9  C   UNL     1       4.689   2.906  19.729  0.00  0.00    +0.000 A 
ATOM     10  N   UNL     1       5.485   3.808  19.126  0.00  0.00    +0.000 NA
ATOM     11  C   UNL     1       4.797   4.848  18.632  0.00  0.00    +0.000 A 
ENDBRANCH   1   2
BRANCH   1  12
ATOM     12  C   UNL     1       7.286   5.386  16.589  0.00  0.00    +0.000 C 
BRANCH  12  13
ATOM     13  C   UNL     1       6.470   5.307  15.304  0.00  0.00    +0.000 C 
BRANCH  13  14
ATOM     14  C   UNL     1       6.135   3.852  14.973  0.00  0.00    +0.000 C 
BRANCH  14  15
ATOM     15  C   UNL     1       5.334   3.780  13.679  0.00  0.00    +0.000 C 
BRANCH  15  16
ATOM     16  C   UNL     1       6.140   3.129  12.561  0.00  0.00    +0.000 C 
BRANCH  16  17
ATOM     17  C   UNL     1       5.494   3.414  11.207  0.00  0.00    +0.000 C 
BRANCH  17  18
ATOM     18  C   UNL     1       4.021   3.768  11.373  0.00  0.00    +0.000 C 
BRANCH  18  20
ATOM     19  C   UNL     1       2.660   4.415   9.370  0.00  0.00    +0.000 C 
ATOM     20  C   UNL     1       3.195   3.259  10.196  0.00  0.00    +0.000 C 
ENDBRANCH  18  20
ENDBRANCH  17  18
ENDBRANCH  16  17
ENDBRANCH  15  16
ENDBRANCH  14  15
ENDBRANCH  13  14
ENDBRANCH  12  13
ENDBRANCH   1  12
BRANCH   1  21
ATOM     21  C   UNL     1       6.832   7.807  17.408  0.00  0.00    +0.000 C 
BRANCH  21  22
ATOM     22  C   UNL     1       8.133   8.416  17.917  0.00  0.00    +0.000 C 
BRANCH  22  23
ATOM     23  O   UNL     1       8.631   7.617  18.984  0.00  0.00    +0.000 OA
ATOM     24  H   UNL     1       9.505   7.280  18.720  0.00  0.00    +0.000 HD
ENDBRANCH  22  23
ENDBRANCH  21  22
ENDBRANCH   1  21
TORSDOF 12
ENDMDL
MODEL 9
REMARK VINA RESULT:      -6.5      2.982      6.834
REMARK  Name = 
REMARK  13 active torsions:
REMARK  status: ('A' for Active; 'I' for Inactive)
REMARK    1  A    between atoms: C_1  and  C_2
REMARK    2  A    between atoms: C_2  and  C_3
REMARK    3  A    between atoms: C_3  and  C_4
REMARK    4  A    between atoms: C_4  and  C_5
REMARK    5  A    between atoms: C_5  and  C_6
REMARK    6  A    between atoms: C_6  and  C_7
REMARK    7  A    between atoms: C_7  and  C_8
REMARK    8  A    between atoms: C_8  and  C_9
REMARK    9  A    between atoms: C_9  and  C_10
REMARK   10  A    between atoms: C_10  and  C_11
REMARK   11  A    between atoms: C_10  and  N_14
REMARK   12  A    between atoms: C_11  and  C_12
REMARK   13  A    between atoms: C_12  and  O_13
REMARK                            x       y       z     vdW  Elec       q    Type
REMARK                         _______ _______ _______ _____ _____    ______ ____
ROOT
ATOM      1  C   UNL     1       5.846   5.925  17.178  0.00  0.00    +0.000 C 
ENDROOT
BRANCH   1   2
ATOM      2  N   UNL     1       4.611   5.637  17.910  0.00  0.00    +0.000 N 
ATOM      3  C   UNL     1       3.507   6.453  17.921  0.00  0.00    +0.000 A 
ATOM      4  N   UNL     1       2.530   5.957  18.652  0.00  0.00    +0.000 NA
ATOM      5  C   UNL     1       3.027   4.777  19.158  0.00  0.00    +0.000 A 
ATOM      6  C   UNL     1       2.534   3.787  19.998  0.00  0.00    +0.000 A 
ATOM      7 CL   UNL     1       0.955   3.923  20.598  0.00  0.00    +0.000 Cl
ATOM      8  N   UNL     1       3.267   2.716  20.356  0.00  0.00    +0.000 NA
ATOM      9  C   UNL     1       4.507   2.643  19.843  0.00  0.00    +0.000 A 
ATOM     10  N   UNL     1       5.103   3.507  19.000  0.00  0.00    +0.000 NA
ATOM     11  C   UNL     1       4.321   4.556  18.706  0.00  0.00    +0.000 A 
ENDBRANCH   1   2
BRANCH   1  12
ATOM     12  C   UNL     1       7.114   5.447  17.912  0.00  0.00    +0.000 C 
BRANCH  12  13
ATOM     13  C   UNL     1       7.865   6.555  18.642  0.00  0.00    +0.000 C 
BRANCH  13  14
ATOM     14  C   UNL     1       7.765   7.868  17.866  0.00  0.00    +0.000 C 
BRANCH  14  15
ATOM     15  C   UNL     1       8.626   8.936  18.529  0.00  0.00    +0.000 C 
BRANCH  15  16
ATOM     16  C   UNL     1       8.798  10.152  17.626  0.00  0.00    +0.000 C 
BRANCH  16  17
ATOM     17  C   UNL     1       8.799  11.433  18.458  0.00  0.00    +0.000 C 
BRANCH  17  18
ATOM     18  C   UNL     1      10.204  12.014  18.558  0.00  0.00    +0.000 C 
BRANCH  18  20
ATOM     19  C   UNL     1      12.323  12.000  19.897  0.00  0.00    +0.000 C 
ATOM     20  C   UNL     1      10.833  11.711  19.914  0.00  0.00    +0.000 C 
ENDBRANCH  18  20
ENDBRANCH  17  18
ENDBRANCH  16  17
ENDBRANCH  15  16
ENDBRANCH  14  15
ENDBRANCH  13  14
ENDBRANCH  12  13
ENDBRANCH   1  12
BRANCH   1  21
ATOM     21  C   UNL     1       5.743   5.472  15.708  0.00  0.00    +0.000 C 
BRANCH  21  22
ATOM     22  C   UNL     1       6.908   4.628  15.208  0.00  0.00    +0.000 C 
BRANCH  22  23
ATOM     23  O   UNL     1       7.769   5.447  14.424  0.00  0.00    +0.000 OA
ATOM     24  H   UNL     1       8.673   5.099  14.514  0.00  0.00    +0.000 HD
ENDBRANCH  22  23
ENDBRANCH  21  22
ENDBRANCH   1  21
TORSDOF 12
ENDMDL
