MODEL 1
REMARK VINA RESULT:      -8.2      0.000      0.000
REMARK  Name = 
REMARK  6 active torsions:
REMARK  status: ('A' for Active; 'I' for Inactive)
REMARK    1  A    between atoms: C_1  and  C_2
REMARK    2  A    between atoms: C_2  and  C_3
REMARK    3  A    between atoms: C_3  and  C_9
REMARK    4  A    between atoms: N_4  and  N_5
REMARK    5  A    between atoms: N_11  and  S_12
REMARK    6  A    between atoms: S_12  and  C_15
REMARK                            x       y       z     vdW  Elec       q    Type
REMARK                         _______ _______ _______ _____ _____    ______ ____
ROOT
ATOM      1  C   UNL     1       5.694   5.710  17.242  0.00  0.00    +0.000 A 
ATOM      2  C   UNL     1       5.363   4.370  17.343  0.00  0.00    +0.000 A 
ATOM      3  N   UNL     1       4.024   4.272  17.627  0.00  0.00    +0.000 N 
ATOM      4  C   UNL     1       3.476   5.516  17.848  0.00  0.00    +0.000 A 
ATOM      5  C   UNL     1       2.213   5.937  18.306  0.00  0.00    +0.000 A 
ATOM      6  C   UNL     1       1.931   7.307  18.312  0.00  0.00    +0.000 A 
ATOM      7  C   UNL     1       2.851   8.220  17.819  0.00  0.00    +0.000 A 
ATOM      8 BR   UNL     1       2.434  10.064  17.797  0.00  0.00    +0.000 Br
ATOM      9  C   UNL     1       4.096   7.797  17.355  0.00  0.00    +0.000 A 
ATOM     10  C   UNL     1       4.460   6.434  17.452  0.00  0.00    +0.000 A 
ENDROOT
BRANCH   3  11
ATOM     11  S   UNL     1       3.203   2.779  17.716  0.00  0.00    +0.000 S 
ATOM     12  O   UNL     1       2.173   2.813  16.697  0.00  0.00    +0.000 OA
ATOM     13  O   UNL     1       4.256   1.779  17.708  0.00  0.00    +0.000 OA
BRANCH  11  14
ATOM     14  C   UNL     1       2.406   2.677  19.291  0.00  0.00    +0.000 A 
ATOM     15  C   UNL     1       1.022   2.760  19.449  0.00  0.00    +0.000 A 
ATOM     16  C   UNL     1       0.481   2.736  20.738  0.00  0.00    +0.000 A 
ATOM     17  C   UNL     1       1.314   2.623  21.854  0.00  0.00    +0.000 A 
ATOM     18  C   UNL     1       2.694   2.521  21.690  0.00  0.00    +0.000 A 
ATOM     19  C   UNL     1       3.242   2.546  20.410  0.00  0.00    +0.000 A 
ENDBRANCH  11  14
ENDBRANCH   3  11
BRANCH   1  20
ATOM     20  C   UNL     1       7.039   6.222  16.923  0.00  0.00    +0.000 C 
ATOM     21  N   UNL     1       7.696   5.969  15.825  0.00  0.00    +0.000 NA
BRANCH  21  22
ATOM     22  N   UNL     1       7.064   5.365  14.775  0.00  0.00    +0.000 N 
ATOM     23  C   UNL     1       7.622   5.291  13.522  0.00  0.00    +0.000 C 
ATOM     24  N   UNL     1       8.838   5.876  13.410  0.00  0.00    +0.000 N 
ATOM     25  O   UNL     1       7.098   4.685  12.597  0.00  0.00    +0.000 OA
ATOM     26  H   UNL     1       6.217   4.827  14.919  0.00  0.00    +0.000 HD
ATOM     27  H   UNL     1       9.077   6.547  14.127  0.00  0.00    +0.000 HD
ATOM     28  H   UNL     1       9.258   5.931  12.495  0.00  0.00    +0.000 HD
ENDBRANCH  21  22
BRANCH  20  30
ATOM     29  C   UNL     1       7.726   8.573  17.503  0.00  0.00    +0.000 C 
ATOM     30  C   UNL     1       7.749   7.115  17.935  0.00  0.00    +0.000 C 
ENDBRANCH  20  30
ENDBRANCH   1  20
TORSDOF 5
ENDMDL
MODEL 2
REMARK VINA RESULT:      -8.1      0.335      1.051
REMARK  Name = 
REMARK  6 active torsions:
REMARK  status: ('A' for Active; 'I' for Inactive)
REMARK    1  A    between atoms: C_1  and  C_2
REMARK    2  A    between atoms: C_2  and  C_3
REMARK    3  A    between atoms: C_3  and  C_9
REMARK    4  A    between atoms: N_4  and  N_5
REMARK    5  A    between atoms: N_11  and  S_12
REMARK    6  A    between atoms: S_12  and  C_15
REMARK                            x       y       z     vdW  Elec       q    Type
REMARK                         _______ _______ _______ _____ _____    ______ ____
ROOT
ATOM      1  C   UNL     1       5.580   5.835  17.068  0.00  0.00    +0.000 A 
ATOM      2  C   UNL     1       5.255   4.496  17.200  0.00  0.00    +0.000 A 
ATOM      3  N   UNL     1       3.938   4.401  17.576  0.00  0.00    +0.000 N 
ATOM      4  C   UNL     1       3.408   5.648  17.826  0.00  0.00    +0.000 A 
ATOM      5  C   UNL     1       2.180   6.074  18.366  0.00  0.00    +0.000 A 
ATOM      6  C   UNL     1       1.901   7.444  18.384  0.00  0.00    +0.000 A 
ATOM      7  C   UNL     1       2.785   8.353  17.822  0.00  0.00    +0.000 A 
ATOM      8 BR   UNL     1       2.370  10.197  17.818  0.00  0.00    +0.000 Br
ATOM      9  C   UNL     1       3.995   7.925  17.277  0.00  0.00    +0.000 A 
ATOM     10  C   UNL     1       4.364   6.562  17.357  0.00  0.00    +0.000 A 
ENDROOT
BRANCH   3  11
ATOM     11  S   UNL     1       3.124   2.910  17.730  0.00  0.00    +0.000 S 
ATOM     12  O   UNL     1       1.999   2.958  16.818  0.00  0.00    +0.000 OA
ATOM     13  O   UNL     1       4.167   1.907  17.610  0.00  0.00    +0.000 OA
BRANCH  11  14
ATOM     14  C   UNL     1       2.486   2.796  19.375  0.00  0.00    +0.000 A 
ATOM     15  C   UNL     1       3.294   2.565  20.489  0.00  0.00    +0.000 A 
ATOM     16  C   UNL     1       2.697   2.424  21.746  0.00  0.00    +0.000 A 
ATOM     17  C   UNL     1       1.310   2.520  21.887  0.00  0.00    +0.000 A 
ATOM     18  C   UNL     1       0.510   2.768  20.774  0.00  0.00    +0.000 A 
ATOM     19  C   UNL     1       1.095   2.909  19.518  0.00  0.00    +0.000 A 
ENDBRANCH  11  14
ENDBRANCH   3  11
BRANCH   1  20
ATOM     20  C   UNL     1       6.900   6.343  16.654  0.00  0.00    +0.000 C 
ATOM     21  N   UNL     1       7.569   5.930  15.613  0.00  0.00    +0.000 NA
BRANCH  21  22
ATOM     22  N   UNL     1       6.968   5.121  14.691  0.00  0.00    +0.000 N 
ATOM     23  C   UNL     1       7.414   5.019  13.396  0.00  0.00    +0.000 C 
ATOM     24  N   UNL     1       8.488   5.792  13.106  0.00  0.00    +0.000 N 
ATOM     25  O   UNL     1       6.930   4.240  12.586  0.00  0.00    +0.000 OA
ATOM     26  H   UNL     1       6.250   4.462  14.969  0.00  0.00    +0.000 HD
ATOM     27  H   UNL     1       8.663   6.564  13.735  0.00  0.00    +0.000 HD
ATOM     28  H   UNL     1       8.807   5.826  12.151  0.00  0.00    +0.000 HD
ENDBRANCH  21  22
BRANCH  20  30
ATOM     29  C   UNL     1       8.134   6.872  18.783  0.00  0.00    +0.000 C 
ATOM     30  C   UNL     1       7.567   7.432  17.487  0.00  0.00    +0.000 C 
ENDBRANCH  20  30
ENDBRANCH   1  20
TORSDOF 5
ENDMDL
MODEL 3
REMARK VINA RESULT:      -7.6      2.626      6.656
REMARK  Name = 
REMARK  6 active torsions:
REMARK  status: ('A' for Active; 'I' for Inactive)
REMARK    1  A    between atoms: C_1  and  C_2
REMARK    2  A    between atoms: C_2  and  C_3
REMARK    3  A    between atoms: C_3  and  C_9
REMARK    4  A    between atoms: N_4  and  N_5
REMARK    5  A    between atoms: N_11  and  S_12
REMARK    6  A    between atoms: S_12  and  C_15
REMARK                            x       y       z     vdW  Elec       q    Type
REMARK                         _______ _______ _______ _____ _____    ______ ____
ROOT
ATOM      1  C   UNL     1       3.604   3.975  17.721  0.00  0.00    +0.000 A 
ATOM      2  C   UNL     1       4.824   3.753  17.107  0.00  0.00    +0.000 A 
ATOM      3  N   UNL     1       5.416   4.967  16.860  0.00  0.00    +0.000 N 
ATOM      4  C   UNL     1       4.564   6.002  17.177  0.00  0.00    +0.000 A 
ATOM      5  C   UNL     1       4.634   7.394  16.976  0.00  0.00    +0.000 A 
ATOM      6  C   UNL     1       3.630   8.196  17.529  0.00  0.00    +0.000 A 
ATOM      7  C   UNL     1       2.628   7.638  18.309  0.00  0.00    +0.000 A 
ATOM      8 BR   UNL     1       1.305   8.745  19.082  0.00  0.00    +0.000 Br
ATOM      9  C   UNL     1       2.570   6.260  18.515  0.00  0.00    +0.000 A 
ATOM     10  C   UNL     1       3.496   5.409  17.867  0.00  0.00    +0.000 A 
ENDROOT
BRANCH   3  11
ATOM     11  S   UNL     1       6.988   5.118  16.216  0.00  0.00    +0.000 S 
ATOM     12  O   UNL     1       7.357   6.512  16.349  0.00  0.00    +0.000 OA
ATOM     13  O   UNL     1       7.750   4.058  16.854  0.00  0.00    +0.000 OA
BRANCH  11  14
ATOM     14  C   UNL     1       6.918   4.736  14.491  0.00  0.00    +0.000 A 
ATOM     15  C   UNL     1       6.084   3.749  13.964  0.00  0.00    +0.000 A 
ATOM     16  C   UNL     1       6.140   3.468  12.596  0.00  0.00    +0.000 A 
ATOM     17  C   UNL     1       7.015   4.172  11.764  0.00  0.00    +0.000 A 
ATOM     18  C   UNL     1       7.832   5.169  12.291  0.00  0.00    +0.000 A 
ATOM     19  C   UNL     1       7.784   5.454  13.653  0.00  0.00    +0.000 A 
ENDBRANCH  11  14
ENDBRANCH   3  11
BRANCH   1  20
ATOM     20  C   UNL     1       2.681   2.915  18.164  0.00  0.00    +0.000 C 
ATOM     21  N   UNL     1       3.027   1.854  18.841  0.00  0.00    +0.000 NA
BRANCH  21  22
ATOM     22  N   UNL     1       4.279   1.767  19.381  0.00  0.00    +0.000 N 
ATOM     23  C   UNL     1       4.510   1.890  20.729  0.00  0.00    +0.000 C 
ATOM     24  N   UNL     1       3.402   2.116  21.475  0.00  0.00    +0.000 N 
ATOM     25  O   UNL     1       5.617   1.737  21.230  0.00  0.00    +0.000 OA
ATOM     26  H   UNL     1       5.068   1.472  18.818  0.00  0.00    +0.000 HD
ATOM     27  H   UNL     1       2.595   2.466  20.977  0.00  0.00    +0.000 HD
ATOM     28  H   UNL     1       3.519   2.301  22.458  0.00  0.00    +0.000 HD
ENDBRANCH  21  22
BRANCH  20  30
ATOM     29  C   UNL     1       0.325   2.848  19.047  0.00  0.00    +0.000 C 
ATOM     30  C   UNL     1       1.201   3.032  17.817  0.00  0.00    +0.000 C 
ENDBRANCH  20  30
ENDBRANCH   1  20
TORSDOF 5
ENDMDL
MODEL 4
REMARK VINA RESULT:      -7.6      3.390      4.705
REMARK  Name = 
REMARK  6 active torsions:
REMARK  status: ('A' for Active; 'I' for Inactive)
REMARK    1  A    between atoms: C_1  and  C_2
REMARK    2  A    between atoms: C_2  and  C_3
REMARK    3  A    between atoms: C_3  and  C_9
REMARK    4  A    between atoms: N_4  and  N_5
REMARK    5  A    between atoms: N_11  and  S_12
REMARK    6  A    between atoms: S_12  and  C_15
REMARK                            x       y       z     vdW  Elec       q    Type
REMARK                         _______ _______ _______ _____ _____    ______ ____
ROOT
ATOM      1  C   UNL     1       5.137   6.614  17.403  0.00  0.00    +0.000 A 
ATOM      2  C   UNL     1       4.435   7.806  17.360  0.00  0.00    +0.000 A 
ATOM      3  N   UNL     1       3.127   7.556  17.693  0.00  0.00    +0.000 N 
ATOM      4  C   UNL     1       2.906   6.203  17.831  0.00  0.00    +0.000 A 
ATOM      5  C   UNL     1       1.738   5.439  18.013  0.00  0.00    +0.000 A 
ATOM      6  C   UNL     1       1.871   4.064  18.234  0.00  0.00    +0.000 A 
ATOM      7  C   UNL     1       3.126   3.482  18.334  0.00  0.00    +0.000 A 
ATOM      8 BR   UNL     1       3.284   1.629  18.675  0.00  0.00    +0.000 Br
ATOM      9  C   UNL     1       4.280   4.246  18.165  0.00  0.00    +0.000 A 
ATOM     10  C   UNL     1       4.179   5.613  17.816  0.00  0.00    +0.000 A 
ENDROOT
BRANCH   3  11
ATOM     11  S   UNL     1       1.963   8.790  17.867  0.00  0.00    +0.000 S 
ATOM     12  O   UNL     1       2.614  10.028  17.488  0.00  0.00    +0.000 OA
ATOM     13  O   UNL     1       0.792   8.293  17.167  0.00  0.00    +0.000 OA
BRANCH  11  14
ATOM     14  C   UNL     1       1.531   8.906  19.578  0.00  0.00    +0.000 A 
ATOM     15  C   UNL     1       1.761   7.875  20.491  0.00  0.00    +0.000 A 
ATOM     16  C   UNL     1       1.328   8.026  21.812  0.00  0.00    +0.000 A 
ATOM     17  C   UNL     1       0.679   9.196  22.216  0.00  0.00    +0.000 A 
ATOM     18  C   UNL     1       0.469  10.229  21.305  0.00  0.00    +0.000 A 
ATOM     19  C   UNL     1       0.895  10.087  19.987  0.00  0.00    +0.000 A 
ENDBRANCH  11  14
ENDBRANCH   3  11
BRANCH   1  20
ATOM     20  C   UNL     1       6.578   6.476  17.129  0.00  0.00    +0.000 C 
ATOM     21  N   UNL     1       7.089   5.945  16.052  0.00  0.00    +0.000 NA
BRANCH  21  22
ATOM     22  N   UNL     1       6.288   5.669  14.981  0.00  0.00    +0.000 N 
ATOM     23  C   UNL     1       5.940   4.387  14.631  0.00  0.00    +0.000 C 
ATOM     24  N   UNL     1       6.466   3.423  15.425  0.00  0.00    +0.000 N 
ATOM     25  O   UNL     1       5.162   4.134  13.721  0.00  0.00    +0.000 OA
ATOM     26  H   UNL     1       5.808   6.412  14.486  0.00  0.00    +0.000 HD
ATOM     27  H   UNL     1       7.269   3.690  15.977  0.00  0.00    +0.000 HD
ATOM     28  H   UNL     1       6.318   2.460  15.166  0.00  0.00    +0.000 HD
ENDBRANCH  21  22
BRANCH  20  30
ATOM     29  C   UNL     1       7.884   5.907  19.204  0.00  0.00    +0.000 C 
ATOM     30  C   UNL     1       7.578   6.976  18.166  0.00  0.00    +0.000 C 
ENDBRANCH  20  30
ENDBRANCH   1  20
TORSDOF 5
ENDMDL
MODEL 5
REMARK VINA RESULT:      -7.6      0.932      1.222
REMARK  Name = 
REMARK  6 active torsions:
REMARK  status: ('A' for Active; 'I' for Inactive)
REMARK    1  A    between atoms: C_1  and  C_2
REMARK    2  A    between atoms: C_2  and  C_3
REMARK    3  A    between atoms: C_3  and  C_9
REMARK    4  A    between atoms: N_4  and  N_5
REMARK    5  A    between atoms: N_11  and  S_12
REMARK    6  A    between atoms: S_12  and  C_15
REMARK                            x       y       z     vdW  Elec       q    Type
REMARK                         _______ _______ _______ _____ _____    ______ ____
ROOT
ATOM      1  C   UNL     1       5.996   5.697  17.377  0.00  0.00    +0.000 A 
ATOM      2  C   UNL     1       6.004   4.378  17.796  0.00  0.00    +0.000 A 
ATOM      3  N   UNL     1       4.797   4.102  18.391  0.00  0.00    +0.000 N 
ATOM      4  C   UNL     1       4.029   5.241  18.496  0.00  0.00    +0.000 A 
ATOM      5  C   UNL     1       2.810   5.514  19.143  0.00  0.00    +0.000 A 
ATOM      6  C   UNL     1       2.229   6.773  18.959  0.00  0.00    +0.000 A 
ATOM      7  C   UNL     1       2.809   7.703  18.110  0.00  0.00    +0.000 A 
ATOM      8 BR   UNL     1       1.985   9.384  17.842  0.00  0.00    +0.000 Br
ATOM      9  C   UNL     1       4.011   7.422  17.462  0.00  0.00    +0.000 A 
ATOM     10  C   UNL     1       4.689   6.209  17.723  0.00  0.00    +0.000 A 
ENDROOT
BRANCH   3  11
ATOM     11  S   UNL     1       4.370   2.544  18.938  0.00  0.00    +0.000 S 
ATOM     12  O   UNL     1       4.436   1.669  17.785  0.00  0.00    +0.000 OA
ATOM     13  O   UNL     1       5.195   2.327  20.114  0.00  0.00    +0.000 OA
BRANCH  11  14
ATOM     14  C   UNL     1       2.690   2.592  19.488  0.00  0.00    +0.000 A 
ATOM     15  C   UNL     1       1.603   2.497  18.618  0.00  0.00    +0.000 A 
ATOM     16  C   UNL     1       0.307   2.610  19.132  0.00  0.00    +0.000 A 
ATOM     17  C   UNL     1       0.102   2.807  20.500  0.00  0.00    +0.000 A 
ATOM     18  C   UNL     1       1.190   2.883  21.367  0.00  0.00    +0.000 A 
ATOM     19  C   UNL     1       2.485   2.773  20.864  0.00  0.00    +0.000 A 
ENDBRANCH  11  14
ENDBRANCH   3  11
BRANCH   1  20
ATOM     20  C   UNL     1       7.106   6.361  16.671  0.00  0.00    +0.000 C 
ATOM     21  N   UNL     1       7.613   5.970  15.535  0.00  0.00    +0.000 NA
BRANCH  21  22
ATOM     22  N   UNL     1       6.980   5.008  14.800  0.00  0.00    +0.000 N 
ATOM     23  C   UNL     1       7.201   4.842  13.454  0.00  0.00    +0.000 C 
ATOM     24  N   UNL     1       8.085   5.715  12.916  0.00  0.00    +0.000 N 
ATOM     25  O   UNL     1       6.697   3.936  12.805  0.00  0.00    +0.000 OA
ATOM     26  H   UNL     1       6.424   4.291  15.252  0.00  0.00    +0.000 HD
ATOM     27  H   UNL     1       8.257   6.559  13.446  0.00  0.00    +0.000 HD
ATOM     28  H   UNL     1       8.223   5.700  11.918  0.00  0.00    +0.000 HD
ENDBRANCH  21  22
BRANCH  20  30
ATOM     29  C   UNL     1       8.250   7.321  18.697  0.00  0.00    +0.000 C 
ATOM     30  C   UNL     1       7.739   7.602  17.293  0.00  0.00    +0.000 C 
ENDBRANCH  20  30
ENDBRANCH   1  20
TORSDOF 5
ENDMDL
MODEL 6
REMARK VINA RESULT:      -7.2      1.786      2.526
REMARK  Name = 
REMARK  6 active torsions:
REMARK  status: ('A' for Active; 'I' for Inactive)
REMARK    1  A    between atoms: C_1  and  C_2
REMARK    2  A    between atoms: C_2  and  C_3
REMARK    3  A    between atoms: C_3  and  C_9
REMARK    4  A    between atoms: N_4  and  N_5
REMARK    5  A    between atoms: N_11  and  S_12
REMARK    6  A    between atoms: S_12  and  C_15
REMARK                            x       y       z     vdW  Elec       q    Type
REMARK                         _______ _______ _______ _____ _____    ______ ____
ROOT
ATOM      1  C   UNL     1       5.373   5.230  16.582  0.00  0.00    +0.000 A 
ATOM      2  C   UNL     1       5.063   3.901  16.808  0.00  0.00    +0.000 A 
ATOM      3  N   UNL     1       3.840   3.838  17.430  0.00  0.00    +0.000 N 
ATOM      4  C   UNL     1       3.382   5.099  17.743  0.00  0.00    +0.000 A 
ATOM      5  C   UNL     1       2.285   5.558  18.495  0.00  0.00    +0.000 A 
ATOM      6  C   UNL     1       2.031   6.932  18.528  0.00  0.00    +0.000 A 
ATOM      7  C   UNL     1       2.803   7.813  17.786  0.00  0.00    +0.000 A 
ATOM      8 BR   UNL     1       2.417   9.664  17.811  0.00  0.00    +0.000 Br
ATOM      9  C   UNL     1       3.882   7.351  17.032  0.00  0.00    +0.000 A 
ATOM     10  C   UNL     1       4.243   5.984  17.077  0.00  0.00    +0.000 A 
ENDROOT
BRANCH   3  11
ATOM     11  S   UNL     1       3.052   2.365  17.775  0.00  0.00    +0.000 S 
ATOM     12  O   UNL     1       1.960   2.249  16.830  0.00  0.00    +0.000 OA
ATOM     13  O   UNL     1       4.119   1.382  17.838  0.00  0.00    +0.000 OA
BRANCH  11  14
ATOM     14  C   UNL     1       2.356   2.476  19.397  0.00  0.00    +0.000 A 
ATOM     15  C   UNL     1       0.987   2.618  19.628  0.00  0.00    +0.000 A 
ATOM     16  C   UNL     1       0.529   2.764  20.941  0.00  0.00    +0.000 A 
ATOM     17  C   UNL     1       1.430   2.761  22.010  0.00  0.00    +0.000 A 
ATOM     18  C   UNL     1       2.793   2.600  21.775  0.00  0.00    +0.000 A 
ATOM     19  C   UNL     1       3.259   2.455  20.470  0.00  0.00    +0.000 A 
ENDBRANCH  11  14
ENDBRANCH   3  11
BRANCH   1  20
ATOM     20  C   UNL     1       6.596   5.706  15.912  0.00  0.00    +0.000 C 
ATOM     21  N   UNL     1       7.574   6.340  16.500  0.00  0.00    +0.000 NA
BRANCH  21  22
ATOM     22  N   UNL     1       7.617   6.415  17.863  0.00  0.00    +0.000 N 
ATOM     23  C   UNL     1       8.000   5.355  18.648  0.00  0.00    +0.000 C 
ATOM     24  N   UNL     1       8.317   4.230  17.963  0.00  0.00    +0.000 N 
ATOM     25  O   UNL     1       8.116   5.437  19.864  0.00  0.00    +0.000 OA
ATOM     26  H   UNL     1       7.499   7.303  18.338  0.00  0.00    +0.000 HD
ATOM     27  H   UNL     1       7.966   4.172  17.017  0.00  0.00    +0.000 HD
ATOM     28  H   UNL     1       8.521   3.394  18.488  0.00  0.00    +0.000 HD
ENDBRANCH  21  22
BRANCH  20  30
ATOM     29  C   UNL     1       6.364   4.044  14.037  0.00  0.00    +0.000 C 
ATOM     30  C   UNL     1       6.763   5.461  14.416  0.00  0.00    +0.000 C 
ENDBRANCH  20  30
ENDBRANCH   1  20
TORSDOF 5
ENDMDL
MODEL 7
REMARK VINA RESULT:      -7.1      3.214      6.893
REMARK  Name = 
REMARK  6 active torsions:
REMARK  status: ('A' for Active; 'I' for Inactive)
REMARK    1  A    between atoms: C_1  and  C_2
REMARK    2  A    between atoms: C_2  and  C_3
REMARK    3  A    between atoms: C_3  and  C_9
REMARK    4  A    between atoms: N_4  and  N_5
REMARK    5  A    between atoms: N_11  and  S_12
REMARK    6  A    between atoms: S_12  and  C_15
REMARK                            x       y       z     vdW  Elec       q    Type
REMARK                         _______ _______ _______ _____ _____    ______ ____
ROOT
ATOM      1  C   UNL     1       3.680   6.385  17.934  0.00  0.00    +0.000 A 
ATOM      2  C   UNL     1       4.947   6.642  17.438  0.00  0.00    +0.000 A 
ATOM      3  N   UNL     1       5.515   5.451  17.057  0.00  0.00    +0.000 N 
ATOM      4  C   UNL     1       4.711   4.389  17.405  0.00  0.00    +0.000 A 
ATOM      5  C   UNL     1       4.901   2.995  17.371  0.00  0.00    +0.000 A 
ATOM      6  C   UNL     1       3.821   2.169  17.698  0.00  0.00    +0.000 A 
ATOM      7  C   UNL     1       2.577   2.711  17.984  0.00  0.00    +0.000 A 
ATOM      8 BR   UNL     1       1.118   1.576  18.382  0.00  0.00    +0.000 Br
ATOM      9  C   UNL     1       2.391   4.093  18.004  0.00  0.00    +0.000 A 
ATOM     10  C   UNL     1       3.492   4.958  17.803  0.00  0.00    +0.000 A 
ENDROOT
BRANCH   3  11
ATOM     11  S   UNL     1       7.034   5.355  16.286  0.00  0.00    +0.000 S 
ATOM     12  O   UNL     1       7.557   6.706  16.234  0.00  0.00    +0.000 OA
ATOM     13  O   UNL     1       7.733   4.289  16.981  0.00  0.00    +0.000 OA
BRANCH  11  14
ATOM     14  C   UNL     1       6.779   4.807  14.625  0.00  0.00    +0.000 A 
ATOM     15  C   UNL     1       5.741   3.949  14.259  0.00  0.00    +0.000 A 
ATOM     16  C   UNL     1       5.651   3.514  12.934  0.00  0.00    +0.000 A 
ATOM     17  C   UNL     1       6.584   3.938  11.984  0.00  0.00    +0.000 A 
ATOM     18  C   UNL     1       7.607   4.810  12.350  0.00  0.00    +0.000 A 
ATOM     19  C   UNL     1       7.705   5.247  13.668  0.00  0.00    +0.000 A 
ENDBRANCH  11  14
ENDBRANCH   3  11
BRANCH   1  20
ATOM     20  C   UNL     1       2.745   7.414  18.422  0.00  0.00    +0.000 C 
ATOM     21  N   UNL     1       2.174   7.410  19.596  0.00  0.00    +0.000 NA
BRANCH  21  22
ATOM     22  N   UNL     1       2.590   6.532  20.555  0.00  0.00    +0.000 N 
ATOM     23  C   UNL     1       1.837   5.450  20.941  0.00  0.00    +0.000 C 
ATOM     24  N   UNL     1       0.648   5.333  20.305  0.00  0.00    +0.000 N 
ATOM     25  O   UNL     1       2.236   4.616  21.744  0.00  0.00    +0.000 OA
ATOM     26  H   UNL     1       3.535   6.571  20.920  0.00  0.00    +0.000 HD
ATOM     27  H   UNL     1       0.298   6.170  19.858  0.00  0.00    +0.000 HD
ATOM     28  H   UNL     1       0.014   4.610  20.607  0.00  0.00    +0.000 HD
ENDBRANCH  21  22
BRANCH  20  30
ATOM     29  C   UNL     1       1.427   9.545  18.189  0.00  0.00    +0.000 C 
ATOM     30  C   UNL     1       2.389   8.583  17.510  0.00  0.00    +0.000 C 
ENDBRANCH  20  30
ENDBRANCH   1  20
TORSDOF 5
ENDMDL
MODEL 8
REMARK VINA RESULT:      -7.0      1.631      2.693
REMARK  Name = 
REMARK  6 active torsions:
REMARK  status: ('A' for Active; 'I' for Inactive)
REMARK    1  A    between atoms: C_1  and  C_2
REMARK    2  A    between atoms: C_2  and  C_3
REMARK    3  A    between atoms: C_3  and  C_9
REMARK    4  A    between atoms: N_4  and  N_5
REMARK    5  A    between atoms: N_11  and  S_12
REMARK    6  A    between atoms: S_12  and  C_15
REMARK                            x       y       z     vdW  Elec       q    Type
REMARK                         _______ _______ _______ _____ _____    ______ ____
ROOT
ATOM      1  C   UNL     1       5.196   4.968  16.185  0.00  0.00    +0.000 A 
ATOM      2  C   UNL     1       4.885   3.656  16.498  0.00  0.00    +0.000 A 
ATOM      3  N   UNL     1       3.793   3.653  17.331  0.00  0.00    +0.000 N 
ATOM      4  C   UNL     1       3.444   4.937  17.687  0.00  0.00    +0.000 A 
ATOM      5  C   UNL     1       2.517   5.453  18.612  0.00  0.00    +0.000 A 
ATOM      6  C   UNL     1       2.321   6.837  18.654  0.00  0.00    +0.000 A 
ATOM      7  C   UNL     1       2.978   7.672  17.762  0.00  0.00    +0.000 A 
ATOM      8 BR   UNL     1       2.667   9.537  17.807  0.00  0.00    +0.000 Br
ATOM      9  C   UNL     1       3.886   7.154  16.839  0.00  0.00    +0.000 A 
ATOM     10  C   UNL     1       4.201   5.775  16.855  0.00  0.00    +0.000 A 
ENDROOT
BRANCH   3  11
ATOM     11  S   UNL     1       3.029   2.219  17.850  0.00  0.00    +0.000 S 
ATOM     12  O   UNL     1       1.882   2.027  16.987  0.00  0.00    +0.000 OA
ATOM     13  O   UNL     1       4.099   1.241  17.933  0.00  0.00    +0.000 OA
BRANCH  11  14
ATOM     14  C   UNL     1       2.434   2.474  19.496  0.00  0.00    +0.000 A 
ATOM     15  C   UNL     1       3.261   2.422  20.619  0.00  0.00    +0.000 A 
ATOM     16  C   UNL     1       2.696   2.571  21.889  0.00  0.00    +0.000 A 
ATOM     17  C   UNL     1       1.321   2.776  22.033  0.00  0.00    +0.000 A 
ATOM     18  C   UNL     1       0.503   2.845  20.907  0.00  0.00    +0.000 A 
ATOM     19  C   UNL     1       1.057   2.697  19.639  0.00  0.00    +0.000 A 
ENDBRANCH  11  14
ENDBRANCH   3  11
BRANCH   1  20
ATOM     20  C   UNL     1       6.294   5.382  15.294  0.00  0.00    +0.000 C 
ATOM     21  N   UNL     1       7.448   5.844  15.692  0.00  0.00    +0.000 NA
BRANCH  21  22
ATOM     22  N   UNL     1       7.796   5.767  17.010  0.00  0.00    +0.000 N 
ATOM     23  C   UNL     1       7.823   6.868  17.832  0.00  0.00    +0.000 C 
ATOM     24  N   UNL     1       7.490   8.033  17.226  0.00  0.00    +0.000 N 
ATOM     25  O   UNL     1       8.058   6.797  19.030  0.00  0.00    +0.000 OA
ATOM     26  H   UNL     1       7.915   4.869  17.465  0.00  0.00    +0.000 HD
ATOM     27  H   UNL     1       7.552   8.043  16.217  0.00  0.00    +0.000 HD
ATOM     28  H   UNL     1       7.576   8.887  17.754  0.00  0.00    +0.000 HD
ENDBRANCH  21  22
BRANCH  20  30
ATOM     29  C   UNL     1       6.514   3.918  13.259  0.00  0.00    +0.000 C 
ATOM     30  C   UNL     1       6.099   5.283  13.785  0.00  0.00    +0.000 C 
ENDBRANCH  20  30
ENDBRANCH   1  20
TORSDOF 5
ENDMDL
MODEL 9
REMARK VINA RESULT:      -6.9      9.581     12.437
REMARK  Name = 
REMARK  6 active torsions:
REMARK  status: ('A' for Active; 'I' for Inactive)
REMARK    1  A    between atoms: C_1  and  C_2
REMARK    2  A    between atoms: C_2  and  C_3
REMARK    3  A    between atoms: C_3  and  C_9
REMARK    4  A    between atoms: N_4  and  N_5
REMARK    5  A    between atoms: N_11  and  S_12
REMARK    6  A    between atoms: S_12  and  C_15
REMARK                            x       y       z     vdW  Elec       q    Type
REMARK                         _______ _______ _______ _____ _____    ______ ____
ROOT
ATOM      1  C   UNL     1      -4.994  12.249  19.286  0.00  0.00    +0.000 A 
ATOM      2  C   UNL     1      -4.151  12.679  20.296  0.00  0.00    +0.000 A 
ATOM      3  N   UNL     1      -2.855  12.431  19.918  0.00  0.00    +0.000 N 
ATOM      4  C   UNL     1      -2.815  11.727  18.734  0.00  0.00    +0.000 A 
ATOM      5  C   UNL     1      -1.766  11.116  18.020  0.00  0.00    +0.000 A 
ATOM      6  C   UNL     1      -2.049  10.564  16.767  0.00  0.00    +0.000 A 
ATOM      7  C   UNL     1      -3.317  10.674  16.216  0.00  0.00    +0.000 A 
ATOM      8 BR   UNL     1      -3.668   9.958  14.501  0.00  0.00    +0.000 Br
ATOM      9  C   UNL     1      -4.349  11.291  16.922  0.00  0.00    +0.000 A 
ATOM     10  C   UNL     1      -4.129  11.747  18.243  0.00  0.00    +0.000 A 
ENDROOT
BRANCH   3  11
ATOM     11  S   UNL     1      -1.510  12.924  20.844  0.00  0.00    +0.000 S 
ATOM     12  O   UNL     1      -0.561  13.505  19.916  0.00  0.00    +0.000 OA
ATOM     13  O   UNL     1      -2.077  13.688  21.940  0.00  0.00    +0.000 OA
BRANCH  11  14
ATOM     14  C   UNL     1      -0.766  11.483  21.549  0.00  0.00    +0.000 A 
ATOM     15  C   UNL     1      -1.147  10.960  22.786  0.00  0.00    +0.000 A 
ATOM     16  C   UNL     1      -0.461   9.855  23.299  0.00  0.00    +0.000 A 
ATOM     17  C   UNL     1       0.589   9.276  22.580  0.00  0.00    +0.000 A 
ATOM     18  C   UNL     1       0.953   9.791  21.338  0.00  0.00    +0.000 A 
ATOM     19  C   UNL     1       0.276  10.892  20.820  0.00  0.00    +0.000 A 
ENDBRANCH  11  14
ENDBRANCH   3  11
BRANCH   1  20
ATOM     20  C   UNL     1      -6.463  12.365  19.310  0.00  0.00    +0.000 C 
ATOM     21  N   UNL     1      -7.225  12.027  20.314  0.00  0.00    +0.000 NA
BRANCH  21  22
ATOM     22  N   UNL     1      -6.667  11.733  21.526  0.00  0.00    +0.000 N 
ATOM     23  C   UNL     1      -7.002  12.408  22.675  0.00  0.00    +0.000 C 
ATOM     24  N   UNL     1      -7.917  13.393  22.506  0.00  0.00    +0.000 N 
ATOM     25  O   UNL     1      -6.565  12.102  23.776  0.00  0.00    +0.000 OA
ATOM     26  H   UNL     1      -6.085  10.912  21.645  0.00  0.00    +0.000 HD
ATOM     27  H   UNL     1      -8.032  13.734  21.562  0.00  0.00    +0.000 HD
ATOM     28  H   UNL     1      -8.136  13.980  23.295  0.00  0.00    +0.000 HD
ENDBRANCH  21  22
BRANCH  20  30
ATOM     29  C   UNL     1      -6.792  14.357  17.808  0.00  0.00    +0.000 C 
ATOM     30  C   UNL     1      -7.181  12.912  18.082  0.00  0.00    +0.000 C 
ENDBRANCH  20  30
ENDBRANCH   1  20
TORSDOF 5
ENDMDL
