MODEL 1
REMARK VINA RESULT:      -6.9      0.000      0.000
REMARK  Name = 
REMARK  9 active torsions:
REMARK  status: ('A' for Active; 'I' for Inactive)
REMARK    1  A    between atoms: C_1  and  N_2
REMARK    2  A    between atoms: N_2  and  C_3
REMARK    3  A    between atoms: N_2  and  C_4
REMARK    4  A    between atoms: C_4  and  C_5
REMARK    5  A    between atoms: C_5  and  N_6
REMARK    6  A    between atoms: C_7  and  C_9
REMARK    7  A    between atoms: C_12  and  C_13
REMARK    8  A    between atoms: C_14  and  C_15
REMARK    9  A    between atoms: N_24  and  C_25
REMARK                            x       y       z     vdW  Elec       q    Type
REMARK                         _______ _______ _______ _____ _____    ______ ____
ROOT
ATOM      1  C   UNL     1      -0.227  10.487  20.805  0.00  0.00    +0.000 A 
ATOM      2  C   UNL     1      -0.245  10.891  22.134  0.00  0.00    +0.000 A 
ATOM      3  N   UNL     1       0.636  10.159  22.887  0.00  0.00    +0.000 NA
ATOM      4  C   UNL     1       1.133   9.269  22.054  0.00  0.00    +0.000 A 
ATOM      5  N   UNL     1       0.638   9.417  20.788  0.00  0.00    +0.000 N 
ENDROOT
BRANCH   2   6
ATOM      6  C   UNL     1      -1.066  11.949  22.703  0.00  0.00    +0.000 A 
ATOM      7  C   UNL     1      -0.624  13.282  22.708  0.00  0.00    +0.000 A 
ATOM      8  C   UNL     1      -1.386  14.291  23.287  0.00  0.00    +0.000 A 
ATOM      9  C   UNL     1      -2.621  13.967  23.824  0.00  0.00    +0.000 A 
ATOM     10  F   UNL     1      -3.374  14.944  24.359  0.00  0.00    +0.000 F 
ATOM     11  C   UNL     1      -3.097  12.661  23.807  0.00  0.00    +0.000 A 
ATOM     12  C   UNL     1      -2.315  11.644  23.252  0.00  0.00    +0.000 A 
ENDBRANCH   2   6
BRANCH   1  16
ATOM     13  C   UNL     1      -2.436  11.567  18.178  0.00  0.00    +0.000 A 
ATOM     14  C   UNL     1      -1.362  12.372  17.897  0.00  0.00    +0.000 A 
ATOM     15  C   UNL     1      -0.365  12.042  18.830  0.00  0.00    +0.000 A 
ATOM     16  C   UNL     1      -0.876  11.065  19.666  0.00  0.00    +0.000 A 
ATOM     17  O   UNL     1      -2.153  10.773  19.264  0.00  0.00    +0.000 OA
BRANCH  13  19
ATOM     18  N   UNL     1      -4.787  11.362  18.370  0.00  0.00    +0.000 N 
ATOM     19  C   UNL     1      -3.715  11.441  17.521  0.00  0.00    +0.000 C 
ATOM     20  O   UNL     1      -3.829  11.375  16.284  0.00  0.00    +0.000 OA
ATOM     21  H   UNL     1      -4.635  11.590  19.359  0.00  0.00    +0.000 HD
BRANCH  18  22
ATOM     22  C   UNL     1      -6.141  11.276  17.876  0.00  0.00    +0.000 C 
BRANCH  22  23
ATOM     23  C   UNL     1      -7.188  11.855  18.845  0.00  0.00    +0.000 C 
BRANCH  23  25
ATOM     24  C   UNL     1      -7.498  12.518  21.152  0.00  0.00    +0.000 C 
ATOM     25  N   UNL     1      -6.959  11.485  20.260  0.00  0.00    +0.000 NA
ATOM     26  C   UNL     1      -7.601  10.203  20.576  0.00  0.00    +0.000 C 
ENDBRANCH  23  25
ENDBRANCH  22  23
ENDBRANCH  18  22
ENDBRANCH  13  19
ENDBRANCH   1  16
BRANCH   5  27
ATOM     27  C   UNL     1       1.074   8.666  19.632  0.00  0.00    +0.000 C 
ATOM     28  C   UNL     1       1.876   9.491  18.630  0.00  0.00    +0.000 C 
ATOM     29  C   UNL     1       2.505   8.440  17.730  0.00  0.00    +0.000 C 
ATOM     30  C   UNL     1       2.685   7.194  18.601  0.00  0.00    +0.000 C 
ATOM     31  C   UNL     1       1.995   7.485  19.933  0.00  0.00    +0.000 C 
ENDBRANCH   5  27
TORSDOF 7
ENDMDL
MODEL 2
REMARK VINA RESULT:      -6.8      4.970      8.629
REMARK  Name = 
REMARK  9 active torsions:
REMARK  status: ('A' for Active; 'I' for Inactive)
REMARK    1  A    between atoms: C_1  and  N_2
REMARK    2  A    between atoms: N_2  and  C_3
REMARK    3  A    between atoms: N_2  and  C_4
REMARK    4  A    between atoms: C_4  and  C_5
REMARK    5  A    between atoms: C_5  and  N_6
REMARK    6  A    between atoms: C_7  and  C_9
REMARK    7  A    between atoms: C_12  and  C_13
REMARK    8  A    between atoms: C_14  and  C_15
REMARK    9  A    between atoms: N_24  and  C_25
REMARK                            x       y       z     vdW  Elec       q    Type
REMARK                         _______ _______ _______ _____ _____    ______ ____
ROOT
ATOM      1  C   UNL     1       4.515   4.978  17.929  0.00  0.00    +0.000 A 
ATOM      2  C   UNL     1       5.824   5.136  17.493  0.00  0.00    +0.000 A 
ATOM      3  N   UNL     1       6.230   4.062  16.744  0.00  0.00    +0.000 NA
ATOM      4  C   UNL     1       5.216   3.223  16.782  0.00  0.00    +0.000 A 
ATOM      5  N   UNL     1       4.161   3.723  17.492  0.00  0.00    +0.000 N 
ENDROOT
BRANCH   2   6
ATOM      6  C   UNL     1       6.692   6.273  17.760  0.00  0.00    +0.000 A 
ATOM      7  C   UNL     1       7.708   6.196  18.725  0.00  0.00    +0.000 A 
ATOM      8  C   UNL     1       8.513   7.293  19.014  0.00  0.00    +0.000 A 
ATOM      9  C   UNL     1       8.326   8.461  18.295  0.00  0.00    +0.000 A 
ATOM     10  F   UNL     1       9.121   9.516  18.550  0.00  0.00    +0.000 F 
ATOM     11  C   UNL     1       7.347   8.558  17.314  0.00  0.00    +0.000 A 
ATOM     12  C   UNL     1       6.519   7.464  17.048  0.00  0.00    +0.000 A 
ENDBRANCH   2   6
BRANCH   1  16
ATOM     13  C   UNL     1       2.332   7.637  18.985  0.00  0.00    +0.000 A 
ATOM     14  C   UNL     1       2.309   6.877  20.127  0.00  0.00    +0.000 A 
ATOM     15  C   UNL     1       3.166   5.789  19.896  0.00  0.00    +0.000 A 
ATOM     16  C   UNL     1       3.661   5.907  18.609  0.00  0.00    +0.000 A 
ATOM     17  O   UNL     1       3.145   7.047  18.048  0.00  0.00    +0.000 OA
BRANCH  13  19
ATOM     18  N   UNL     1       0.945   9.417  19.700  0.00  0.00    +0.000 N 
ATOM     19  C   UNL     1       1.680   8.886  18.673  0.00  0.00    +0.000 C 
ATOM     20  O   UNL     1       1.753   9.418  17.552  0.00  0.00    +0.000 OA
ATOM     21  H   UNL     1       1.066   9.015  20.637  0.00  0.00    +0.000 HD
BRANCH  18  22
ATOM     22  C   UNL     1       0.264  10.684  19.570  0.00  0.00    +0.000 C 
BRANCH  22  23
ATOM     23  C   UNL     1      -1.212  10.549  19.155  0.00  0.00    +0.000 C 
BRANCH  23  25
ATOM     24  C   UNL     1      -0.734  12.759  18.290  0.00  0.00    +0.000 C 
ATOM     25  N   UNL     1      -1.795  11.798  18.610  0.00  0.00    +0.000 NA
ATOM     26  C   UNL     1      -2.573  11.526  17.396  0.00  0.00    +0.000 C 
ENDBRANCH  23  25
ENDBRANCH  22  23
ENDBRANCH  18  22
ENDBRANCH  13  19
ENDBRANCH   1  16
BRANCH   5  27
ATOM     27  C   UNL     1       2.869   3.088  17.618  0.00  0.00    +0.000 C 
ATOM     28  C   UNL     1       2.680   2.333  18.930  0.00  0.00    +0.000 C 
ATOM     29  C   UNL     1       1.182   2.079  18.980  0.00  0.00    +0.000 C 
ATOM     30  C   UNL     1       0.534   3.236  18.215  0.00  0.00    +0.000 C 
ATOM     31  C   UNL     1       1.672   4.037  17.583  0.00  0.00    +0.000 C 
ENDBRANCH   5  27
TORSDOF 7
ENDMDL
MODEL 3
REMARK VINA RESULT:      -6.7      5.125      8.946
REMARK  Name = 
REMARK  9 active torsions:
REMARK  status: ('A' for Active; 'I' for Inactive)
REMARK    1  A    between atoms: C_1  and  N_2
REMARK    2  A    between atoms: N_2  and  C_3
REMARK    3  A    between atoms: N_2  and  C_4
REMARK    4  A    between atoms: C_4  and  C_5
REMARK    5  A    between atoms: C_5  and  N_6
REMARK    6  A    between atoms: C_7  and  C_9
REMARK    7  A    between atoms: C_12  and  C_13
REMARK    8  A    between atoms: C_14  and  C_15
REMARK    9  A    between atoms: N_24  and  C_25
REMARK                            x       y       z     vdW  Elec       q    Type
REMARK                         _______ _______ _______ _____ _____    ______ ____
ROOT
ATOM      1  C   UNL     1       4.442   5.007  17.950  0.00  0.00    +0.000 A 
ATOM      2  C   UNL     1       5.755   5.140  17.516  0.00  0.00    +0.000 A 
ATOM      3  N   UNL     1       6.151   4.046  16.791  0.00  0.00    +0.000 NA
ATOM      4  C   UNL     1       5.127   3.220  16.840  0.00  0.00    +0.000 A 
ATOM      5  N   UNL     1       4.074   3.747  17.535  0.00  0.00    +0.000 N 
ENDROOT
BRANCH   2   6
ATOM      6  C   UNL     1       6.635   6.272  17.765  0.00  0.00    +0.000 A 
ATOM      7  C   UNL     1       7.659   6.195  18.721  0.00  0.00    +0.000 A 
ATOM      8  C   UNL     1       8.477   7.286  18.992  0.00  0.00    +0.000 A 
ATOM      9  C   UNL     1       8.293   8.450  18.264  0.00  0.00    +0.000 A 
ATOM     10  F   UNL     1       9.100   9.500  18.501  0.00  0.00    +0.000 F 
ATOM     11  C   UNL     1       7.306   8.546  17.290  0.00  0.00    +0.000 A 
ATOM     12  C   UNL     1       6.466   7.457  17.042  0.00  0.00    +0.000 A 
ENDBRANCH   2   6
BRANCH   1  16
ATOM     13  C   UNL     1       2.295   7.717  18.945  0.00  0.00    +0.000 A 
ATOM     14  C   UNL     1       2.242   6.971  20.095  0.00  0.00    +0.000 A 
ATOM     15  C   UNL     1       3.081   5.864  19.887  0.00  0.00    +0.000 A 
ATOM     16  C   UNL     1       3.596   5.959  18.606  0.00  0.00    +0.000 A 
ATOM     17  O   UNL     1       3.110   7.101  18.026  0.00  0.00    +0.000 OA
BRANCH  13  19
ATOM     18  N   UNL     1       0.840   9.474  19.578  0.00  0.00    +0.000 N 
ATOM     19  C   UNL     1       1.671   8.975  18.610  0.00  0.00    +0.000 C 
ATOM     20  O   UNL     1       1.849   9.541  17.517  0.00  0.00    +0.000 OA
ATOM     21  H   UNL     1       0.873   9.045  20.510  0.00  0.00    +0.000 HD
BRANCH  18  22
ATOM     22  C   UNL     1       0.171  10.744  19.421  0.00  0.00    +0.000 C 
BRANCH  22  23
ATOM     23  C   UNL     1       0.720  11.848  20.344  0.00  0.00    +0.000 C 
BRANCH  23  25
ATOM     24  C   UNL     1       1.689  13.010  18.455  0.00  0.00    +0.000 C 
ATOM     25  N   UNL     1       1.931  12.518  19.816  0.00  0.00    +0.000 NA
ATOM     26  C   UNL     1       2.316  13.649  20.669  0.00  0.00    +0.000 C 
ENDBRANCH  23  25
ENDBRANCH  22  23
ENDBRANCH  18  22
ENDBRANCH  13  19
ENDBRANCH   1  16
BRANCH   5  27
ATOM     27  C   UNL     1       2.774   3.130  17.668  0.00  0.00    +0.000 C 
ATOM     28  C   UNL     1       2.588   2.361  18.973  0.00  0.00    +0.000 C 
ATOM     29  C   UNL     1       1.087   2.130  19.037  0.00  0.00    +0.000 C 
ATOM     30  C   UNL     1       0.449   3.306  18.294  0.00  0.00    +0.000 C 
ATOM     31  C   UNL     1       1.592   4.098  17.660  0.00  0.00    +0.000 C 
ENDBRANCH   5  27
TORSDOF 7
ENDMDL
MODEL 4
REMARK VINA RESULT:      -6.7      5.246      8.924
REMARK  Name = 
REMARK  9 active torsions:
REMARK  status: ('A' for Active; 'I' for Inactive)
REMARK    1  A    between atoms: C_1  and  N_2
REMARK    2  A    between atoms: N_2  and  C_3
REMARK    3  A    between atoms: N_2  and  C_4
REMARK    4  A    between atoms: C_4  and  C_5
REMARK    5  A    between atoms: C_5  and  N_6
REMARK    6  A    between atoms: C_7  and  C_9
REMARK    7  A    between atoms: C_12  and  C_13
REMARK    8  A    between atoms: C_14  and  C_15
REMARK    9  A    between atoms: N_24  and  C_25
REMARK                            x       y       z     vdW  Elec       q    Type
REMARK                         _______ _______ _______ _____ _____    ______ ____
ROOT
ATOM      1  C   UNL     1       4.482   5.004  17.937  0.00  0.00    +0.000 A 
ATOM      2  C   UNL     1       5.796   5.158  17.512  0.00  0.00    +0.000 A 
ATOM      3  N   UNL     1       6.206   4.081  16.770  0.00  0.00    +0.000 NA
ATOM      4  C   UNL     1       5.190   3.244  16.801  0.00  0.00    +0.000 A 
ATOM      5  N   UNL     1       4.129   3.748  17.500  0.00  0.00    +0.000 N 
ENDROOT
BRANCH   2   6
ATOM      6  C   UNL     1       6.663   6.294  17.784  0.00  0.00    +0.000 A 
ATOM      7  C   UNL     1       6.509   7.504  17.089  0.00  0.00    +0.000 A 
ATOM      8  C   UNL     1       7.361   8.580  17.315  0.00  0.00    +0.000 A 
ATOM      9  C   UNL     1       8.347   8.454  18.280  0.00  0.00    +0.000 A 
ATOM     10  F   UNL     1       9.156   9.501  18.523  0.00  0.00    +0.000 F 
ATOM     11  C   UNL     1       8.505   7.279  19.004  0.00  0.00    +0.000 A 
ATOM     12  C   UNL     1       7.667   6.189  18.752  0.00  0.00    +0.000 A 
ENDBRANCH   2   6
BRANCH   1  16
ATOM     13  C   UNL     1       2.298   7.672  18.967  0.00  0.00    +0.000 A 
ATOM     14  C   UNL     1       2.259   6.913  20.109  0.00  0.00    +0.000 A 
ATOM     15  C   UNL     1       3.113   5.820  19.887  0.00  0.00    +0.000 A 
ATOM     16  C   UNL     1       3.624   5.937  18.607  0.00  0.00    +0.000 A 
ATOM     17  O   UNL     1       3.120   7.079  18.039  0.00  0.00    +0.000 OA
BRANCH  13  19
ATOM     18  N   UNL     1       0.926   9.468  19.672  0.00  0.00    +0.000 N 
ATOM     19  C   UNL     1       1.656   8.925  18.648  0.00  0.00    +0.000 C 
ATOM     20  O   UNL     1       1.731   9.449  17.523  0.00  0.00    +0.000 OA
ATOM     21  H   UNL     1       1.046   9.072  20.612  0.00  0.00    +0.000 HD
BRANCH  18  22
ATOM     22  C   UNL     1       0.256  10.740  19.534  0.00  0.00    +0.000 C 
BRANCH  22  23
ATOM     23  C   UNL     1       1.175  11.950  19.779  0.00  0.00    +0.000 C 
BRANCH  23  25
ATOM     24  C   UNL     1       0.163  13.815  18.613  0.00  0.00    +0.000 C 
ATOM     25  N   UNL     1       1.280  12.864  18.618  0.00  0.00    +0.000 NA
ATOM     26  C   UNL     1       2.542  13.613  18.654  0.00  0.00    +0.000 C 
ENDBRANCH  23  25
ENDBRANCH  22  23
ENDBRANCH  18  22
ENDBRANCH  13  19
ENDBRANCH   1  16
BRANCH   5  27
ATOM     27  C   UNL     1       2.835   3.117  17.616  0.00  0.00    +0.000 C 
ATOM     28  C   UNL     1       2.645   2.337  18.914  0.00  0.00    +0.000 C 
ATOM     29  C   UNL     1       1.146   2.089  18.962  0.00  0.00    +0.000 C 
ATOM     30  C   UNL     1       0.502   3.263  18.221  0.00  0.00    +0.000 C 
ATOM     31  C   UNL     1       1.642   4.071  17.603  0.00  0.00    +0.000 C 
ENDBRANCH   5  27
TORSDOF 7
ENDMDL
MODEL 5
REMARK VINA RESULT:      -6.6      4.795      8.438
REMARK  Name = 
REMARK  9 active torsions:
REMARK  status: ('A' for Active; 'I' for Inactive)
REMARK    1  A    between atoms: C_1  and  N_2
REMARK    2  A    between atoms: N_2  and  C_3
REMARK    3  A    between atoms: N_2  and  C_4
REMARK    4  A    between atoms: C_4  and  C_5
REMARK    5  A    between atoms: C_5  and  N_6
REMARK    6  A    between atoms: C_7  and  C_9
REMARK    7  A    between atoms: C_12  and  C_13
REMARK    8  A    between atoms: C_14  and  C_15
REMARK    9  A    between atoms: N_24  and  C_25
REMARK                            x       y       z     vdW  Elec       q    Type
REMARK                         _______ _______ _______ _____ _____    ______ ____
ROOT
ATOM      1  C   UNL     1       4.033   5.431  18.371  0.00  0.00    +0.000 A 
ATOM      2  C   UNL     1       5.395   5.303  18.127  0.00  0.00    +0.000 A 
ATOM      3  N   UNL     1       5.742   3.992  17.927  0.00  0.00    +0.000 NA
ATOM      4  C   UNL     1       4.629   3.316  18.119  0.00  0.00    +0.000 A 
ATOM      5  N   UNL     1       3.571   4.135  18.399  0.00  0.00    +0.000 N 
ENDROOT
BRANCH   2   6
ATOM      6  C   UNL     1       6.367   6.385  18.073  0.00  0.00    +0.000 A 
ATOM      7  C   UNL     1       7.531   6.350  18.856  0.00  0.00    +0.000 A 
ATOM      8  C   UNL     1       8.443   7.400  18.839  0.00  0.00    +0.000 A 
ATOM      9  C   UNL     1       8.207   8.471  17.994  0.00  0.00    +0.000 A 
ATOM     10  F   UNL     1       9.100   9.476  17.953  0.00  0.00    +0.000 F 
ATOM     11  C   UNL     1       7.077   8.520  17.186  0.00  0.00    +0.000 A 
ATOM     12  C   UNL     1       6.147   7.478  17.229  0.00  0.00    +0.000 A 
ENDBRANCH   2   6
BRANCH   1  16
ATOM     13  C   UNL     1       2.007   8.228  19.380  0.00  0.00    +0.000 A 
ATOM     14  C   UNL     1       2.230   8.587  18.076  0.00  0.00    +0.000 A 
ATOM     15  C   UNL     1       2.994   7.556  17.506  0.00  0.00    +0.000 A 
ATOM     16  C   UNL     1       3.234   6.614  18.491  0.00  0.00    +0.000 A 
ATOM     17  O   UNL     1       2.626   7.030  19.647  0.00  0.00    +0.000 OA
BRANCH  13  19
ATOM     18  N   UNL     1       0.317   9.778  19.968  0.00  0.00    +0.000 N 
ATOM     19  C   UNL     1       1.250   8.883  20.420  0.00  0.00    +0.000 C 
ATOM     20  O   UNL     1       1.453   8.674  21.629  0.00  0.00    +0.000 OA
ATOM     21  H   UNL     1       0.091   9.774  18.966  0.00  0.00    +0.000 HD
BRANCH  18  22
ATOM     22  C   UNL     1      -0.555  10.488  20.874  0.00  0.00    +0.000 C 
BRANCH  22  23
ATOM     23  C   UNL     1      -0.263  11.998  20.953  0.00  0.00    +0.000 C 
BRANCH  23  25
ATOM     24  C   UNL     1      -0.196  14.005  22.304  0.00  0.00    +0.000 C 
ATOM     25  N   UNL     1      -0.307  12.543  22.329  0.00  0.00    +0.000 NA
ATOM     26  C   UNL     1      -1.560  12.172  22.999  0.00  0.00    +0.000 C 
ENDBRANCH  23  25
ENDBRANCH  22  23
ENDBRANCH  18  22
ENDBRANCH  13  19
ENDBRANCH   1  16
BRANCH   5  27
ATOM     27  C   UNL     1       2.201   3.702  18.548  0.00  0.00    +0.000 C 
ATOM     28  C   UNL     1       1.972   2.242  18.163  0.00  0.00    +0.000 C 
ATOM     29  C   UNL     1       0.595   1.939  18.732  0.00  0.00    +0.000 C 
ATOM     30  C   UNL     1       0.437   2.844  19.956  0.00  0.00    +0.000 C 
ATOM     31  C   UNL     1       1.644   3.782  19.968  0.00  0.00    +0.000 C 
ENDBRANCH   5  27
TORSDOF 7
ENDMDL
MODEL 6
REMARK VINA RESULT:      -6.6      4.781      8.375
REMARK  Name = 
REMARK  9 active torsions:
REMARK  status: ('A' for Active; 'I' for Inactive)
REMARK    1  A    between atoms: C_1  and  N_2
REMARK    2  A    between atoms: N_2  and  C_3
REMARK    3  A    between atoms: N_2  and  C_4
REMARK    4  A    between atoms: C_4  and  C_5
REMARK    5  A    between atoms: C_5  and  N_6
REMARK    6  A    between atoms: C_7  and  C_9
REMARK    7  A    between atoms: C_12  and  C_13
REMARK    8  A    between atoms: C_14  and  C_15
REMARK    9  A    between atoms: N_24  and  C_25
REMARK                            x       y       z     vdW  Elec       q    Type
REMARK                         _______ _______ _______ _____ _____    ______ ____
ROOT
ATOM      1  C   UNL     1       4.005   5.471  18.395  0.00  0.00    +0.000 A 
ATOM      2  C   UNL     1       5.368   5.347  18.157  0.00  0.00    +0.000 A 
ATOM      3  N   UNL     1       5.720   4.036  17.964  0.00  0.00    +0.000 NA
ATOM      4  C   UNL     1       4.608   3.357  18.156  0.00  0.00    +0.000 A 
ATOM      5  N   UNL     1       3.547   4.174  18.428  0.00  0.00    +0.000 N 
ENDROOT
BRANCH   2   6
ATOM      6  C   UNL     1       6.337   6.431  18.100  0.00  0.00    +0.000 A 
ATOM      7  C   UNL     1       6.124   7.548  17.278  0.00  0.00    +0.000 A 
ATOM      8  C   UNL     1       7.066   8.568  17.188  0.00  0.00    +0.000 A 
ATOM      9  C   UNL     1       8.208   8.486  17.967  0.00  0.00    +0.000 A 
ATOM     10  F   UNL     1       9.109   9.484  17.907  0.00  0.00    +0.000 F 
ATOM     11  C   UNL     1       8.432   7.407  18.812  0.00  0.00    +0.000 A 
ATOM     12  C   UNL     1       7.499   6.369  18.876  0.00  0.00    +0.000 A 
ENDBRANCH   2   6
BRANCH   1  16
ATOM     13  C   UNL     1       1.963   8.265  19.382  0.00  0.00    +0.000 A 
ATOM     14  C   UNL     1       2.197   8.623  18.078  0.00  0.00    +0.000 A 
ATOM     15  C   UNL     1       2.969   7.592  17.517  0.00  0.00    +0.000 A 
ATOM     16  C   UNL     1       3.202   6.653  18.506  0.00  0.00    +0.000 A 
ATOM     17  O   UNL     1       2.582   7.069  19.656  0.00  0.00    +0.000 OA
BRANCH  13  19
ATOM     18  N   UNL     1       0.933  10.243  20.176  0.00  0.00    +0.000 N 
ATOM     19  C   UNL     1       1.195   8.920  20.414  0.00  0.00    +0.000 C 
ATOM     20  O   UNL     1       0.831   8.336  21.450  0.00  0.00    +0.000 OA
ATOM     21  H   UNL     1       1.116  10.609  19.234  0.00  0.00    +0.000 HD
BRANCH  18  22
ATOM     22  C   UNL     1       0.140  11.034  21.087  0.00  0.00    +0.000 C 
BRANCH  22  23
ATOM     23  C   UNL     1      -0.973  11.841  20.393  0.00  0.00    +0.000 C 
BRANCH  23  25
ATOM     24  C   UNL     1      -2.219  11.397  18.366  0.00  0.00    +0.000 C 
ATOM     25  N   UNL     1      -0.915  11.787  18.914  0.00  0.00    +0.000 NA
ATOM     26  C   UNL     1      -0.535  13.091  18.358  0.00  0.00    +0.000 C 
ENDBRANCH  23  25
ENDBRANCH  22  23
ENDBRANCH  18  22
ENDBRANCH  13  19
ENDBRANCH   1  16
BRANCH   5  27
ATOM     27  C   UNL     1       2.177   3.738  18.574  0.00  0.00    +0.000 C 
ATOM     28  C   UNL     1       1.950   2.282  18.177  0.00  0.00    +0.000 C 
ATOM     29  C   UNL     1       0.574   1.971  18.744  0.00  0.00    +0.000 C 
ATOM     30  C   UNL     1       0.416   2.865  19.976  0.00  0.00    +0.000 C 
ATOM     31  C   UNL     1       1.621   3.805  19.995  0.00  0.00    +0.000 C 
ENDBRANCH   5  27
TORSDOF 7
ENDMDL
MODEL 7
REMARK VINA RESULT:      -6.6      2.131      6.389
REMARK  Name = 
REMARK  9 active torsions:
REMARK  status: ('A' for Active; 'I' for Inactive)
REMARK    1  A    between atoms: C_1  and  N_2
REMARK    2  A    between atoms: N_2  and  C_3
REMARK    3  A    between atoms: N_2  and  C_4
REMARK    4  A    between atoms: C_4  and  C_5
REMARK    5  A    between atoms: C_5  and  N_6
REMARK    6  A    between atoms: C_7  and  C_9
REMARK    7  A    between atoms: C_12  and  C_13
REMARK    8  A    between atoms: C_14  and  C_15
REMARK    9  A    between atoms: N_24  and  C_25
REMARK                            x       y       z     vdW  Elec       q    Type
REMARK                         _______ _______ _______ _____ _____    ______ ____
ROOT
ATOM      1  C   UNL     1      -3.015  12.326  19.793  0.00  0.00    +0.000 A 
ATOM      2  C   UNL     1      -4.008  12.847  20.613  0.00  0.00    +0.000 A 
ATOM      3  N   UNL     1      -5.238  12.767  20.013  0.00  0.00    +0.000 NA
ATOM      4  C   UNL     1      -4.998  12.275  18.816  0.00  0.00    +0.000 A 
ATOM      5  N   UNL     1      -3.672  12.001  18.629  0.00  0.00    +0.000 N 
ENDROOT
BRANCH   2   6
ATOM      6  C   UNL     1      -3.823  13.409  21.942  0.00  0.00    +0.000 A 
ATOM      7  C   UNL     1      -3.767  12.583  23.075  0.00  0.00    +0.000 A 
ATOM      8  C   UNL     1      -3.632  13.117  24.352  0.00  0.00    +0.000 A 
ATOM      9  C   UNL     1      -3.506  14.489  24.487  0.00  0.00    +0.000 A 
ATOM     10  F   UNL     1      -3.346  15.010  25.718  0.00  0.00    +0.000 F 
ATOM     11  C   UNL     1      -3.529  15.331  23.381  0.00  0.00    +0.000 A 
ATOM     12  C   UNL     1      -3.696  14.793  22.102  0.00  0.00    +0.000 A 
ENDBRANCH   2   6
BRANCH   1  16
ATOM     13  C   UNL     1       0.240  11.041  20.631  0.00  0.00    +0.000 A 
ATOM     14  C   UNL     1       0.609  12.293  20.208  0.00  0.00    +0.000 A 
ATOM     15  C   UNL     1      -0.579  12.962  19.872  0.00  0.00    +0.000 A 
ATOM     16  C   UNL     1      -1.630  12.086  20.076  0.00  0.00    +0.000 A 
ATOM     17  O   UNL     1      -1.124  10.901  20.543  0.00  0.00    +0.000 OA
BRANCH  13  19
ATOM     18  N   UNL     1       0.971   8.803  20.384  0.00  0.00    +0.000 N 
ATOM     19  C   UNL     1       1.035   9.946  21.135  0.00  0.00    +0.000 C 
ATOM     20  O   UNL     1       1.696  10.027  22.185  0.00  0.00    +0.000 OA
ATOM     21  H   UNL     1       0.546   8.862  19.451  0.00  0.00    +0.000 HD
BRANCH  18  22
ATOM     22  C   UNL     1       1.739   7.628  20.724  0.00  0.00    +0.000 C 
BRANCH  22  23
ATOM     23  C   UNL     1       2.432   6.974  19.515  0.00  0.00    +0.000 C 
BRANCH  23  25
ATOM     24  C   UNL     1       1.838   4.926  20.659  0.00  0.00    +0.000 C 
ATOM     25  N   UNL     1       2.781   5.550  19.726  0.00  0.00    +0.000 NA
ATOM     26  C   UNL     1       2.756   4.812  18.458  0.00  0.00    +0.000 C 
ENDBRANCH  23  25
ENDBRANCH  22  23
ENDBRANCH  18  22
ENDBRANCH  13  19
ENDBRANCH   1  16
BRANCH   5  27
ATOM     27  C   UNL     1      -3.113  11.353  17.465  0.00  0.00    +0.000 C 
ATOM     28  C   UNL     1      -2.975   9.840  17.610  0.00  0.00    +0.000 C 
ATOM     29  C   UNL     1      -2.723   9.369  16.187  0.00  0.00    +0.000 C 
ATOM     30  C   UNL     1      -3.432  10.377  15.279  0.00  0.00    +0.000 C 
ATOM     31  C   UNL     1      -3.925  11.509  16.180  0.00  0.00    +0.000 C 
ENDBRANCH   5  27
TORSDOF 7
ENDMDL
MODEL 8
REMARK VINA RESULT:      -6.5      5.756      9.709
REMARK  Name = 
REMARK  9 active torsions:
REMARK  status: ('A' for Active; 'I' for Inactive)
REMARK    1  A    between atoms: C_1  and  N_2
REMARK    2  A    between atoms: N_2  and  C_3
REMARK    3  A    between atoms: N_2  and  C_4
REMARK    4  A    between atoms: C_4  and  C_5
REMARK    5  A    between atoms: C_5  and  N_6
REMARK    6  A    between atoms: C_7  and  C_9
REMARK    7  A    between atoms: C_12  and  C_13
REMARK    8  A    between atoms: C_14  and  C_15
REMARK    9  A    between atoms: N_24  and  C_25
REMARK                            x       y       z     vdW  Elec       q    Type
REMARK                         _______ _______ _______ _____ _____    ______ ____
ROOT
ATOM      1  C   UNL     1       4.007   4.250  17.656  0.00  0.00    +0.000 A 
ATOM      2  C   UNL     1       4.788   3.494  16.791  0.00  0.00    +0.000 A 
ATOM      3  N   UNL     1       4.675   2.155  17.063  0.00  0.00    +0.000 NA
ATOM      4  C   UNL     1       3.898   2.091  18.124  0.00  0.00    +0.000 A 
ATOM      5  N   UNL     1       3.476   3.326  18.528  0.00  0.00    +0.000 N 
ENDROOT
BRANCH   2   6
ATOM      6  C   UNL     1       5.627   4.003  15.717  0.00  0.00    +0.000 A 
ATOM      7  C   UNL     1       5.226   3.901  14.376  0.00  0.00    +0.000 A 
ATOM      8  C   UNL     1       6.043   4.350  13.343  0.00  0.00    +0.000 A 
ATOM      9  C   UNL     1       7.250   4.947  13.663  0.00  0.00    +0.000 A 
ATOM     10  F   UNL     1       8.031   5.409  12.669  0.00  0.00    +0.000 F 
ATOM     11  C   UNL     1       7.660   5.088  14.983  0.00  0.00    +0.000 A 
ATOM     12  C   UNL     1       6.852   4.609  16.017  0.00  0.00    +0.000 A 
ENDBRANCH   2   6
BRANCH   1  16
ATOM     13  C   UNL     1       2.794   7.606  18.115  0.00  0.00    +0.000 A 
ATOM     14  C   UNL     1       3.861   7.876  17.296  0.00  0.00    +0.000 A 
ATOM     15  C   UNL     1       4.440   6.636  16.979  0.00  0.00    +0.000 A 
ATOM     16  C   UNL     1       3.722   5.654  17.638  0.00  0.00    +0.000 A 
ATOM     17  O   UNL     1       2.708   6.253  18.339  0.00  0.00    +0.000 OA
BRANCH  13  19
ATOM     18  N   UNL     1       1.291   9.415  17.847  0.00  0.00    +0.000 N 
ATOM     19  C   UNL     1       1.816   8.488  18.707  0.00  0.00    +0.000 C 
ATOM     20  O   UNL     1       1.504   8.430  19.910  0.00  0.00    +0.000 OA
ATOM     21  H   UNL     1       1.468   9.295  16.843  0.00  0.00    +0.000 HD
BRANCH  18  22
ATOM     22  C   UNL     1       0.269  10.345  18.267  0.00  0.00    +0.000 C 
BRANCH  22  23
ATOM     23  C   UNL     1      -1.128  10.019  17.708  0.00  0.00    +0.000 C 
BRANCH  23  25
ATOM     24  C   UNL     1      -2.795  10.955  16.225  0.00  0.00    +0.000 C 
ATOM     25  N   UNL     1      -1.935  11.217  17.384  0.00  0.00    +0.000 NA
ATOM     26  C   UNL     1      -2.777  11.604  18.523  0.00  0.00    +0.000 C 
ENDBRANCH  23  25
ENDBRANCH  22  23
ENDBRANCH  18  22
ENDBRANCH  13  19
ENDBRANCH   1  16
BRANCH   5  27
ATOM     27  C   UNL     1       2.528   3.575  19.590  0.00  0.00    +0.000 C 
ATOM     28  C   UNL     1       1.101   3.156  19.251  0.00  0.00    +0.000 C 
ATOM     29  C   UNL     1       0.397   3.176  20.598  0.00  0.00    +0.000 C 
ATOM     30  C   UNL     1       1.473   2.858  21.639  0.00  0.00    +0.000 C 
ATOM     31  C   UNL     1       2.810   2.839  20.898  0.00  0.00    +0.000 C 
ENDBRANCH   5  27
TORSDOF 7
ENDMDL
MODEL 9
REMARK VINA RESULT:      -6.5      9.143     12.658
REMARK  Name = 
REMARK  9 active torsions:
REMARK  status: ('A' for Active; 'I' for Inactive)
REMARK    1  A    between atoms: C_1  and  N_2
REMARK    2  A    between atoms: N_2  and  C_3
REMARK    3  A    between atoms: N_2  and  C_4
REMARK    4  A    between atoms: C_4  and  C_5
REMARK    5  A    between atoms: C_5  and  N_6
REMARK    6  A    between atoms: C_7  and  C_9
REMARK    7  A    between atoms: C_12  and  C_13
REMARK    8  A    between atoms: C_14  and  C_15
REMARK    9  A    between atoms: N_24  and  C_25
REMARK                            x       y       z     vdW  Elec       q    Type
REMARK                         _______ _______ _______ _____ _____    ______ ____
ROOT
ATOM      1  C   UNL     1       4.945   4.506  17.335  0.00  0.00    +0.000 A 
ATOM      2  C   UNL     1       4.651   4.074  16.048  0.00  0.00    +0.000 A 
ATOM      3  N   UNL     1       3.406   3.504  15.988  0.00  0.00    +0.000 NA
ATOM      4  C   UNL     1       2.971   3.515  17.231  0.00  0.00    +0.000 A 
ATOM      5  N   UNL     1       3.864   4.099  18.084  0.00  0.00    +0.000 N 
ENDROOT
BRANCH   2   6
ATOM      6  C   UNL     1       5.511   4.194  14.881  0.00  0.00    +0.000 A 
ATOM      7  C   UNL     1       6.700   4.939  14.932  0.00  0.00    +0.000 A 
ATOM      8  C   UNL     1       7.505   5.091  13.808  0.00  0.00    +0.000 A 
ATOM      9  C   UNL     1       7.137   4.450  12.637  0.00  0.00    +0.000 A 
ATOM     10  F   UNL     1       7.928   4.570  11.554  0.00  0.00    +0.000 F 
ATOM     11  C   UNL     1       5.982   3.682  12.564  0.00  0.00    +0.000 A 
ATOM     12  C   UNL     1       5.159   3.557  13.687  0.00  0.00    +0.000 A 
ENDBRANCH   2   6
BRANCH   1  16
ATOM     13  C   UNL     1       7.406   6.985  18.200  0.00  0.00    +0.000 A 
ATOM     14  C   UNL     1       7.894   5.935  18.936  0.00  0.00    +0.000 A 
ATOM     15  C   UNL     1       7.050   4.843  18.675  0.00  0.00    +0.000 A 
ATOM     16  C   UNL     1       6.060   5.272  17.810  0.00  0.00    +0.000 A 
ATOM     17  O   UNL     1       6.279   6.593  17.518  0.00  0.00    +0.000 OA
BRANCH  13  19
ATOM     18  N   UNL     1       8.782   8.731  19.012  0.00  0.00    +0.000 N 
ATOM     19  C   UNL     1       7.896   8.334  18.046  0.00  0.00    +0.000 C 
ATOM     20  O   UNL     1       7.516   9.083  17.130  0.00  0.00    +0.000 OA
ATOM     21  H   UNL     1       9.174   8.013  19.632  0.00  0.00    +0.000 HD
BRANCH  18  22
ATOM     22  C   UNL     1       9.400  10.036  18.982  0.00  0.00    +0.000 C 
BRANCH  22  23
ATOM     23  C   UNL     1       9.320  10.786  20.324  0.00  0.00    +0.000 C 
BRANCH  23  25
ATOM     24  C   UNL     1      11.227  11.910  19.346  0.00  0.00    +0.000 C 
ATOM     25  N   UNL     1      10.481  11.668  20.586  0.00  0.00    +0.000 NA
ATOM     26  C   UNL     1      10.046  12.956  21.139  0.00  0.00    +0.000 C 
ENDBRANCH  23  25
ENDBRANCH  22  23
ENDBRANCH  18  22
ENDBRANCH  13  19
ENDBRANCH   1  16
BRANCH   5  27
ATOM     27  C   UNL     1       3.627   4.360  19.485  0.00  0.00    +0.000 C 
ATOM     28  C   UNL     1       2.545   5.405  19.742  0.00  0.00    +0.000 C 
ATOM     29  C   UNL     1       2.237   5.239  21.222  0.00  0.00    +0.000 C 
ATOM     30  C   UNL     1       2.518   3.771  21.547  0.00  0.00    +0.000 C 
ATOM     31  C   UNL     1       3.154   3.158  20.300  0.00  0.00    +0.000 C 
ENDBRANCH   5  27
TORSDOF 7
ENDMDL
