MODEL 1
REMARK VINA RESULT:      -7.8      0.000      0.000
REMARK  Name = 
REMARK  14 active torsions:
REMARK  status: ('A' for Active; 'I' for Inactive)
REMARK    1  A    between atoms: C_1  and  C_2
REMARK    2  A    between atoms: C_2  and  C_3
REMARK    3  A    between atoms: C_2  and  C_10
REMARK    4  A    between atoms: C_6  and  O_7
REMARK    5  A    between atoms: C_10  and  O_11
REMARK    6  A    between atoms: C_10  and  C_12
REMARK    7  A    between atoms: C_13  and  C_14
REMARK    8  A    between atoms: C_20  and  C_21
REMARK    9  A    between atoms: C_21  and  C_22
REMARK   10  A    between atoms: C_23  and  C_24
REMARK   11  A    between atoms: C_24  and  C_25
REMARK   12  A    between atoms: C_25  and  C_26
REMARK   13  A    between atoms: C_26  and  C_27
REMARK   14  A    between atoms: C_27  and  O_29
REMARK                            x       y       z     vdW  Elec       q    Type
REMARK                         _______ _______ _______ _____ _____    ______ ____
ROOT
ATOM      1  C   UNL     1       2.727   4.912  20.470  0.00  0.00    +0.000 C 
ATOM      2  C   UNL     1       2.353   3.606  21.202  0.00  0.00    +0.000 C 
ATOM      3  C   UNL     1       0.956   3.090  20.876  0.00  0.00    +0.000 C 
ATOM      4  C   UNL     1       1.096   2.721  19.401  0.00  0.00    +0.000 C 
ATOM      5  C   UNL     1       2.595   2.916  19.160  0.00  0.00    +0.000 C 
ATOM      6  O   UNL     1       3.144   2.634  20.467  0.00  0.00    +0.000 OA
ATOM      7  C   UNL     1       2.930   4.408  19.009  0.00  0.00    +0.000 C 
ENDROOT
BRANCH   1   9
ATOM      8  C   UNL     1       2.029   7.304  20.153  0.00  0.00    +0.000 C 
ATOM      9  C   UNL     1       1.741   6.056  20.560  0.00  0.00    +0.000 C 
BRANCH   8  10
ATOM     10  C   UNL     1       1.052   8.458  20.053  0.00  0.00    +0.000 C 
BRANCH  10  12
ATOM     11  C   UNL     1       2.378   9.044  17.912  0.00  0.00    +0.000 C 
ATOM     12  C   UNL     1       1.015   9.096  18.626  0.00  0.00    +0.000 C 
BRANCH  12  13
ATOM     13  C   UNL     1       0.502  10.533  18.508  0.00  0.00    +0.000 A 
ATOM     14  C   UNL     1       1.435  11.587  18.571  0.00  0.00    +0.000 A 
ATOM     15  C   UNL     1       1.018  12.917  18.689  0.00  0.00    +0.000 A 
ATOM     16  C   UNL     1      -0.340  13.203  18.738  0.00  0.00    +0.000 A 
ATOM     17  C   UNL     1      -1.280  12.189  18.626  0.00  0.00    +0.000 A 
ATOM     18  C   UNL     1      -0.862  10.860  18.509  0.00  0.00    +0.000 A 
BRANCH  16  19
ATOM     19  O   UNL     1      -0.793  14.476  18.923  0.00  0.00    +0.000 OA
ATOM     20  H   UNL     1      -1.477  14.659  18.257  0.00  0.00    +0.000 HD
ENDBRANCH  16  19
ENDBRANCH  12  13
ENDBRANCH  10  12
BRANCH  10  21
ATOM     21  O   UNL     1       1.458   9.385  21.061  0.00  0.00    +0.000 OA
ATOM     22  H   UNL     1       0.665   9.845  21.383  0.00  0.00    +0.000 HD
ENDBRANCH  10  21
ENDBRANCH   8  10
ENDBRANCH   1   9
BRANCH   7  23
ATOM     23  C   UNL     1       4.387   4.636  18.561  0.00  0.00    +0.000 C 
BRANCH  23  24
ATOM     24  C   UNL     1       4.541   4.783  17.071  0.00  0.00    +0.000 C 
ATOM     25  C   UNL     1       5.166   5.774  16.414  0.00  0.00    +0.000 C 
BRANCH  25  26
ATOM     26  C   UNL     1       5.796   6.991  17.028  0.00  0.00    +0.000 C 
BRANCH  26  27
ATOM     27  C   UNL     1       7.324   6.911  17.083  0.00  0.00    +0.000 C 
BRANCH  27  28
ATOM     28  C   UNL     1       7.868   6.891  18.512  0.00  0.00    +0.000 C 
BRANCH  28  29
ATOM     29  C   UNL     1       7.921   5.490  19.073  0.00  0.00    +0.000 C 
ATOM     30  O   UNL     1       7.870   4.462  18.414  0.00  0.00    +0.000 OA
BRANCH  29  31
ATOM     31  O   UNL     1       8.029   5.487  20.421  0.00  0.00    +0.000 OA
ATOM     32  H   UNL     1       7.731   4.656  20.837  0.00  0.00    +0.000 HD
ENDBRANCH  29  31
ENDBRANCH  28  29
ENDBRANCH  27  28
ENDBRANCH  26  27
ENDBRANCH  25  26
ENDBRANCH  23  24
ENDBRANCH   7  23
TORSDOF 13
ENDMDL
MODEL 2
REMARK VINA RESULT:      -7.8      3.435      7.237
REMARK  Name = 
REMARK  14 active torsions:
REMARK  status: ('A' for Active; 'I' for Inactive)
REMARK    1  A    between atoms: C_1  and  C_2
REMARK    2  A    between atoms: C_2  and  C_3
REMARK    3  A    between atoms: C_2  and  C_10
REMARK    4  A    between atoms: C_6  and  O_7
REMARK    5  A    between atoms: C_10  and  O_11
REMARK    6  A    between atoms: C_10  and  C_12
REMARK    7  A    between atoms: C_13  and  C_14
REMARK    8  A    between atoms: C_20  and  C_21
REMARK    9  A    between atoms: C_21  and  C_22
REMARK   10  A    between atoms: C_23  and  C_24
REMARK   11  A    between atoms: C_24  and  C_25
REMARK   12  A    between atoms: C_25  and  C_26
REMARK   13  A    between atoms: C_26  and  C_27
REMARK   14  A    between atoms: C_27  and  O_29
REMARK                            x       y       z     vdW  Elec       q    Type
REMARK                         _______ _______ _______ _____ _____    ______ ____
ROOT
ATOM      1  C   UNL     1       5.788   6.203  16.993  0.00  0.00    +0.000 C 
ATOM      2  C   UNL     1       7.223   6.769  17.044  0.00  0.00    +0.000 C 
ATOM      3  C   UNL     1       7.767   6.952  18.456  0.00  0.00    +0.000 C 
ATOM      4  C   UNL     1       7.866   5.508  18.943  0.00  0.00    +0.000 C 
ATOM      5  C   UNL     1       7.532   4.717  17.676  0.00  0.00    +0.000 C 
ATOM      6  O   UNL     1       7.997   5.609  16.638  0.00  0.00    +0.000 OA
ATOM      7  C   UNL     1       6.017   4.720  17.418  0.00  0.00    +0.000 C 
ENDROOT
BRANCH   1   9
ATOM      8  C   UNL     1       3.460   6.506  17.889  0.00  0.00    +0.000 C 
ATOM      9  C   UNL     1       4.745   6.898  17.842  0.00  0.00    +0.000 C 
BRANCH   8  10
ATOM     10  C   UNL     1       2.399   7.036  18.832  0.00  0.00    +0.000 C 
BRANCH  10  12
ATOM     11  C   UNL     1       1.521   6.083  21.069  0.00  0.00    +0.000 C 
ATOM     12  C   UNL     1       1.598   5.897  19.542  0.00  0.00    +0.000 C 
BRANCH  12  13
ATOM     13  C   UNL     1       2.045   4.455  19.289  0.00  0.00    +0.000 A 
ATOM     14  C   UNL     1       3.052   3.909  20.110  0.00  0.00    +0.000 A 
ATOM     15  C   UNL     1       3.657   2.687  19.798  0.00  0.00    +0.000 A 
ATOM     16  C   UNL     1       3.253   1.997  18.662  0.00  0.00    +0.000 A 
ATOM     17  C   UNL     1       2.229   2.487  17.866  0.00  0.00    +0.000 A 
ATOM     18  C   UNL     1       1.625   3.709  18.177  0.00  0.00    +0.000 A 
BRANCH  16  19
ATOM     19  O   UNL     1       3.860   0.838  18.280  0.00  0.00    +0.000 OA
ATOM     20  H   UNL     1       4.387   1.014  17.482  0.00  0.00    +0.000 HD
ENDBRANCH  16  19
ENDBRANCH  12  13
ENDBRANCH  10  12
BRANCH  10  21
ATOM     21  O   UNL     1       1.568   7.877  18.031  0.00  0.00    +0.000 OA
ATOM     22  H   UNL     1       1.400   8.694  18.528  0.00  0.00    +0.000 HD
ENDBRANCH  10  21
ENDBRANCH   8  10
ENDBRANCH   1   9
BRANCH   7  23
ATOM     23  C   UNL     1       5.618   3.767  16.275  0.00  0.00    +0.000 C 
BRANCH  23  24
ATOM     24  C   UNL     1       4.944   4.462  15.122  0.00  0.00    +0.000 C 
ATOM     25  C   UNL     1       5.271   4.379  13.823  0.00  0.00    +0.000 C 
BRANCH  25  26
ATOM     26  C   UNL     1       6.428   3.617  13.242  0.00  0.00    +0.000 C 
BRANCH  26  27
ATOM     27  C   UNL     1       6.284   3.363  11.740  0.00  0.00    +0.000 C 
BRANCH  27  28
ATOM     28  C   UNL     1       5.467   2.110  11.423  0.00  0.00    +0.000 C 
BRANCH  28  29
ATOM     29  C   UNL     1       6.348   0.901  11.219  0.00  0.00    +0.000 C 
ATOM     30  O   UNL     1       5.955  -0.223  10.947  0.00  0.00    +0.000 OA
BRANCH  29  31
ATOM     31  O   UNL     1       7.658   1.196  11.380  0.00  0.00    +0.000 OA
ATOM     32  H   UNL     1       8.107   0.641  12.045  0.00  0.00    +0.000 HD
ENDBRANCH  29  31
ENDBRANCH  28  29
ENDBRANCH  27  28
ENDBRANCH  26  27
ENDBRANCH  25  26
ENDBRANCH  23  24
ENDBRANCH   7  23
TORSDOF 13
ENDMDL
MODEL 3
REMARK VINA RESULT:      -7.7      1.695      1.760
REMARK  Name = 
REMARK  14 active torsions:
REMARK  status: ('A' for Active; 'I' for Inactive)
REMARK    1  A    between atoms: C_1  and  C_2
REMARK    2  A    between atoms: C_2  and  C_3
REMARK    3  A    between atoms: C_2  and  C_10
REMARK    4  A    between atoms: C_6  and  O_7
REMARK    5  A    between atoms: C_10  and  O_11
REMARK    6  A    between atoms: C_10  and  C_12
REMARK    7  A    between atoms: C_13  and  C_14
REMARK    8  A    between atoms: C_20  and  C_21
REMARK    9  A    between atoms: C_21  and  C_22
REMARK   10  A    between atoms: C_23  and  C_24
REMARK   11  A    between atoms: C_24  and  C_25
REMARK   12  A    between atoms: C_25  and  C_26
REMARK   13  A    between atoms: C_26  and  C_27
REMARK   14  A    between atoms: C_27  and  O_29
REMARK                            x       y       z     vdW  Elec       q    Type
REMARK                         _______ _______ _______ _____ _____    ______ ____
ROOT
ATOM      1  C   UNL     1       2.697   4.834  20.092  0.00  0.00    +0.000 C 
ATOM      2  C   UNL     1       2.659   3.386  20.627  0.00  0.00    +0.000 C 
ATOM      3  C   UNL     1       1.256   2.875  20.934  0.00  0.00    +0.000 C 
ATOM      4  C   UNL     1       0.630   2.826  19.542  0.00  0.00    +0.000 C 
ATOM      5  C   UNL     1       1.824   3.147  18.639  0.00  0.00    +0.000 C 
ATOM      6  O   UNL     1       2.929   2.631  19.416  0.00  0.00    +0.000 OA
ATOM      7  C   UNL     1       2.125   4.654  18.652  0.00  0.00    +0.000 C 
ENDROOT
BRANCH   1   9
ATOM      8  C   UNL     1       1.842   7.161  20.496  0.00  0.00    +0.000 C 
ATOM      9  C   UNL     1       1.950   5.880  20.889  0.00  0.00    +0.000 C 
BRANCH   8  10
ATOM     10  C   UNL     1       0.978   8.224  21.144  0.00  0.00    +0.000 C 
BRANCH  10  12
ATOM     11  C   UNL     1       1.378   9.419  18.886  0.00  0.00    +0.000 C 
ATOM     12  C   UNL     1       0.470   9.294  20.124  0.00  0.00    +0.000 C 
BRANCH  12  13
ATOM     13  C   UNL     1       0.230  10.712  20.647  0.00  0.00    +0.000 A 
ATOM     14  C   UNL     1       1.100  11.739  20.231  0.00  0.00    +0.000 A 
ATOM     15  C   UNL     1       1.073  13.000  20.835  0.00  0.00    +0.000 A 
ATOM     16  C   UNL     1       0.169  13.245  21.860  0.00  0.00    +0.000 A 
ATOM     17  C   UNL     1      -0.734  12.268  22.254  0.00  0.00    +0.000 A 
ATOM     18  C   UNL     1      -0.706  11.008  21.650  0.00  0.00    +0.000 A 
BRANCH  16  19
ATOM     19  O   UNL     1       0.152  14.435  22.525  0.00  0.00    +0.000 OA
ATOM     20  H   UNL     1      -0.395  14.336  23.322  0.00  0.00    +0.000 HD
ENDBRANCH  16  19
ENDBRANCH  12  13
ENDBRANCH  10  12
BRANCH  10  21
ATOM     21  O   UNL     1       1.785   8.788  22.179  0.00  0.00    +0.000 OA
ATOM     22  H   UNL     1       2.714   8.726  21.902  0.00  0.00    +0.000 HD
ENDBRANCH  10  21
ENDBRANCH   8  10
ENDBRANCH   1   9
BRANCH   7  23
ATOM     23  C   UNL     1       3.181   5.047  17.602  0.00  0.00    +0.000 C 
BRANCH  23  24
ATOM     24  C   UNL     1       3.718   6.442  17.784  0.00  0.00    +0.000 C 
ATOM     25  C   UNL     1       4.772   6.992  17.160  0.00  0.00    +0.000 C 
BRANCH  25  26
ATOM     26  C   UNL     1       5.687   6.309  16.186  0.00  0.00    +0.000 C 
BRANCH  26  27
ATOM     27  C   UNL     1       6.798   5.506  16.868  0.00  0.00    +0.000 C 
BRANCH  27  28
ATOM     28  C   UNL     1       7.472   6.272  18.007  0.00  0.00    +0.000 C 
BRANCH  28  29
ATOM     29  C   UNL     1       7.323   5.559  19.329  0.00  0.00    +0.000 C 
ATOM     30  O   UNL     1       6.286   5.080  19.762  0.00  0.00    +0.000 OA
BRANCH  29  31
ATOM     31  O   UNL     1       8.490   5.505  20.010  0.00  0.00    +0.000 OA
ATOM     32  H   UNL     1       8.773   4.598  20.235  0.00  0.00    +0.000 HD
ENDBRANCH  29  31
ENDBRANCH  28  29
ENDBRANCH  27  28
ENDBRANCH  26  27
ENDBRANCH  25  26
ENDBRANCH  23  24
ENDBRANCH   7  23
TORSDOF 13
ENDMDL
MODEL 4
REMARK VINA RESULT:      -7.6      1.970      4.818
REMARK  Name = 
REMARK  14 active torsions:
REMARK  status: ('A' for Active; 'I' for Inactive)
REMARK    1  A    between atoms: C_1  and  C_2
REMARK    2  A    between atoms: C_2  and  C_3
REMARK    3  A    between atoms: C_2  and  C_10
REMARK    4  A    between atoms: C_6  and  O_7
REMARK    5  A    between atoms: C_10  and  O_11
REMARK    6  A    between atoms: C_10  and  C_12
REMARK    7  A    between atoms: C_13  and  C_14
REMARK    8  A    between atoms: C_20  and  C_21
REMARK    9  A    between atoms: C_21  and  C_22
REMARK   10  A    between atoms: C_23  and  C_24
REMARK   11  A    between atoms: C_24  and  C_25
REMARK   12  A    between atoms: C_25  and  C_26
REMARK   13  A    between atoms: C_26  and  C_27
REMARK   14  A    between atoms: C_27  and  O_29
REMARK                            x       y       z     vdW  Elec       q    Type
REMARK                         _______ _______ _______ _____ _____    ______ ____
ROOT
ATOM      1  C   UNL     1       4.839   5.962  17.419  0.00  0.00    +0.000 C 
ATOM      2  C   UNL     1       6.145   6.100  16.608  0.00  0.00    +0.000 C 
ATOM      3  C   UNL     1       7.170   7.035  17.238  0.00  0.00    +0.000 C 
ATOM      4  C   UNL     1       7.543   6.278  18.511  0.00  0.00    +0.000 C 
ATOM      5  C   UNL     1       6.807   4.949  18.323  0.00  0.00    +0.000 C 
ATOM      6  O   UNL     1       6.783   4.825  16.883  0.00  0.00    +0.000 OA
ATOM      7  C   UNL     1       5.311   5.108  18.636  0.00  0.00    +0.000 C 
ENDROOT
BRANCH   1   9
ATOM      8  C   UNL     1       2.835   7.317  18.097  0.00  0.00    +0.000 C 
ATOM      9  C   UNL     1       4.152   7.244  17.838  0.00  0.00    +0.000 C 
BRANCH   8  10
ATOM     10  C   UNL     1       2.105   8.510  18.679  0.00  0.00    +0.000 C 
BRANCH  10  12
ATOM     11  C   UNL     1       1.279   6.946  20.565  0.00  0.00    +0.000 C 
ATOM     12  C   UNL     1       1.803   8.349  20.205  0.00  0.00    +0.000 C 
BRANCH  12  13
ATOM     13  C   UNL     1       0.852   9.360  20.848  0.00  0.00    +0.000 A 
ATOM     14  C   UNL     1       0.895  10.698  20.408  0.00  0.00    +0.000 A 
ATOM     15  C   UNL     1       0.217  11.709  21.096  0.00  0.00    +0.000 A 
ATOM     16  C   UNL     1      -0.517  11.387  22.230  0.00  0.00    +0.000 A 
ATOM     17  C   UNL     1      -0.619  10.070  22.655  0.00  0.00    +0.000 A 
ATOM     18  C   UNL     1       0.060   9.060  21.966  0.00  0.00    +0.000 A 
BRANCH  16  19
ATOM     19  O   UNL     1      -1.138  12.346  22.973  0.00  0.00    +0.000 OA
ATOM     20  H   UNL     1      -1.371  13.087  22.389  0.00  0.00    +0.000 HD
ENDBRANCH  16  19
ENDBRANCH  12  13
ENDBRANCH  10  12
BRANCH  10  21
ATOM     21  O   UNL     1       0.920   8.649  17.894  0.00  0.00    +0.000 OA
ATOM     22  H   UNL     1       0.632   7.761  17.627  0.00  0.00    +0.000 HD
ENDBRANCH  10  21
ENDBRANCH   8  10
ENDBRANCH   1   9
BRANCH   7  23
ATOM     23  C   UNL     1       4.573   3.756  18.660  0.00  0.00    +0.000 C 
BRANCH  23  24
ATOM     24  C   UNL     1       3.750   3.499  17.427  0.00  0.00    +0.000 C 
ATOM     25  C   UNL     1       2.414   3.577  17.312  0.00  0.00    +0.000 C 
BRANCH  25  26
ATOM     26  C   UNL     1       1.442   3.881  18.416  0.00  0.00    +0.000 C 
BRANCH  26  27
ATOM     27  C   UNL     1       1.170   2.679  19.323  0.00  0.00    +0.000 C 
BRANCH  27  28
ATOM     28  C   UNL     1       0.958   3.072  20.785  0.00  0.00    +0.000 C 
BRANCH  28  29
ATOM     29  C   UNL     1       2.267   3.209  21.525  0.00  0.00    +0.000 C 
ATOM     30  O   UNL     1       2.945   2.282  21.941  0.00  0.00    +0.000 OA
BRANCH  29  31
ATOM     31  O   UNL     1       2.622   4.504  21.690  0.00  0.00    +0.000 OA
ATOM     32  H   UNL     1       3.127   4.671  22.509  0.00  0.00    +0.000 HD
ENDBRANCH  29  31
ENDBRANCH  28  29
ENDBRANCH  27  28
ENDBRANCH  26  27
ENDBRANCH  25  26
ENDBRANCH  23  24
ENDBRANCH   7  23
TORSDOF 13
ENDMDL
MODEL 5
REMARK VINA RESULT:      -7.5      3.308      5.849
REMARK  Name = 
REMARK  14 active torsions:
REMARK  status: ('A' for Active; 'I' for Inactive)
REMARK    1  A    between atoms: C_1  and  C_2
REMARK    2  A    between atoms: C_2  and  C_3
REMARK    3  A    between atoms: C_2  and  C_10
REMARK    4  A    between atoms: C_6  and  O_7
REMARK    5  A    between atoms: C_10  and  O_11
REMARK    6  A    between atoms: C_10  and  C_12
REMARK    7  A    between atoms: C_13  and  C_14
REMARK    8  A    between atoms: C_20  and  C_21
REMARK    9  A    between atoms: C_21  and  C_22
REMARK   10  A    between atoms: C_23  and  C_24
REMARK   11  A    between atoms: C_24  and  C_25
REMARK   12  A    between atoms: C_25  and  C_26
REMARK   13  A    between atoms: C_26  and  C_27
REMARK   14  A    between atoms: C_27  and  O_29
REMARK                            x       y       z     vdW  Elec       q    Type
REMARK                         _______ _______ _______ _____ _____    ______ ____
ROOT
ATOM      1  C   UNL     1       6.908   5.003  17.794  0.00  0.00    +0.000 C 
ATOM      2  C   UNL     1       7.049   4.428  16.368  0.00  0.00    +0.000 C 
ATOM      3  C   UNL     1       5.737   4.357  15.597  0.00  0.00    +0.000 C 
ATOM      4  C   UNL     1       5.395   5.834  15.423  0.00  0.00    +0.000 C 
ATOM      5  C   UNL     1       6.650   6.522  15.966  0.00  0.00    +0.000 C 
ATOM      6  O   UNL     1       7.673   5.542  15.676  0.00  0.00    +0.000 OA
ATOM      7  C   UNL     1       6.653   6.513  17.502  0.00  0.00    +0.000 C 
ENDROOT
BRANCH   1   9
ATOM      8  C   UNL     1       4.555   4.771  18.642  0.00  0.00    +0.000 C 
ATOM      9  C   UNL     1       5.844   4.392  18.679  0.00  0.00    +0.000 C 
BRANCH   8  10
ATOM     10  C   UNL     1       3.406   4.100  19.366  0.00  0.00    +0.000 C 
BRANCH  10  12
ATOM     11  C   UNL     1       1.288   4.469  20.803  0.00  0.00    +0.000 C 
ATOM     12  C   UNL     1       2.573   5.099  20.234  0.00  0.00    +0.000 C 
BRANCH  12  13
ATOM     13  C   UNL     1       2.173   6.429  19.592  0.00  0.00    +0.000 A 
ATOM     14  C   UNL     1       2.450   6.626  18.225  0.00  0.00    +0.000 A 
ATOM     15  C   UNL     1       2.313   7.885  17.632  0.00  0.00    +0.000 A 
ATOM     16  C   UNL     1       1.890   8.959  18.405  0.00  0.00    +0.000 A 
ATOM     17  C   UNL     1       1.562   8.782  19.741  0.00  0.00    +0.000 A 
ATOM     18  C   UNL     1       1.700   7.523  20.333  0.00  0.00    +0.000 A 
BRANCH  16  19
ATOM     19  O   UNL     1       1.809  10.219  17.890  0.00  0.00    +0.000 OA
ATOM     20  H   UNL     1       1.242  10.753  18.470  0.00  0.00    +0.000 HD
ENDBRANCH  16  19
ENDBRANCH  12  13
ENDBRANCH  10  12
BRANCH  10  21
ATOM     21  O   UNL     1       4.004   3.061  20.142  0.00  0.00    +0.000 OA
ATOM     22  H   UNL     1       3.308   2.652  20.684  0.00  0.00    +0.000 HD
ENDBRANCH  10  21
ENDBRANCH   8  10
ENDBRANCH   1   9
BRANCH   7  23
ATOM     23  C   UNL     1       7.789   7.373  18.089  0.00  0.00    +0.000 C 
BRANCH  23  24
ATOM     24  C   UNL     1       7.852   8.761  17.510  0.00  0.00    +0.000 C 
ATOM     25  C   UNL     1       8.486   9.826  18.027  0.00  0.00    +0.000 C 
BRANCH  25  26
ATOM     26  C   UNL     1       9.221   9.877  19.335  0.00  0.00    +0.000 C 
BRANCH  26  27
ATOM     27  C   UNL     1       9.643  11.294  19.730  0.00  0.00    +0.000 C 
BRANCH  27  28
ATOM     28  C   UNL     1      11.158  11.499  19.685  0.00  0.00    +0.000 C 
BRANCH  28  29
ATOM     29  C   UNL     1      11.575  12.338  18.500  0.00  0.00    +0.000 C 
ATOM     30  O   UNL     1      11.471  13.553  18.422  0.00  0.00    +0.000 OA
BRANCH  29  31
ATOM     31  O   UNL     1      12.089  11.585  17.501  0.00  0.00    +0.000 OA
ATOM     32  H   UNL     1      11.432  11.325  16.828  0.00  0.00    +0.000 HD
ENDBRANCH  29  31
ENDBRANCH  28  29
ENDBRANCH  27  28
ENDBRANCH  26  27
ENDBRANCH  25  26
ENDBRANCH  23  24
ENDBRANCH   7  23
TORSDOF 13
ENDMDL
MODEL 6
REMARK VINA RESULT:      -7.5      0.888      1.473
REMARK  Name = 
REMARK  14 active torsions:
REMARK  status: ('A' for Active; 'I' for Inactive)
REMARK    1  A    between atoms: C_1  and  C_2
REMARK    2  A    between atoms: C_2  and  C_3
REMARK    3  A    between atoms: C_2  and  C_10
REMARK    4  A    between atoms: C_6  and  O_7
REMARK    5  A    between atoms: C_10  and  O_11
REMARK    6  A    between atoms: C_10  and  C_12
REMARK    7  A    between atoms: C_13  and  C_14
REMARK    8  A    between atoms: C_20  and  C_21
REMARK    9  A    between atoms: C_21  and  C_22
REMARK   10  A    between atoms: C_23  and  C_24
REMARK   11  A    between atoms: C_24  and  C_25
REMARK   12  A    between atoms: C_25  and  C_26
REMARK   13  A    between atoms: C_26  and  C_27
REMARK   14  A    between atoms: C_27  and  O_29
REMARK                            x       y       z     vdW  Elec       q    Type
REMARK                         _______ _______ _______ _____ _____    ______ ____
ROOT
ATOM      1  C   UNL     1       3.338   4.429  19.112  0.00  0.00    +0.000 C 
ATOM      2  C   UNL     1       3.194   3.168  19.989  0.00  0.00    +0.000 C 
ATOM      3  C   UNL     1       1.823   2.507  19.903  0.00  0.00    +0.000 C 
ATOM      4  C   UNL     1       1.802   2.018  18.457  0.00  0.00    +0.000 C 
ATOM      5  C   UNL     1       3.229   2.319  17.993  0.00  0.00    +0.000 C 
ATOM      6  O   UNL     1       3.972   2.206  19.228  0.00  0.00    +0.000 OA
ATOM      7  C   UNL     1       3.394   3.814  17.680  0.00  0.00    +0.000 C 
ENDROOT
BRANCH   1   9
ATOM      8  C   UNL     1       2.409   6.578  20.024  0.00  0.00    +0.000 C 
ATOM      9  C   UNL     1       2.266   5.488  19.250  0.00  0.00    +0.000 C 
BRANCH   8  10
ATOM     10  C   UNL     1       1.462   7.759  20.086  0.00  0.00    +0.000 C 
BRANCH  10  12
ATOM     11  C   UNL     1       2.785   8.635  18.045  0.00  0.00    +0.000 C 
ATOM     12  C   UNL     1       1.417   8.569  18.750  0.00  0.00    +0.000 C 
BRANCH  12  13
ATOM     13  C   UNL     1       0.874   9.998  18.807  0.00  0.00    +0.000 A 
ATOM     14  C   UNL     1      -0.522  10.188  18.789  0.00  0.00    +0.000 A 
ATOM     15  C   UNL     1      -1.077  11.461  18.620  0.00  0.00    +0.000 A 
ATOM     16  C   UNL     1      -0.237  12.556  18.473  0.00  0.00    +0.000 A 
ATOM     17  C   UNL     1       1.140  12.404  18.538  0.00  0.00    +0.000 A 
ATOM     18  C   UNL     1       1.694  11.132  18.707  0.00  0.00    +0.000 A 
BRANCH  16  19
ATOM     19  O   UNL     1      -0.730  13.805  18.235  0.00  0.00    +0.000 OA
ATOM     20  H   UNL     1      -1.154  13.808  17.361  0.00  0.00    +0.000 HD
ENDBRANCH  16  19
ENDBRANCH  12  13
ENDBRANCH  10  12
BRANCH  10  21
ATOM     21  O   UNL     1       1.909   8.545  21.192  0.00  0.00    +0.000 OA
ATOM     22  H   UNL     1       2.426   9.289  20.842  0.00  0.00    +0.000 HD
ENDBRANCH  10  21
ENDBRANCH   8  10
ENDBRANCH   1   9
BRANCH   7  23
ATOM     23  C   UNL     1       4.749   4.125  17.016  0.00  0.00    +0.000 C 
BRANCH  23  24
ATOM     24  C   UNL     1       4.684   5.247  16.014  0.00  0.00    +0.000 C 
ATOM     25  C   UNL     1       5.150   6.497  16.165  0.00  0.00    +0.000 C 
BRANCH  25  26
ATOM     26  C   UNL     1       5.787   7.067  17.400  0.00  0.00    +0.000 C 
BRANCH  26  27
ATOM     27  C   UNL     1       7.301   7.248  17.264  0.00  0.00    +0.000 C 
BRANCH  27  28
ATOM     28  C   UNL     1       8.067   6.826  18.518  0.00  0.00    +0.000 C 
BRANCH  28  29
ATOM     29  C   UNL     1       7.605   5.484  19.032  0.00  0.00    +0.000 C 
ATOM     30  O   UNL     1       6.907   5.306  20.019  0.00  0.00    +0.000 OA
BRANCH  29  31
ATOM     31  O   UNL     1       8.062   4.464  18.270  0.00  0.00    +0.000 OA
ATOM     32  H   UNL     1       8.872   4.680  17.769  0.00  0.00    +0.000 HD
ENDBRANCH  29  31
ENDBRANCH  28  29
ENDBRANCH  27  28
ENDBRANCH  26  27
ENDBRANCH  25  26
ENDBRANCH  23  24
ENDBRANCH   7  23
TORSDOF 13
ENDMDL
MODEL 7
REMARK VINA RESULT:      -7.5      1.756      2.359
REMARK  Name = 
REMARK  14 active torsions:
REMARK  status: ('A' for Active; 'I' for Inactive)
REMARK    1  A    between atoms: C_1  and  C_2
REMARK    2  A    between atoms: C_2  and  C_3
REMARK    3  A    between atoms: C_2  and  C_10
REMARK    4  A    between atoms: C_6  and  O_7
REMARK    5  A    between atoms: C_10  and  O_11
REMARK    6  A    between atoms: C_10  and  C_12
REMARK    7  A    between atoms: C_13  and  C_14
REMARK    8  A    between atoms: C_20  and  C_21
REMARK    9  A    between atoms: C_21  and  C_22
REMARK   10  A    between atoms: C_23  and  C_24
REMARK   11  A    between atoms: C_24  and  C_25
REMARK   12  A    between atoms: C_25  and  C_26
REMARK   13  A    between atoms: C_26  and  C_27
REMARK   14  A    between atoms: C_27  and  O_29
REMARK                            x       y       z     vdW  Elec       q    Type
REMARK                         _______ _______ _______ _____ _____    ______ ____
ROOT
ATOM      1  C   UNL     1       3.057   5.919  19.670  0.00  0.00    +0.000 C 
ATOM      2  C   UNL     1       2.854   4.395  19.808  0.00  0.00    +0.000 C 
ATOM      3  C   UNL     1       1.460   3.918  19.416  0.00  0.00    +0.000 C 
ATOM      4  C   UNL     1       1.439   4.213  17.918  0.00  0.00    +0.000 C 
ATOM      5  C   UNL     1       2.882   4.647  17.653  0.00  0.00    +0.000 C 
ATOM      6  O   UNL     1       3.604   3.907  18.664  0.00  0.00    +0.000 OA
ATOM      7  C   UNL     1       3.109   6.093  18.122  0.00  0.00    +0.000 C 
ENDROOT
BRANCH   1   9
ATOM      8  C   UNL     1       1.833   8.093  19.966  0.00  0.00    +0.000 C 
ATOM      9  C   UNL     1       2.025   6.811  20.324  0.00  0.00    +0.000 C 
BRANCH   8  10
ATOM     10  C   UNL     1       0.718   8.997  20.448  0.00  0.00    +0.000 C 
BRANCH  10  12
ATOM     11  C   UNL     1       0.917  11.571  20.602  0.00  0.00    +0.000 C 
ATOM     12  C   UNL     1       0.671  10.360  19.683  0.00  0.00    +0.000 C 
BRANCH  12  13
ATOM     13  C   UNL     1      -0.585  10.667  18.864  0.00  0.00    +0.000 A 
ATOM     14  C   UNL     1      -1.507  11.604  19.372  0.00  0.00    +0.000 A 
ATOM     15  C   UNL     1      -2.767  11.768  18.790  0.00  0.00    +0.000 A 
ATOM     16  C   UNL     1      -3.114  10.998  17.687  0.00  0.00    +0.000 A 
ATOM     17  C   UNL     1      -2.206  10.106  17.135  0.00  0.00    +0.000 A 
ATOM     18  C   UNL     1      -0.946   9.942  17.719  0.00  0.00    +0.000 A 
BRANCH  16  19
ATOM     19  O   UNL     1      -4.355  11.073  17.129  0.00  0.00    +0.000 OA
ATOM     20  H   UNL     1      -4.348  11.769  16.451  0.00  0.00    +0.000 HD
ENDBRANCH  16  19
ENDBRANCH  12  13
ENDBRANCH  10  12
BRANCH  10  21
ATOM     21  O   UNL     1       0.941   9.159  21.849  0.00  0.00    +0.000 OA
ATOM     22  H   UNL     1       0.843  10.102  22.062  0.00  0.00    +0.000 HD
ENDBRANCH  10  21
ENDBRANCH   8  10
ENDBRANCH   1   9
BRANCH   7  23
ATOM     23  C   UNL     1       4.483   6.639  17.689  0.00  0.00    +0.000 C 
BRANCH  23  24
ATOM     24  C   UNL     1       4.649   6.732  16.196  0.00  0.00    +0.000 C 
ATOM     25  C   UNL     1       5.328   5.890  15.401  0.00  0.00    +0.000 C 
BRANCH  25  26
ATOM     26  C   UNL     1       6.127   4.698  15.843  0.00  0.00    +0.000 C 
BRANCH  26  27
ATOM     27  C   UNL     1       7.475   5.076  16.462  0.00  0.00    +0.000 C 
BRANCH  27  28
ATOM     28  C   UNL     1       7.654   4.530  17.879  0.00  0.00    +0.000 C 
BRANCH  28  29
ATOM     29  C   UNL     1       7.716   5.638  18.904  0.00  0.00    +0.000 C 
ATOM     30  O   UNL     1       7.570   5.496  20.108  0.00  0.00    +0.000 OA
BRANCH  29  31
ATOM     31  O   UNL     1       7.954   6.842  18.335  0.00  0.00    +0.000 OA
ATOM     32  H   UNL     1       8.677   7.341  18.758  0.00  0.00    +0.000 HD
ENDBRANCH  29  31
ENDBRANCH  28  29
ENDBRANCH  27  28
ENDBRANCH  26  27
ENDBRANCH  25  26
ENDBRANCH  23  24
ENDBRANCH   7  23
TORSDOF 13
ENDMDL
MODEL 8
REMARK VINA RESULT:      -7.5      3.287      6.385
REMARK  Name = 
REMARK  14 active torsions:
REMARK  status: ('A' for Active; 'I' for Inactive)
REMARK    1  A    between atoms: C_1  and  C_2
REMARK    2  A    between atoms: C_2  and  C_3
REMARK    3  A    between atoms: C_2  and  C_10
REMARK    4  A    between atoms: C_6  and  O_7
REMARK    5  A    between atoms: C_10  and  O_11
REMARK    6  A    between atoms: C_10  and  C_12
REMARK    7  A    between atoms: C_13  and  C_14
REMARK    8  A    between atoms: C_20  and  C_21
REMARK    9  A    between atoms: C_21  and  C_22
REMARK   10  A    between atoms: C_23  and  C_24
REMARK   11  A    between atoms: C_24  and  C_25
REMARK   12  A    between atoms: C_25  and  C_26
REMARK   13  A    between atoms: C_26  and  C_27
REMARK   14  A    between atoms: C_27  and  O_29
REMARK                            x       y       z     vdW  Elec       q    Type
REMARK                         _______ _______ _______ _____ _____    ______ ____
ROOT
ATOM      1  C   UNL     1       6.881   5.005  17.906  0.00  0.00    +0.000 C 
ATOM      2  C   UNL     1       6.909   4.510  16.445  0.00  0.00    +0.000 C 
ATOM      3  C   UNL     1       5.543   4.500  15.768  0.00  0.00    +0.000 C 
ATOM      4  C   UNL     1       5.216   5.989  15.702  0.00  0.00    +0.000 C 
ATOM      5  C   UNL     1       6.518   6.629  16.189  0.00  0.00    +0.000 C 
ATOM      6  O   UNL     1       7.500   5.653  15.771  0.00  0.00    +0.000 OA
ATOM      7  C   UNL     1       6.631   6.533  17.718  0.00  0.00    +0.000 C 
ENDROOT
BRANCH   1   9
ATOM      8  C   UNL     1       5.039   3.381  18.436  0.00  0.00    +0.000 C 
ATOM      9  C   UNL     1       5.873   4.359  18.831  0.00  0.00    +0.000 C 
BRANCH   8  10
ATOM     10  C   UNL     1       4.125   2.571  19.333  0.00  0.00    +0.000 C 
BRANCH  10  12
ATOM     11  C   UNL     1       1.925   2.377  17.989  0.00  0.00    +0.000 C 
ATOM     12  C   UNL     1       2.627   2.998  19.211  0.00  0.00    +0.000 C 
BRANCH  12  13
ATOM     13  C   UNL     1       2.318   4.496  19.191  0.00  0.00    +0.000 A 
ATOM     14  C   UNL     1       2.352   5.173  17.955  0.00  0.00    +0.000 A 
ATOM     15  C   UNL     1       2.297   6.569  17.893  0.00  0.00    +0.000 A 
ATOM     16  C   UNL     1       2.201   7.300  19.069  0.00  0.00    +0.000 A 
ATOM     17  C   UNL     1       2.114   6.658  20.295  0.00  0.00    +0.000 A 
ATOM     18  C   UNL     1       2.170   5.262  20.357  0.00  0.00    +0.000 A 
BRANCH  16  19
ATOM     19  O   UNL     1       2.215   8.664  19.063  0.00  0.00    +0.000 OA
ATOM     20  H   UNL     1       2.518   8.966  18.191  0.00  0.00    +0.000 HD
ENDBRANCH  16  19
ENDBRANCH  12  13
ENDBRANCH  10  12
BRANCH  10  21
ATOM     21  O   UNL     1       4.642   2.742  20.653  0.00  0.00    +0.000 OA
ATOM     22  H   UNL     1       5.454   3.271  20.592  0.00  0.00    +0.000 HD
ENDBRANCH  10  21
ENDBRANCH   8  10
ENDBRANCH   1   9
BRANCH   7  23
ATOM     23  C   UNL     1       7.822   7.342  18.267  0.00  0.00    +0.000 C 
BRANCH  23  24
ATOM     24  C   UNL     1       7.982   8.691  17.617  0.00  0.00    +0.000 C 
ATOM     25  C   UNL     1       8.601   9.767  18.127  0.00  0.00    +0.000 C 
BRANCH  25  26
ATOM     26  C   UNL     1       9.218   9.878  19.491  0.00  0.00    +0.000 C 
BRANCH  26  27
ATOM     27  C   UNL     1       9.694  11.295  19.821  0.00  0.00    +0.000 C 
BRANCH  27  28
ATOM     28  C   UNL     1      11.190  11.493  19.575  0.00  0.00    +0.000 C 
BRANCH  28  29
ATOM     29  C   UNL     1      11.452  12.304  18.329  0.00  0.00    +0.000 C 
ATOM     30  O   UNL     1      11.386  13.522  18.251  0.00  0.00    +0.000 OA
BRANCH  29  31
ATOM     31  O   UNL     1      11.771  11.522  17.272  0.00  0.00    +0.000 OA
ATOM     32  H   UNL     1      11.382  10.628  17.313  0.00  0.00    +0.000 HD
ENDBRANCH  29  31
ENDBRANCH  28  29
ENDBRANCH  27  28
ENDBRANCH  26  27
ENDBRANCH  25  26
ENDBRANCH  23  24
ENDBRANCH   7  23
TORSDOF 13
ENDMDL
MODEL 9
REMARK VINA RESULT:      -7.5      1.904      2.462
REMARK  Name = 
REMARK  14 active torsions:
REMARK  status: ('A' for Active; 'I' for Inactive)
REMARK    1  A    between atoms: C_1  and  C_2
REMARK    2  A    between atoms: C_2  and  C_3
REMARK    3  A    between atoms: C_2  and  C_10
REMARK    4  A    between atoms: C_6  and  O_7
REMARK    5  A    between atoms: C_10  and  O_11
REMARK    6  A    between atoms: C_10  and  C_12
REMARK    7  A    between atoms: C_13  and  C_14
REMARK    8  A    between atoms: C_20  and  C_21
REMARK    9  A    between atoms: C_21  and  C_22
REMARK   10  A    between atoms: C_23  and  C_24
REMARK   11  A    between atoms: C_24  and  C_25
REMARK   12  A    between atoms: C_25  and  C_26
REMARK   13  A    between atoms: C_26  and  C_27
REMARK   14  A    between atoms: C_27  and  O_29
REMARK                            x       y       z     vdW  Elec       q    Type
REMARK                         _______ _______ _______ _____ _____    ______ ____
ROOT
ATOM      1  C   UNL     1       3.311   4.882  19.723  0.00  0.00    +0.000 C 
ATOM      2  C   UNL     1       2.525   3.981  20.699  0.00  0.00    +0.000 C 
ATOM      3  C   UNL     1       1.011   4.081  20.552  0.00  0.00    +0.000 C 
ATOM      4  C   UNL     1       0.793   3.487  19.162  0.00  0.00    +0.000 C 
ATOM      5  C   UNL     1       2.192   2.980  18.804  0.00  0.00    +0.000 C 
ATOM      6  O   UNL     1       2.737   2.672  20.107  0.00  0.00    +0.000 OA
ATOM      7  C   UNL     1       3.096   4.143  18.367  0.00  0.00    +0.000 C 
ENDROOT
BRANCH   1   9
ATOM      8  C   UNL     1       3.016   7.082  18.546  0.00  0.00    +0.000 C 
ATOM      9  C   UNL     1       2.912   6.340  19.663  0.00  0.00    +0.000 C 
BRANCH   8  10
ATOM     10  C   UNL     1       2.486   8.489  18.356  0.00  0.00    +0.000 C 
BRANCH  10  12
ATOM     11  C   UNL     1       0.134   9.324  17.681  0.00  0.00    +0.000 C 
ATOM     12  C   UNL     1       0.983   8.628  18.761  0.00  0.00    +0.000 C 
BRANCH  12  13
ATOM     13  C   UNL     1       0.671   9.320  20.090  0.00  0.00    +0.000 A 
ATOM     14  C   UNL     1       0.290   8.525  21.189  0.00  0.00    +0.000 A 
ATOM     15  C   UNL     1      -0.216   9.101  22.359  0.00  0.00    +0.000 A 
ATOM     16  C   UNL     1      -0.339  10.481  22.440  0.00  0.00    +0.000 A 
ATOM     17  C   UNL     1       0.077  11.290  21.393  0.00  0.00    +0.000 A 
ATOM     18  C   UNL     1       0.582  10.714  20.224  0.00  0.00    +0.000 A 
BRANCH  16  19
ATOM     19  O   UNL     1      -0.892  11.084  23.531  0.00  0.00    +0.000 OA
ATOM     20  H   UNL     1      -1.074  12.012  23.312  0.00  0.00    +0.000 HD
ENDBRANCH  16  19
ENDBRANCH  12  13
ENDBRANCH  10  12
BRANCH  10  21
ATOM     21  O   UNL     1       2.717   8.797  16.981  0.00  0.00    +0.000 OA
ATOM     22  H   UNL     1       3.524   8.335  16.701  0.00  0.00    +0.000 HD
ENDBRANCH  10  21
ENDBRANCH   8  10
ENDBRANCH   1   9
BRANCH   7  23
ATOM     23  C   UNL     1       4.444   3.655  17.803  0.00  0.00    +0.000 C 
BRANCH  23  24
ATOM     24  C   UNL     1       4.614   3.930  16.332  0.00  0.00    +0.000 C 
ATOM     25  C   UNL     1       5.152   5.023  15.769  0.00  0.00    +0.000 C 
BRANCH  25  26
ATOM     26  C   UNL     1       5.648   6.244  16.489  0.00  0.00    +0.000 C 
BRANCH  26  27
ATOM     27  C   UNL     1       7.164   6.242  16.699  0.00  0.00    +0.000 C 
BRANCH  27  28
ATOM     28  C   UNL     1       7.624   5.190  17.709  0.00  0.00    +0.000 C 
BRANCH  28  29
ATOM     29  C   UNL     1       7.610   5.726  19.121  0.00  0.00    +0.000 C 
ATOM     30  O   UNL     1       6.916   5.301  20.032  0.00  0.00    +0.000 OA
BRANCH  29  31
ATOM     31  O   UNL     1       8.468   6.759  19.280  0.00  0.00    +0.000 OA
ATOM     32  H   UNL     1       8.902   7.041  18.452  0.00  0.00    +0.000 HD
ENDBRANCH  29  31
ENDBRANCH  28  29
ENDBRANCH  27  28
ENDBRANCH  26  27
ENDBRANCH  25  26
ENDBRANCH  23  24
ENDBRANCH   7  23
TORSDOF 13
ENDMDL
