MODEL 1
REMARK VINA RESULT:      -4.2      0.000      0.000
REMARK  Name = 
REMARK  7 active torsions:
REMARK  status: ('A' for Active; 'I' for Inactive)
REMARK    1  A    between atoms: C_1  and  C_2
REMARK    2  A    between atoms: C_2  and  S_3
REMARK    3  A    between atoms: S_3  and  C_4
REMARK    4  A    between atoms: C_4  and  C_5
REMARK    5  A    between atoms: C_5  and  N_6
REMARK    6  A    between atoms: C_5  and  C_7
REMARK    7  A    between atoms: C_7  and  O_9
REMARK                            x       y       z     vdW  Elec       q    Type
REMARK                         _______ _______ _______ _____ _____    ______ ____
ROOT
ATOM      1  C   UNK     1       7.261   5.235  17.937  0.00  0.00    +0.000 C 
ENDROOT
BRANCH   1   2
ATOM      2  N   UNK     1       8.183   4.074  17.701  0.00  0.00    +0.000 NA
ATOM      3  H   UNK     1       7.929   3.646  16.804  0.00  0.00    +0.000 HD
ATOM      4  H   UNK     1       7.906   3.357  18.385  0.00  0.00    +0.000 HD
ENDBRANCH   1   2
BRANCH   1   5
ATOM      5  C   UNK     1       7.895   6.122  19.012  0.00  0.00    +0.000 C 
ATOM      6  O   UNK     1       8.377   7.231  18.829  0.00  0.00    +0.000 OA
BRANCH   5   7
ATOM      7  O   UNK     1       7.834   5.525  20.231  0.00  0.00    +0.000 OA
ATOM      8  H   UNK     1       7.083   4.879  20.188  0.00  0.00    +0.000 HD
ENDBRANCH   5   7
ENDBRANCH   1   5
BRANCH   1   9
ATOM      9  C   UNK     1       6.948   6.040  16.667  0.00  0.00    +0.000 C 
BRANCH   9  10
ATOM     10  S   UNK     1       5.176   5.846  16.236  0.00  0.00    +0.000 S 
BRANCH  10  12
ATOM     11  C   UNK     1       6.425   4.249  14.414  0.00  0.00    +0.000 C 
ATOM     12  C   UNK     1       5.253   4.242  15.382  0.00  0.00    +0.000 C 
ENDBRANCH  10  12
ENDBRANCH   9  10
ENDBRANCH   1   9
TORSDOF 6
ENDMDL
MODEL 2
REMARK VINA RESULT:      -4.2      3.066      3.540
REMARK  Name = 
REMARK  7 active torsions:
REMARK  status: ('A' for Active; 'I' for Inactive)
REMARK    1  A    between atoms: C_1  and  C_2
REMARK    2  A    between atoms: C_2  and  S_3
REMARK    3  A    between atoms: S_3  and  C_4
REMARK    4  A    between atoms: C_4  and  C_5
REMARK    5  A    between atoms: C_5  and  N_6
REMARK    6  A    between atoms: C_5  and  C_7
REMARK    7  A    between atoms: C_7  and  O_9
REMARK                            x       y       z     vdW  Elec       q    Type
REMARK                         _______ _______ _______ _____ _____    ______ ____
ROOT
ATOM      1  C   UNK     1       5.864   4.871  17.697  0.00  0.00    +0.000 C 
ENDROOT
BRANCH   1   2
ATOM      2  N   UNK     1       6.128   3.965  18.865  0.00  0.00    +0.000 NA
ATOM      3  H   UNK     1       6.976   3.425  18.661  0.00  0.00    +0.000 HD
ATOM      4  H   UNK     1       5.388   3.252  18.836  0.00  0.00    +0.000 HD
ENDBRANCH   1   2
BRANCH   1   5
ATOM      5  C   UNK     1       7.190   5.081  16.962  0.00  0.00    +0.000 C 
ATOM      6  O   UNK     1       7.446   6.004  16.202  0.00  0.00    +0.000 OA
BRANCH   5   7
ATOM      7  O   UNK     1       8.082   4.106  17.281  0.00  0.00    +0.000 OA
ATOM      8  H   UNK     1       8.539   4.407  18.108  0.00  0.00    +0.000 HD
ENDBRANCH   5   7
ENDBRANCH   1   5
BRANCH   1   9
ATOM      9  C   UNK     1       4.779   4.347  16.746  0.00  0.00    +0.000 C 
BRANCH   9  10
ATOM     10  S   UNK     1       3.761   3.088  17.607  0.00  0.00    +0.000 S 
BRANCH  10  12
ATOM     11  C   UNK     1       1.202   3.198  18.538  0.00  0.00    +0.000 C 
ATOM     12  C   UNK     1       2.180   3.984  17.680  0.00  0.00    +0.000 C 
ENDBRANCH  10  12
ENDBRANCH   9  10
ENDBRANCH   1   9
TORSDOF 6
ENDMDL
MODEL 3
REMARK VINA RESULT:      -4.1      1.785      2.404
REMARK  Name = 
REMARK  7 active torsions:
REMARK  status: ('A' for Active; 'I' for Inactive)
REMARK    1  A    between atoms: C_1  and  C_2
REMARK    2  A    between atoms: C_2  and  S_3
REMARK    3  A    between atoms: S_3  and  C_4
REMARK    4  A    between atoms: C_4  and  C_5
REMARK    5  A    between atoms: C_5  and  N_6
REMARK    6  A    between atoms: C_5  and  C_7
REMARK    7  A    between atoms: C_7  and  O_9
REMARK                            x       y       z     vdW  Elec       q    Type
REMARK                         _______ _______ _______ _____ _____    ______ ____
ROOT
ATOM      1  C   UNK     1       7.075   5.012  18.164  0.00  0.00    +0.000 C 
ENDROOT
BRANCH   1   2
ATOM      2  N   UNK     1       8.098   4.098  17.553  0.00  0.00    +0.000 NA
ATOM      3  H   UNK     1       7.803   3.889  16.593  0.00  0.00    +0.000 HD
ATOM      4  H   UNK     1       7.983   3.194  18.031  0.00  0.00    +0.000 HD
ENDBRANCH   1   2
BRANCH   1   5
ATOM      5  C   UNK     1       7.815   5.998  19.072  0.00  0.00    +0.000 C 
ATOM      6  O   UNK     1       8.263   7.084  18.731  0.00  0.00    +0.000 OA
BRANCH   5   7
ATOM      7  O   UNK     1       7.896   5.521  20.342  0.00  0.00    +0.000 OA
ATOM      8  H   UNK     1       8.737   4.998  20.390  0.00  0.00    +0.000 HD
ENDBRANCH   5   7
ENDBRANCH   1   5
BRANCH   1   9
ATOM      9  C   UNK     1       6.214   5.750  17.128  0.00  0.00    +0.000 C 
BRANCH   9  10
ATOM     10  S   UNK     1       4.525   5.038  17.113  0.00  0.00    +0.000 S 
BRANCH  10  12
ATOM     11  C   UNK     1       3.593   5.314  19.659  0.00  0.00    +0.000 C 
ATOM     12  C   UNK     1       4.459   4.395  18.813  0.00  0.00    +0.000 C 
ENDBRANCH  10  12
ENDBRANCH   9  10
ENDBRANCH   1   9
TORSDOF 6
ENDMDL
MODEL 4
REMARK VINA RESULT:      -4.1      4.529      5.055
REMARK  Name = 
REMARK  7 active torsions:
REMARK  status: ('A' for Active; 'I' for Inactive)
REMARK    1  A    between atoms: C_1  and  C_2
REMARK    2  A    between atoms: C_2  and  S_3
REMARK    3  A    between atoms: S_3  and  C_4
REMARK    4  A    between atoms: C_4  and  C_5
REMARK    5  A    between atoms: C_5  and  N_6
REMARK    6  A    between atoms: C_5  and  C_7
REMARK    7  A    between atoms: C_7  and  O_9
REMARK                            x       y       z     vdW  Elec       q    Type
REMARK                         _______ _______ _______ _____ _____    ______ ____
ROOT
ATOM      1  C   UNK     1       4.290   3.018  19.447  0.00  0.00    +0.000 C 
ENDROOT
BRANCH   1   2
ATOM      2  N   UNK     1       5.163   1.893  19.923  0.00  0.00    +0.000 NA
ATOM      3  H   UNK     1       5.229   1.956  20.945  0.00  0.00    +0.000 HD
ATOM      4  H   UNK     1       6.115   2.131  19.615  0.00  0.00    +0.000 HD
ENDBRANCH   1   2
BRANCH   1   5
ATOM      5  C   UNK     1       5.187   4.237  19.217  0.00  0.00    +0.000 C 
ATOM      6  O   UNK     1       4.993   5.360  19.661  0.00  0.00    +0.000 OA
BRANCH   5   7
ATOM      7  O   UNK     1       6.267   3.909  18.459  0.00  0.00    +0.000 OA
ATOM      8  H   UNK     1       6.934   4.629  18.600  0.00  0.00    +0.000 HD
ENDBRANCH   5   7
ENDBRANCH   1   5
BRANCH   1   9
ATOM      9  C   UNK     1       3.482   2.678  18.186  0.00  0.00    +0.000 C 
BRANCH   9  10
ATOM     10  S   UNK     1       1.751   2.290  18.651  0.00  0.00    +0.000 S 
BRANCH  10  12
ATOM     11  C   UNK     1       1.017   4.200  20.450  0.00  0.00    +0.000 C 
ATOM     12  C   UNK     1       1.766   2.880  20.371  0.00  0.00    +0.000 C 
ENDBRANCH  10  12
ENDBRANCH   9  10
ENDBRANCH   1   9
TORSDOF 6
ENDMDL
MODEL 5
REMARK VINA RESULT:      -4.1      1.544      2.104
REMARK  Name = 
REMARK  7 active torsions:
REMARK  status: ('A' for Active; 'I' for Inactive)
REMARK    1  A    between atoms: C_1  and  C_2
REMARK    2  A    between atoms: C_2  and  S_3
REMARK    3  A    between atoms: S_3  and  C_4
REMARK    4  A    between atoms: C_4  and  C_5
REMARK    5  A    between atoms: C_5  and  N_6
REMARK    6  A    between atoms: C_5  and  C_7
REMARK    7  A    between atoms: C_7  and  O_9
REMARK                            x       y       z     vdW  Elec       q    Type
REMARK                         _______ _______ _______ _____ _____    ______ ____
ROOT
ATOM      1  C   UNK     1       7.026   5.069  18.047  0.00  0.00    +0.000 C 
ENDROOT
BRANCH   1   2
ATOM      2  N   UNK     1       8.049   4.208  17.365  0.00  0.00    +0.000 NA
ATOM      3  H   UNK     1       8.783   3.987  18.047  0.00  0.00    +0.000 HD
ATOM      4  H   UNK     1       8.533   4.826  16.699  0.00  0.00    +0.000 HD
ENDBRANCH   1   2
BRANCH   1   5
ATOM      5  C   UNK     1       7.708   5.748  19.238  0.00  0.00    +0.000 C 
ATOM      6  O   UNK     1       7.751   5.311  20.379  0.00  0.00    +0.000 OA
BRANCH   5   7
ATOM      7  O   UNK     1       8.297   6.913  18.860  0.00  0.00    +0.000 OA
ATOM      8  H   UNK     1       7.947   7.612  19.469  0.00  0.00    +0.000 HD
ENDBRANCH   5   7
ENDBRANCH   1   5
BRANCH   1   9
ATOM      9  C   UNK     1       6.374   6.102  17.117  0.00  0.00    +0.000 C 
BRANCH   9  10
ATOM     10  S   UNK     1       4.568   6.159  17.431  0.00  0.00    +0.000 S 
BRANCH  10  12
ATOM     11  C   UNK     1       3.280   3.764  17.254  0.00  0.00    +0.000 C 
ATOM     12  C   UNK     1       4.329   4.480  18.088  0.00  0.00    +0.000 C 
ENDBRANCH  10  12
ENDBRANCH   9  10
ENDBRANCH   1   9
TORSDOF 6
ENDMDL
MODEL 6
REMARK VINA RESULT:      -4.0      2.616      2.988
REMARK  Name = 
REMARK  7 active torsions:
REMARK  status: ('A' for Active; 'I' for Inactive)
REMARK    1  A    between atoms: C_1  and  C_2
REMARK    2  A    between atoms: C_2  and  S_3
REMARK    3  A    between atoms: S_3  and  C_4
REMARK    4  A    between atoms: C_4  and  C_5
REMARK    5  A    between atoms: C_5  and  N_6
REMARK    6  A    between atoms: C_5  and  C_7
REMARK    7  A    between atoms: C_7  and  O_9
REMARK                            x       y       z     vdW  Elec       q    Type
REMARK                         _______ _______ _______ _____ _____    ______ ____
ROOT
ATOM      1  C   UNK     1       6.306   5.326  18.478  0.00  0.00    +0.000 C 
ENDROOT
BRANCH   1   2
ATOM      2  N   UNK     1       7.008   5.322  19.805  0.00  0.00    +0.000 NA
ATOM      3  H   UNK     1       6.652   6.113  20.353  0.00  0.00    +0.000 HD
ATOM      4  H   UNK     1       7.979   5.599  19.606  0.00  0.00    +0.000 HD
ENDBRANCH   1   2
BRANCH   1   5
ATOM      5  C   UNK     1       7.370   5.165  17.388  0.00  0.00    +0.000 C 
ATOM      6  O   UNK     1       7.502   5.885  16.409  0.00  0.00    +0.000 OA
BRANCH   5   7
ATOM      7  O   UNK     1       8.186   4.112  17.658  0.00  0.00    +0.000 OA
ATOM      8  H   UNK     1       9.090   4.374  17.346  0.00  0.00    +0.000 HD
ENDBRANCH   5   7
ENDBRANCH   1   5
BRANCH   1   9
ATOM      9  C   UNK     1       5.218   4.249  18.355  0.00  0.00    +0.000 C 
BRANCH   9  10
ATOM     10  S   UNK     1       3.668   5.009  17.736  0.00  0.00    +0.000 S 
BRANCH  10  12
ATOM     11  C   UNK     1       3.471   2.300  17.962  0.00  0.00    +0.000 C 
ATOM     12  C   UNK     1       2.692   3.501  17.453  0.00  0.00    +0.000 C 
ENDBRANCH  10  12
ENDBRANCH   9  10
ENDBRANCH   1   9
TORSDOF 6
ENDMDL
MODEL 7
REMARK VINA RESULT:      -4.0      3.321      3.822
REMARK  Name = 
REMARK  7 active torsions:
REMARK  status: ('A' for Active; 'I' for Inactive)
REMARK    1  A    between atoms: C_1  and  C_2
REMARK    2  A    between atoms: C_2  and  S_3
REMARK    3  A    between atoms: S_3  and  C_4
REMARK    4  A    between atoms: C_4  and  C_5
REMARK    5  A    between atoms: C_5  and  N_6
REMARK    6  A    between atoms: C_5  and  C_7
REMARK    7  A    between atoms: C_7  and  O_9
REMARK                            x       y       z     vdW  Elec       q    Type
REMARK                         _______ _______ _______ _____ _____    ______ ____
ROOT
ATOM      1  C   UNK     1       6.333   5.373  18.485  0.00  0.00    +0.000 C 
ENDROOT
BRANCH   1   2
ATOM      2  N   UNK     1       7.134   5.357  19.755  0.00  0.00    +0.000 NA
ATOM      3  H   UNK     1       7.982   5.913  19.601  0.00  0.00    +0.000 HD
ATOM      4  H   UNK     1       7.499   4.399  19.841  0.00  0.00    +0.000 HD
ENDBRANCH   1   2
BRANCH   1   5
ATOM      5  C   UNK     1       7.316   5.285  17.315  0.00  0.00    +0.000 C 
ATOM      6  O   UNK     1       7.449   6.120  16.431  0.00  0.00    +0.000 OA
BRANCH   5   7
ATOM      7  O   UNK     1       8.060   4.150  17.390  0.00  0.00    +0.000 OA
ATOM      8  H   UNK     1       7.858   3.743  18.270  0.00  0.00    +0.000 HD
ENDBRANCH   5   7
ENDBRANCH   1   5
BRANCH   1   9
ATOM      9  C   UNK     1       5.278   4.260  18.409  0.00  0.00    +0.000 C 
BRANCH   9  10
ATOM     10  S   UNK     1       3.601   5.000  18.427  0.00  0.00    +0.000 S 
BRANCH  10  12
ATOM     11  C   UNK     1       1.579   4.676  20.226  0.00  0.00    +0.000 C 
ATOM     12  C   UNK     1       3.088   4.531  20.107  0.00  0.00    +0.000 C 
ENDBRANCH  10  12
ENDBRANCH   9  10
ENDBRANCH   1   9
TORSDOF 6
ENDMDL
MODEL 8
REMARK VINA RESULT:      -4.0      1.577      1.910
REMARK  Name = 
REMARK  7 active torsions:
REMARK  status: ('A' for Active; 'I' for Inactive)
REMARK    1  A    between atoms: C_1  and  C_2
REMARK    2  A    between atoms: C_2  and  S_3
REMARK    3  A    between atoms: S_3  and  C_4
REMARK    4  A    between atoms: C_4  and  C_5
REMARK    5  A    between atoms: C_5  and  N_6
REMARK    6  A    between atoms: C_5  and  C_7
REMARK    7  A    between atoms: C_7  and  O_9
REMARK                            x       y       z     vdW  Elec       q    Type
REMARK                         _______ _______ _______ _____ _____    ______ ____
ROOT
ATOM      1  C   UNK     1       6.797   4.509  17.537  0.00  0.00    +0.000 C 
ENDROOT
BRANCH   1   2
ATOM      2  N   UNK     1       8.242   4.121  17.658  0.00  0.00    +0.000 NA
ATOM      3  H   UNK     1       8.800   4.820  17.155  0.00  0.00    +0.000 HD
ATOM      4  H   UNK     1       8.353   3.278  17.079  0.00  0.00    +0.000 HD
ENDBRANCH   1   2
BRANCH   1   5
ATOM      5  C   UNK     1       6.195   4.509  18.945  0.00  0.00    +0.000 C 
ATOM      6  O   UNK     1       6.399   5.350  19.809  0.00  0.00    +0.000 OA
BRANCH   5   7
ATOM      7  O   UNK     1       5.365   3.446  19.118  0.00  0.00    +0.000 OA
ATOM      8  H   UNK     1       4.907   3.589  19.985  0.00  0.00    +0.000 HD
ENDBRANCH   5   7
ENDBRANCH   1   5
BRANCH   1   9
ATOM      9  C   UNK     1       6.579   5.861  16.842  0.00  0.00    +0.000 C 
BRANCH   9  10
ATOM     10  S   UNK     1       5.564   5.620  15.333  0.00  0.00    +0.000 S 
BRANCH  10  12
ATOM     11  C   UNK     1       6.036   3.771  13.387  0.00  0.00    +0.000 C 
ATOM     12  C   UNK     1       6.773   4.737  14.301  0.00  0.00    +0.000 C 
ENDBRANCH  10  12
ENDBRANCH   9  10
ENDBRANCH   1   9
TORSDOF 6
ENDMDL
MODEL 9
REMARK VINA RESULT:      -4.0      1.441      1.772
REMARK  Name = 
REMARK  7 active torsions:
REMARK  status: ('A' for Active; 'I' for Inactive)
REMARK    1  A    between atoms: C_1  and  C_2
REMARK    2  A    between atoms: C_2  and  S_3
REMARK    3  A    between atoms: S_3  and  C_4
REMARK    4  A    between atoms: C_4  and  C_5
REMARK    5  A    between atoms: C_5  and  N_6
REMARK    6  A    between atoms: C_5  and  C_7
REMARK    7  A    between atoms: C_7  and  O_9
REMARK                            x       y       z     vdW  Elec       q    Type
REMARK                         _______ _______ _______ _____ _____    ______ ____
ROOT
ATOM      1  C   UNK     1       6.993   5.837  17.515  0.00  0.00    +0.000 C 
ENDROOT
BRANCH   1   2
ATOM      2  N   UNK     1       7.621   6.923  16.690  0.00  0.00    +0.000 NA
ATOM      3  H   UNK     1       7.512   7.808  17.197  0.00  0.00    +0.000 HD
ATOM      4  H   UNK     1       7.003   7.046  15.877  0.00  0.00    +0.000 HD
ENDBRANCH   1   2
BRANCH   1   5
ATOM      5  C   UNK     1       7.526   5.972  18.945  0.00  0.00    +0.000 C 
ATOM      6  O   UNK     1       7.203   5.275  19.895  0.00  0.00    +0.000 OA
BRANCH   5   7
ATOM      7  O   UNK     1       8.443   6.972  19.028  0.00  0.00    +0.000 OA
ATOM      8  H   UNK     1       9.038   6.870  18.241  0.00  0.00    +0.000 HD
ENDBRANCH   5   7
ENDBRANCH   1   5
BRANCH   1   9
ATOM      9  C   UNK     1       5.458   5.856  17.491  0.00  0.00    +0.000 C 
BRANCH   9  10
ATOM     10  S   UNK     1       4.832   4.227  16.929  0.00  0.00    +0.000 S 
BRANCH  10  12
ATOM     11  C   UNK     1       5.634   4.338  14.327  0.00  0.00    +0.000 C 
ATOM     12  C   UNK     1       6.098   3.836  15.684  0.00  0.00    +0.000 C 
ENDBRANCH  10  12
ENDBRANCH   9  10
ENDBRANCH   1   9
TORSDOF 6
ENDMDL
