MODEL 1
REMARK VINA RESULT:      -8.6      0.000      0.000
REMARK  Name = 
REMARK  3 active torsions:
REMARK  status: ('A' for Active; 'I' for Inactive)
REMARK    1  A    between atoms: C_2  and  C_3
REMARK    2  A    between atoms: C_3  and  N_4
REMARK    3  A    between atoms: C_5  and  C_7
REMARK                            x       y       z     vdW  Elec       q    Type
REMARK                         _______ _______ _______ _____ _____    ______ ____
ROOT
ATOM      1  C   UNL     1       5.780   5.394  16.620  0.00  0.00    +0.000 A 
ATOM      2  N   UNL     1       5.702   6.761  16.522  0.00  0.00    +0.000 N 
ATOM      3  N   UNL     1       4.731   7.311  17.279  0.00  0.00    +0.000 NA
ATOM      4  C   UNL     1       4.080   6.253  17.779  0.00  0.00    +0.000 A 
ATOM      5  C   UNL     1       4.643   5.043  17.325  0.00  0.00    +0.000 A 
ATOM      6  C   UNL     1       4.094   3.755  17.662  0.00  0.00    +0.000 C 
ATOM      7  O   UNL     1       4.418   2.709  17.114  0.00  0.00    +0.000 OA
ATOM      8  C   UNL     1       3.102   3.760  18.767  0.00  0.00    +0.000 A 
ATOM      9  C   UNL     1       2.755   2.533  19.351  0.00  0.00    +0.000 A 
ATOM     10  C   UNL     1       1.762   2.485  20.326  0.00  0.00    +0.000 A 
ATOM     11  C   UNL     1       1.117   3.655  20.720  0.00  0.00    +0.000 A 
ATOM     12  C   UNL     1       1.499   4.890  20.184  0.00  0.00    +0.000 A 
ATOM     13  C   UNL     1       2.510   4.955  19.216  0.00  0.00    +0.000 A 
ATOM     14  C   UNL     1       2.949   6.295  18.705  0.00  0.00    +0.000 C 
ATOM     15  O   UNL     1       2.405   7.319  19.099  0.00  0.00    +0.000 OA
ATOM     16  H   UNL     1       6.333   7.372  16.013  0.00  0.00    +0.000 HD
ENDROOT
BRANCH   1  18
ATOM     17  N   UNL     1       6.734   4.099  14.793  0.00  0.00    +0.000 N 
ATOM     18  C   UNL     1       6.869   4.657  16.037  0.00  0.00    +0.000 C 
ATOM     19  O   UNL     1       7.901   4.435  16.673  0.00  0.00    +0.000 OA
ATOM     20  H   UNL     1       7.565   3.617  14.487  0.00  0.00    +0.000 HD
BRANCH  17  21
ATOM     21  C   UNL     1       5.600   4.105  13.896  0.00  0.00    +0.000 C 
BRANCH  21  23
ATOM     22  C   UNL     1       5.037   3.027  11.732  0.00  0.00    +0.000 C 
ATOM     23  C   UNL     1       5.957   3.503  12.583  0.00  0.00    +0.000 C 
ENDBRANCH  21  23
ENDBRANCH  17  21
ENDBRANCH   1  18
TORSDOF 3
ENDMDL
MODEL 2
REMARK VINA RESULT:      -8.0      2.853      5.375
REMARK  Name = 
REMARK  3 active torsions:
REMARK  status: ('A' for Active; 'I' for Inactive)
REMARK    1  A    between atoms: C_2  and  C_3
REMARK    2  A    between atoms: C_3  and  N_4
REMARK    3  A    between atoms: C_5  and  C_7
REMARK                            x       y       z     vdW  Elec       q    Type
REMARK                         _______ _______ _______ _____ _____    ______ ____
ROOT
ATOM      1  C   UNL     1       2.460   4.828  20.620  0.00  0.00    +0.000 A 
ATOM      2  N   UNL     1       1.812   6.016  20.846  0.00  0.00    +0.000 N 
ATOM      3  N   UNL     1       2.063   6.963  19.919  0.00  0.00    +0.000 NA
ATOM      4  C   UNL     1       3.004   6.408  19.145  0.00  0.00    +0.000 A 
ATOM      5  C   UNL     1       3.344   5.116  19.597  0.00  0.00    +0.000 A 
ATOM      6  C   UNL     1       4.376   4.323  18.980  0.00  0.00    +0.000 C 
ATOM      7  O   UNL     1       4.843   3.306  19.475  0.00  0.00    +0.000 OA
ATOM      8  C   UNL     1       4.836   4.806  17.654  0.00  0.00    +0.000 A 
ATOM      9  C   UNL     1       5.604   3.939  16.864  0.00  0.00    +0.000 A 
ATOM     10  C   UNL     1       6.132   4.386  15.655  0.00  0.00    +0.000 A 
ATOM     11  C   UNL     1       5.896   5.692  15.233  0.00  0.00    +0.000 A 
ATOM     12  C   UNL     1       5.082   6.544  15.989  0.00  0.00    +0.000 A 
ATOM     13  C   UNL     1       4.529   6.101  17.197  0.00  0.00    +0.000 A 
ATOM     14  C   UNL     1       3.607   7.008  17.956  0.00  0.00    +0.000 C 
ATOM     15  O   UNL     1       3.369   8.138  17.546  0.00  0.00    +0.000 OA
ATOM     16  H   UNL     1       1.130   6.210  21.574  0.00  0.00    +0.000 HD
ENDROOT
BRANCH   1  18
ATOM     17  N   UNL     1       1.407   2.645  20.852  0.00  0.00    +0.000 N 
ATOM     18  C   UNL     1       2.166   3.650  21.393  0.00  0.00    +0.000 C 
ATOM     19  O   UNL     1       2.506   3.560  22.573  0.00  0.00    +0.000 OA
ATOM     20  H   UNL     1       1.277   1.869  21.481  0.00  0.00    +0.000 HD
BRANCH  17  21
ATOM     21  C   UNL     1       0.789   2.553  19.548  0.00  0.00    +0.000 C 
BRANCH  21  23
ATOM     22  C   UNL     1       2.181   2.300  17.509  0.00  0.00    +0.000 C 
ATOM     23  C   UNL     1       1.636   1.767  18.611  0.00  0.00    +0.000 C 
ENDBRANCH  21  23
ENDBRANCH  17  21
ENDBRANCH   1  18
TORSDOF 3
ENDMDL
MODEL 3
REMARK VINA RESULT:      -7.8      2.115      3.238
REMARK  Name = 
REMARK  3 active torsions:
REMARK  status: ('A' for Active; 'I' for Inactive)
REMARK    1  A    between atoms: C_2  and  C_3
REMARK    2  A    between atoms: C_3  and  N_4
REMARK    3  A    between atoms: C_5  and  C_7
REMARK                            x       y       z     vdW  Elec       q    Type
REMARK                         _______ _______ _______ _____ _____    ______ ____
ROOT
ATOM      1  C   UNL     1       4.856   6.391  16.924  0.00  0.00    +0.000 A 
ATOM      2  N   UNL     1       4.263   7.629  16.925  0.00  0.00    +0.000 N 
ATOM      3  N   UNL     1       3.339   7.794  17.894  0.00  0.00    +0.000 NA
ATOM      4  C   UNL     1       3.242   6.580  18.450  0.00  0.00    +0.000 A 
ATOM      5  C   UNL     1       4.102   5.657  17.820  0.00  0.00    +0.000 A 
ATOM      6  C   UNL     1       4.147   4.264  18.183  0.00  0.00    +0.000 C 
ATOM      7  O   UNL     1       4.710   3.403  17.520  0.00  0.00    +0.000 OA
ATOM      8  C   UNL     1       3.477   3.922  19.464  0.00  0.00    +0.000 A 
ATOM      9  C   UNL     1       3.735   2.666  20.031  0.00  0.00    +0.000 A 
ATOM     10  C   UNL     1       3.057   2.271  21.181  0.00  0.00    +0.000 A 
ATOM     11  C   UNL     1       2.125   3.126  21.767  0.00  0.00    +0.000 A 
ATOM     12  C   UNL     1       1.906   4.403  21.239  0.00  0.00    +0.000 A 
ATOM     13  C   UNL     1       2.596   4.820  20.094  0.00  0.00    +0.000 A 
ATOM     14  C   UNL     1       2.395   6.217  19.586  0.00  0.00    +0.000 C 
ATOM     15  O   UNL     1       1.609   6.974  20.142  0.00  0.00    +0.000 OA
ATOM     16  H   UNL     1       4.505   8.421  16.337  0.00  0.00    +0.000 HD
ENDROOT
BRANCH   1  18
ATOM     17  N   UNL     1       7.257   6.401  16.523  0.00  0.00    +0.000 N 
ATOM     18  C   UNL     1       5.992   6.100  16.090  0.00  0.00    +0.000 C 
ATOM     19  O   UNL     1       5.849   5.666  14.946  0.00  0.00    +0.000 OA
ATOM     20  H   UNL     1       7.970   6.143  15.859  0.00  0.00    +0.000 HD
BRANCH  17  21
ATOM     21  C   UNL     1       7.689   7.019  17.756  0.00  0.00    +0.000 C 
BRANCH  21  23
ATOM     22  C   UNL     1       8.567   9.250  18.400  0.00  0.00    +0.000 C 
ATOM     23  C   UNL     1       7.799   8.495  17.603  0.00  0.00    +0.000 C 
ENDBRANCH  21  23
ENDBRANCH  17  21
ENDBRANCH   1  18
TORSDOF 3
ENDMDL
MODEL 4
REMARK VINA RESULT:      -7.6      2.950      4.463
REMARK  Name = 
REMARK  3 active torsions:
REMARK  status: ('A' for Active; 'I' for Inactive)
REMARK    1  A    between atoms: C_2  and  C_3
REMARK    2  A    between atoms: C_3  and  N_4
REMARK    3  A    between atoms: C_5  and  C_7
REMARK                            x       y       z     vdW  Elec       q    Type
REMARK                         _______ _______ _______ _____ _____    ______ ____
ROOT
ATOM      1  C   UNL     1       4.403   5.355  18.301  0.00  0.00    +0.000 A 
ATOM      2  N   UNL     1       4.766   5.831  17.065  0.00  0.00    +0.000 N 
ATOM      3  N   UNL     1       4.200   7.012  16.744  0.00  0.00    +0.000 NA
ATOM      4  C   UNL     1       3.345   7.238  17.750  0.00  0.00    +0.000 A 
ATOM      5  C   UNL     1       3.375   6.191  18.694  0.00  0.00    +0.000 A 
ATOM      6  C   UNL     1       2.506   6.154  19.842  0.00  0.00    +0.000 C 
ATOM      7  O   UNL     1       2.351   5.169  20.550  0.00  0.00    +0.000 OA
ATOM      8  C   UNL     1       1.807   7.429  20.147  0.00  0.00    +0.000 A 
ATOM      9  C   UNL     1       1.192   7.563  21.400  0.00  0.00    +0.000 A 
ATOM     10  C   UNL     1       0.449   8.705  21.690  0.00  0.00    +0.000 A 
ATOM     11  C   UNL     1       0.319   9.711  20.735  0.00  0.00    +0.000 A 
ATOM     12  C   UNL     1       0.978   9.609  19.504  0.00  0.00    +0.000 A 
ATOM     13  C   UNL     1       1.745   8.474  19.208  0.00  0.00    +0.000 A 
ATOM     14  C   UNL     1       2.495   8.417  17.910  0.00  0.00    +0.000 C 
ATOM     15  O   UNL     1       2.410   9.333  17.102  0.00  0.00    +0.000 OA
ATOM     16  H   UNL     1       5.453   5.428  16.436  0.00  0.00    +0.000 HD
ENDROOT
BRANCH   1  18
ATOM     17  N   UNL     1       4.532   2.957  18.705  0.00  0.00    +0.000 N 
ATOM     18  C   UNL     1       5.051   4.213  18.889  0.00  0.00    +0.000 C 
ATOM     19  O   UNL     1       6.020   4.345  19.638  0.00  0.00    +0.000 OA
ATOM     20  H   UNL     1       5.076   2.238  19.155  0.00  0.00    +0.000 HD
BRANCH  17  21
ATOM     21  C   UNL     1       3.351   2.543  17.982  0.00  0.00    +0.000 C 
BRANCH  21  23
ATOM     22  C   UNL     1       1.003   2.449  18.780  0.00  0.00    +0.000 C 
ATOM     23  C   UNL     1       2.286   2.089  18.916  0.00  0.00    +0.000 C 
ENDBRANCH  21  23
ENDBRANCH  17  21
ENDBRANCH   1  18
TORSDOF 3
ENDMDL
MODEL 5
REMARK VINA RESULT:      -7.6      2.251      3.128
REMARK  Name = 
REMARK  3 active torsions:
REMARK  status: ('A' for Active; 'I' for Inactive)
REMARK    1  A    between atoms: C_2  and  C_3
REMARK    2  A    between atoms: C_3  and  N_4
REMARK    3  A    between atoms: C_5  and  C_7
REMARK                            x       y       z     vdW  Elec       q    Type
REMARK                         _______ _______ _______ _____ _____    ______ ____
ROOT
ATOM      1  C   UNL     1       4.520   6.560  17.017  0.00  0.00    +0.000 A 
ATOM      2  N   UNL     1       3.863   7.757  17.158  0.00  0.00    +0.000 N 
ATOM      3  N   UNL     1       3.014   7.797  18.205  0.00  0.00    +0.000 NA
ATOM      4  C   UNL     1       3.028   6.542  18.672  0.00  0.00    +0.000 A 
ATOM      5  C   UNL     1       3.883   5.720  17.910  0.00  0.00    +0.000 A 
ATOM      6  C   UNL     1       4.033   4.310  18.163  0.00  0.00    +0.000 C 
ATOM      7  O   UNL     1       4.586   3.534  17.395  0.00  0.00    +0.000 OA
ATOM      8  C   UNL     1       3.489   3.838  19.461  0.00  0.00    +0.000 A 
ATOM      9  C   UNL     1       3.860   2.562  19.909  0.00  0.00    +0.000 A 
ATOM     10  C   UNL     1       3.299   2.046  21.076  0.00  0.00    +0.000 A 
ATOM     11  C   UNL     1       2.372   2.800  21.794  0.00  0.00    +0.000 A 
ATOM     12  C   UNL     1       2.043   4.096  21.383  0.00  0.00    +0.000 A 
ATOM     13  C   UNL     1       2.614   4.634  20.223  0.00  0.00    +0.000 A 
ATOM     14  C   UNL     1       2.297   6.049  19.839  0.00  0.00    +0.000 C 
ATOM     15  O   UNL     1       1.518   6.715  20.510  0.00  0.00    +0.000 OA
ATOM     16  H   UNL     1       4.013   8.602  16.615  0.00  0.00    +0.000 HD
ENDROOT
BRANCH   1  18
ATOM     17  N   UNL     1       6.887   6.684  16.455  0.00  0.00    +0.000 N 
ATOM     18  C   UNL     1       5.600   6.399  16.079  0.00  0.00    +0.000 C 
ATOM     19  O   UNL     1       5.384   6.093  14.905  0.00  0.00    +0.000 OA
ATOM     20  H   UNL     1       7.556   6.524  15.719  0.00  0.00    +0.000 HD
BRANCH  17  21
ATOM     21  C   UNL     1       7.393   7.171  17.719  0.00  0.00    +0.000 C 
BRANCH  21  23
ATOM     22  C   UNL     1       7.145   5.537  19.572  0.00  0.00    +0.000 C 
ATOM     23  C   UNL     1       7.873   6.047  18.569  0.00  0.00    +0.000 C 
ENDBRANCH  21  23
ENDBRANCH  17  21
ENDBRANCH   1  18
TORSDOF 3
ENDMDL
MODEL 6
REMARK VINA RESULT:      -7.6      1.598      2.698
REMARK  Name = 
REMARK  3 active torsions:
REMARK  status: ('A' for Active; 'I' for Inactive)
REMARK    1  A    between atoms: C_2  and  C_3
REMARK    2  A    between atoms: C_3  and  N_4
REMARK    3  A    between atoms: C_5  and  C_7
REMARK                            x       y       z     vdW  Elec       q    Type
REMARK                         _______ _______ _______ _____ _____    ______ ____
ROOT
ATOM      1  C   UNL     1       5.205   5.807  16.398  0.00  0.00    +0.000 A 
ATOM      2  N   UNL     1       4.999   7.164  16.393  0.00  0.00    +0.000 N 
ATOM      3  N   UNL     1       4.108   7.587  17.314  0.00  0.00    +0.000 NA
ATOM      4  C   UNL     1       3.630   6.451  17.837  0.00  0.00    +0.000 A 
ATOM      5  C   UNL     1       4.220   5.320  17.236  0.00  0.00    +0.000 A 
ATOM      6  C   UNL     1       3.837   3.973  17.572  0.00  0.00    +0.000 C 
ATOM      7  O   UNL     1       4.163   2.988  16.922  0.00  0.00    +0.000 OA
ATOM      8  C   UNL     1       3.024   3.836  18.806  0.00  0.00    +0.000 A 
ATOM      9  C   UNL     1       2.872   2.556  19.360  0.00  0.00    +0.000 A 
ATOM     10  C   UNL     1       2.042   2.371  20.463  0.00  0.00    +0.000 A 
ATOM     11  C   UNL     1       1.366   3.457  21.015  0.00  0.00    +0.000 A 
ATOM     12  C   UNL     1       1.560   4.745  20.503  0.00  0.00    +0.000 A 
ATOM     13  C   UNL     1       2.406   4.948  19.406  0.00  0.00    +0.000 A 
ATOM     14  C   UNL     1       2.650   6.345  18.917  0.00  0.00    +0.000 C 
ATOM     15  O   UNL     1       2.086   7.296  19.446  0.00  0.00    +0.000 OA
ATOM     16  H   UNL     1       5.494   7.854  15.836  0.00  0.00    +0.000 HD
ENDROOT
BRANCH   1  18
ATOM     17  N   UNL     1       7.302   4.578  16.248  0.00  0.00    +0.000 N 
ATOM     18  C   UNL     1       6.255   5.202  15.621  0.00  0.00    +0.000 C 
ATOM     19  O   UNL     1       6.283   5.309  14.394  0.00  0.00    +0.000 OA
ATOM     20  H   UNL     1       7.968   4.184  15.603  0.00  0.00    +0.000 HD
BRANCH  17  21
ATOM     21  C   UNL     1       7.570   4.419  17.660  0.00  0.00    +0.000 C 
BRANCH  21  23
ATOM     22  C   UNL     1       7.722   5.890  19.653  0.00  0.00    +0.000 C 
ATOM     23  C   UNL     1       7.744   5.740  18.322  0.00  0.00    +0.000 C 
ENDBRANCH  21  23
ENDBRANCH  17  21
ENDBRANCH   1  18
TORSDOF 3
ENDMDL
MODEL 7
REMARK VINA RESULT:      -7.4      2.120      4.065
REMARK  Name = 
REMARK  3 active torsions:
REMARK  status: ('A' for Active; 'I' for Inactive)
REMARK    1  A    between atoms: C_2  and  C_3
REMARK    2  A    between atoms: C_3  and  N_4
REMARK    3  A    between atoms: C_5  and  C_7
REMARK                            x       y       z     vdW  Elec       q    Type
REMARK                         _______ _______ _______ _____ _____    ______ ____
ROOT
ATOM      1  C   UNL     1       5.398   5.205  16.454  0.00  0.00    +0.000 A 
ATOM      2  N   UNL     1       5.930   4.103  15.832  0.00  0.00    +0.000 N 
ATOM      3  N   UNL     1       5.385   2.934  16.227  0.00  0.00    +0.000 NA
ATOM      4  C   UNL     1       4.570   3.286  17.229  0.00  0.00    +0.000 A 
ATOM      5  C   UNL     1       4.613   4.676  17.461  0.00  0.00    +0.000 A 
ATOM      6  C   UNL     1       3.878   5.310  18.525  0.00  0.00    +0.000 C 
ATOM      7  O   UNL     1       4.062   6.463  18.891  0.00  0.00    +0.000 OA
ATOM      8  C   UNL     1       2.829   4.469  19.156  0.00  0.00    +0.000 A 
ATOM      9  C   UNL     1       1.880   5.099  19.975  0.00  0.00    +0.000 A 
ATOM     10  C   UNL     1       0.937   4.335  20.658  0.00  0.00    +0.000 A 
ATOM     11  C   UNL     1       0.937   2.948  20.525  0.00  0.00    +0.000 A 
ATOM     12  C   UNL     1       1.843   2.319  19.664  0.00  0.00    +0.000 A 
ATOM     13  C   UNL     1       2.785   3.077  18.956  0.00  0.00    +0.000 A 
ATOM     14  C   UNL     1       3.701   2.389  17.989  0.00  0.00    +0.000 C 
ATOM     15  O   UNL     1       3.654   1.173  17.846  0.00  0.00    +0.000 OA
ATOM     16  H   UNL     1       6.611   4.098  15.079  0.00  0.00    +0.000 HD
ENDROOT
BRANCH   1  18
ATOM     17  N   UNL     1       6.693   7.255  16.671  0.00  0.00    +0.000 N 
ATOM     18  C   UNL     1       5.718   6.541  16.025  0.00  0.00    +0.000 C 
ATOM     19  O   UNL     1       5.069   7.099  15.139  0.00  0.00    +0.000 OA
ATOM     20  H   UNL     1       6.835   8.171  16.275  0.00  0.00    +0.000 HD
BRANCH  17  21
ATOM     21  C   UNL     1       7.513   6.886  17.803  0.00  0.00    +0.000 C 
BRANCH  21  23
ATOM     22  C   UNL     1       8.118   9.293  17.821  0.00  0.00    +0.000 C 
ATOM     23  C   UNL     1       8.276   8.057  18.313  0.00  0.00    +0.000 C 
ENDBRANCH  21  23
ENDBRANCH  17  21
ENDBRANCH   1  18
TORSDOF 3
ENDMDL
MODEL 8
REMARK VINA RESULT:      -7.3      2.486      4.170
REMARK  Name = 
REMARK  3 active torsions:
REMARK  status: ('A' for Active; 'I' for Inactive)
REMARK    1  A    between atoms: C_2  and  C_3
REMARK    2  A    between atoms: C_3  and  N_4
REMARK    3  A    between atoms: C_5  and  C_7
REMARK                            x       y       z     vdW  Elec       q    Type
REMARK                         _______ _______ _______ _____ _____    ______ ____
ROOT
ATOM      1  C   UNL     1       4.687   4.113  17.654  0.00  0.00    +0.000 A 
ATOM      2  N   UNL     1       4.633   3.056  18.528  0.00  0.00    +0.000 N 
ATOM      3  N   UNL     1       3.838   3.269  19.597  0.00  0.00    +0.000 NA
ATOM      4  C   UNL     1       3.475   4.552  19.472  0.00  0.00    +0.000 A 
ATOM      5  C   UNL     1       4.050   5.139  18.327  0.00  0.00    +0.000 A 
ATOM      6  C   UNL     1       3.871   6.529  17.993  0.00  0.00    +0.000 C 
ATOM      7  O   UNL     1       4.526   7.117  17.143  0.00  0.00    +0.000 OA
ATOM      8  C   UNL     1       2.793   7.225  18.740  0.00  0.00    +0.000 A 
ATOM      9  C   UNL     1       2.359   8.471  18.266  0.00  0.00    +0.000 A 
ATOM     10  C   UNL     1       1.415   9.198  18.989  0.00  0.00    +0.000 A 
ATOM     11  C   UNL     1       0.905   8.684  20.180  0.00  0.00    +0.000 A 
ATOM     12  C   UNL     1       1.292   7.416  20.627  0.00  0.00    +0.000 A 
ATOM     13  C   UNL     1       2.225   6.666  19.899  0.00  0.00    +0.000 A 
ATOM     14  C   UNL     1       2.573   5.282  20.362  0.00  0.00    +0.000 C 
ATOM     15  O   UNL     1       2.077   4.826  21.385  0.00  0.00    +0.000 OA
ATOM     16  H   UNL     1       5.056   2.142  18.405  0.00  0.00    +0.000 HD
ENDROOT
BRANCH   1  18
ATOM     17  N   UNL     1       6.684   4.157  16.261  0.00  0.00    +0.000 N 
ATOM     18  C   UNL     1       5.327   3.998  16.370  0.00  0.00    +0.000 C 
ATOM     19  O   UNL     1       4.667   3.848  15.340  0.00  0.00    +0.000 OA
ATOM     20  H   UNL     1       7.018   4.044  15.317  0.00  0.00    +0.000 HD
BRANCH  17  21
ATOM     21  C   UNL     1       7.664   4.458  17.281  0.00  0.00    +0.000 C 
BRANCH  21  23
ATOM     22  C   UNL     1       7.853   6.309  18.924  0.00  0.00    +0.000 C 
ATOM     23  C   UNL     1       7.598   5.891  17.676  0.00  0.00    +0.000 C 
ENDBRANCH  21  23
ENDBRANCH  17  21
ENDBRANCH   1  18
TORSDOF 3
ENDMDL
MODEL 9
REMARK VINA RESULT:      -7.3      2.009      2.814
REMARK  Name = 
REMARK  3 active torsions:
REMARK  status: ('A' for Active; 'I' for Inactive)
REMARK    1  A    between atoms: C_2  and  C_3
REMARK    2  A    between atoms: C_3  and  N_4
REMARK    3  A    between atoms: C_5  and  C_7
REMARK                            x       y       z     vdW  Elec       q    Type
REMARK                         _______ _______ _______ _____ _____    ______ ____
ROOT
ATOM      1  C   UNL     1       6.082   5.728  17.821  0.00  0.00    +0.000 A 
ATOM      2  N   UNL     1       7.117   5.197  18.548  0.00  0.00    +0.000 N 
ATOM      3  N   UNL     1       6.763   4.149  19.321  0.00  0.00    +0.000 NA
ATOM      4  C   UNL     1       5.432   4.090  19.185  0.00  0.00    +0.000 A 
ATOM      5  C   UNL     1       4.957   5.107  18.331  0.00  0.00    +0.000 A 
ATOM      6  C   UNL     1       3.556   5.306  18.064  0.00  0.00    +0.000 C 
ATOM      7  O   UNL     1       3.100   6.300  17.514  0.00  0.00    +0.000 OA
ATOM      8  C   UNL     1       2.669   4.190  18.478  0.00  0.00    +0.000 A 
ATOM      9  C   UNL     1       1.355   4.172  17.987  0.00  0.00    +0.000 A 
ATOM     10  C   UNL     1       0.464   3.195  18.424  0.00  0.00    +0.000 A 
ATOM     11  C   UNL     1       0.880   2.238  19.347  0.00  0.00    +0.000 A 
ATOM     12  C   UNL     1       2.205   2.215  19.796  0.00  0.00    +0.000 A 
ATOM     13  C   UNL     1       3.116   3.181  19.349  0.00  0.00    +0.000 A 
ATOM     14  C   UNL     1       4.547   3.097  19.793  0.00  0.00    +0.000 C 
ATOM     15  O   UNL     1       4.908   2.218  20.566  0.00  0.00    +0.000 OA
ATOM     16  H   UNL     1       8.095   5.461  18.498  0.00  0.00    +0.000 HD
ENDROOT
BRANCH   1  18
ATOM     17  N   UNL     1       5.995   6.449  15.496  0.00  0.00    +0.000 N 
ATOM     18  C   UNL     1       6.307   6.721  16.803  0.00  0.00    +0.000 C 
ATOM     19  O   UNL     1       6.864   7.788  17.065  0.00  0.00    +0.000 OA
ATOM     20  H   UNL     1       6.187   7.222  14.878  0.00  0.00    +0.000 HD
BRANCH  17  21
ATOM     21  C   UNL     1       5.450   5.246  14.908  0.00  0.00    +0.000 C 
BRANCH  21  23
ATOM     22  C   UNL     1       6.208   3.693  13.126  0.00  0.00    +0.000 C 
ATOM     23  C   UNL     1       6.495   4.501  14.156  0.00  0.00    +0.000 C 
ENDBRANCH  21  23
ENDBRANCH  17  21
ENDBRANCH   1  18
TORSDOF 3
ENDMDL
