MODEL 1
REMARK VINA RESULT:      -6.6      0.000      0.000
REMARK  Name = 
REMARK  7 active torsions:
REMARK  status: ('A' for Active; 'I' for Inactive)
REMARK    1  A    between atoms: C_1  and  O_2
REMARK    2  A    between atoms: O_2  and  C_3
REMARK    3  A    between atoms: C_9  and  C_10
REMARK    4  A    between atoms: C_10  and  C_11
REMARK    5  A    between atoms: C_10  and  N_14
REMARK    6  A    between atoms: C_11  and  O_13
REMARK    7  A    between atoms: N_18  and  C_19
REMARK                            x       y       z     vdW  Elec       q    Type
REMARK                         _______ _______ _______ _____ _____    ______ ____
ROOT
ATOM      1  C   UNL     1       5.547   3.923  16.793  0.00  0.00    +0.000 C 
ENDROOT
BRANCH   1   8
ATOM      2  C   UNL     1       7.208   5.252  15.196  0.00  0.00    +0.000 A 
ATOM      3  C   UNL     1       7.795   5.355  13.920  0.00  0.00    +0.000 A 
ATOM      4  C   UNL     1       7.300   4.628  12.841  0.00  0.00    +0.000 A 
ATOM      5  C   UNL     1       6.193   3.834  13.030  0.00  0.00    +0.000 A 
ATOM      6  F   UNL     1       5.651   3.173  11.993  0.00  0.00    +0.000 F 
ATOM      7  C   UNL     1       5.641   3.703  14.286  0.00  0.00    +0.000 A 
ATOM      8  C   UNL     1       6.185   4.307  15.435  0.00  0.00    +0.000 A 
BRANCH   2  10
ATOM      9  C   UNL     1       6.848   7.287  16.450  0.00  0.00    +0.000 C 
ATOM     10  O   UNL     1       7.598   6.097  16.208  0.00  0.00    +0.000 OA
ENDBRANCH   2  10
ENDBRANCH   1   8
BRANCH   1  11
ATOM     11  N   UNL     1       4.225   4.532  17.075  0.00  0.00    +0.000 NA
ATOM     12  C   UNL     1       4.183   5.959  17.324  0.00  0.00    +0.000 C 
ATOM     13  C   UNL     1       3.175   6.630  18.284  0.00  0.00    +0.000 C 
ATOM     14  C   UNL     1       1.773   6.081  18.530  0.00  0.00    +0.000 C 
ATOM     15  N   UNL     1       1.599   4.640  18.697  0.00  0.00    +0.000 NA
ATOM     16  C   UNL     1       1.681   4.006  17.387  0.00  0.00    +0.000 C 
ATOM     17  C   UNL     1       3.071   3.670  16.851  0.00  0.00    +0.000 C 
BRANCH  15  18
ATOM     18  C   UNL     1       2.393   4.022  19.777  0.00  0.00    +0.000 C 
ATOM     19  C   UNL     1       2.006   4.575  21.153  0.00  0.00    +0.000 C 
ATOM     20  C   UNL     1       2.240   3.468  22.174  0.00  0.00    +0.000 C 
ATOM     21  C   UNL     1       2.577   2.201  21.406  0.00  0.00    +0.000 C 
ATOM     22  C   UNL     1       2.274   2.492  19.940  0.00  0.00    +0.000 C 
ENDBRANCH  15  18
ENDBRANCH   1  11
BRANCH   1  23
ATOM     23  C   UNL     1       6.511   4.252  18.030  0.00  0.00    +0.000 C 
ATOM     24  O   UNL     1       6.159   4.670  19.122  0.00  0.00    +0.000 OA
BRANCH  23  25
ATOM     25  O   UNL     1       7.808   3.938  17.815  0.00  0.00    +0.000 OA
ATOM     26  H   UNL     1       8.190   4.494  17.125  0.00  0.00    +0.000 HD
ENDBRANCH  23  25
ENDBRANCH   1  23
TORSDOF 6
ENDMDL
MODEL 2
REMARK VINA RESULT:      -6.5      8.823     11.538
REMARK  Name = 
REMARK  7 active torsions:
REMARK  status: ('A' for Active; 'I' for Inactive)
REMARK    1  A    between atoms: C_1  and  O_2
REMARK    2  A    between atoms: O_2  and  C_3
REMARK    3  A    between atoms: C_9  and  C_10
REMARK    4  A    between atoms: C_10  and  C_11
REMARK    5  A    between atoms: C_10  and  N_14
REMARK    6  A    between atoms: C_11  and  O_13
REMARK    7  A    between atoms: N_18  and  C_19
REMARK                            x       y       z     vdW  Elec       q    Type
REMARK                         _______ _______ _______ _____ _____    ______ ____
ROOT
ATOM      1  C   UNL     1       0.961  12.351  18.792  0.00  0.00    +0.000 C 
ENDROOT
BRANCH   1   8
ATOM      2  C   UNL     1       0.990   9.837  19.662  0.00  0.00    +0.000 A 
ATOM      3  C   UNL     1       0.725   8.948  20.722  0.00  0.00    +0.000 A 
ATOM      4  C   UNL     1      -0.031   9.346  21.822  0.00  0.00    +0.000 A 
ATOM      5  C   UNL     1      -0.554  10.618  21.839  0.00  0.00    +0.000 A 
ATOM      6  F   UNL     1      -1.342  11.009  22.855  0.00  0.00    +0.000 F 
ATOM      7  C   UNL     1      -0.263  11.501  20.822  0.00  0.00    +0.000 A 
ATOM      8  C   UNL     1       0.606  11.194  19.758  0.00  0.00    +0.000 A 
BRANCH   2  10
ATOM      9  C   UNL     1       2.241   8.114  18.518  0.00  0.00    +0.000 C 
ATOM     10  O   UNL     1       1.590   9.384  18.511  0.00  0.00    +0.000 OA
ENDBRANCH   2  10
ENDBRANCH   1   8
BRANCH   1  11
ATOM     11  N   UNL     1       2.071  13.232  19.229  0.00  0.00    +0.000 NA
ATOM     12  C   UNL     1       2.224  13.463  20.651  0.00  0.00    +0.000 C 
ATOM     13  C   UNL     1       2.751  14.786  21.251  0.00  0.00    +0.000 C 
ATOM     14  C   UNL     1       3.756  15.680  20.531  0.00  0.00    +0.000 C 
ATOM     15  N   UNL     1       3.590  15.919  19.099  0.00  0.00    +0.000 NA
ATOM     16  C   UNL     1       4.036  14.735  18.376  0.00  0.00    +0.000 C 
ATOM     17  C   UNL     1       3.033  13.596  18.196  0.00  0.00    +0.000 C 
BRANCH  15  18
ATOM     18  C   UNL     1       2.288  16.484  18.693  0.00  0.00    +0.000 C 
ATOM     19  C   UNL     1       1.826  17.588  19.653  0.00  0.00    +0.000 C 
ATOM     20  C   UNL     1       0.992  18.576  18.846  0.00  0.00    +0.000 C 
ATOM     21  C   UNL     1       1.109  18.186  17.383  0.00  0.00    +0.000 C 
ATOM     22  C   UNL     1       2.222  17.146  17.301  0.00  0.00    +0.000 C 
ENDBRANCH  15  18
ENDBRANCH   1  11
BRANCH   1  23
ATOM     23  C   UNL     1      -0.303  13.280  18.468  0.00  0.00    +0.000 C 
ATOM     24  O   UNL     1      -0.502  14.400  18.914  0.00  0.00    +0.000 OA
BRANCH  23  25
ATOM     25  O   UNL     1      -1.146  12.761  17.549  0.00  0.00    +0.000 OA
ATOM     26  H   UNL     1      -1.313  13.390  16.836  0.00  0.00    +0.000 HD
ENDBRANCH  23  25
ENDBRANCH   1  23
TORSDOF 6
ENDMDL
MODEL 3
REMARK VINA RESULT:      -6.5      8.975     11.718
REMARK  Name = 
REMARK  7 active torsions:
REMARK  status: ('A' for Active; 'I' for Inactive)
REMARK    1  A    between atoms: C_1  and  O_2
REMARK    2  A    between atoms: O_2  and  C_3
REMARK    3  A    between atoms: C_9  and  C_10
REMARK    4  A    between atoms: C_10  and  C_11
REMARK    5  A    between atoms: C_10  and  N_14
REMARK    6  A    between atoms: C_11  and  O_13
REMARK    7  A    between atoms: N_18  and  C_19
REMARK                            x       y       z     vdW  Elec       q    Type
REMARK                         _______ _______ _______ _____ _____    ______ ____
ROOT
ATOM      1  C   UNL     1       0.031  12.266  19.248  0.00  0.00    +0.000 C 
ENDROOT
BRANCH   1   8
ATOM      2  C   UNL     1       0.671   9.728  19.731  0.00  0.00    +0.000 A 
ATOM      3  C   UNL     1       0.902   8.729  20.696  0.00  0.00    +0.000 A 
ATOM      4  C   UNL     1       0.533   8.915  22.025  0.00  0.00    +0.000 A 
ATOM      5  C   UNL     1      -0.105  10.082  22.378  0.00  0.00    +0.000 A 
ATOM      6  F   UNL     1      -0.533  10.262  23.640  0.00  0.00    +0.000 F 
ATOM      7  C   UNL     1      -0.297  11.076  21.444  0.00  0.00    +0.000 A 
ATOM      8  C   UNL     1       0.179  10.995  20.121  0.00  0.00    +0.000 A 
BRANCH   2  10
ATOM      9  C   UNL     1       2.204   9.157  17.952  0.00  0.00    +0.000 C 
ATOM     10  O   UNL     1       0.885   9.468  18.398  0.00  0.00    +0.000 OA
ENDBRANCH   2  10
ENDBRANCH   1   8
BRANCH   1  11
ATOM     11  N   UNL     1       0.036  13.553  19.985  0.00  0.00    +0.000 NA
ATOM     12  C   UNL     1      -1.243  14.189  20.231  0.00  0.00    +0.000 C 
ATOM     13  C   UNL     1      -1.439  15.721  20.288  0.00  0.00    +0.000 C 
ATOM     14  C   UNL     1      -0.351  16.679  20.765  0.00  0.00    +0.000 C 
ATOM     15  N   UNL     1       1.025  16.459  20.324  0.00  0.00    +0.000 NA
ATOM     16  C   UNL     1       1.586  15.350  21.086  0.00  0.00    +0.000 C 
ATOM     17  C   UNL     1       1.309  13.935  20.582  0.00  0.00    +0.000 C 
BRANCH  15  18
ATOM     18  C   UNL     1       1.229  16.422  18.863  0.00  0.00    +0.000 C 
ATOM     19  C   UNL     1       0.642  17.661  18.177  0.00  0.00    +0.000 C 
ATOM     20  C   UNL     1       1.484  17.941  16.938  0.00  0.00    +0.000 C 
ATOM     21  C   UNL     1       2.681  17.007  16.978  0.00  0.00    +0.000 C 
ATOM     22  C   UNL     1       2.689  16.375  18.367  0.00  0.00    +0.000 C 
ENDBRANCH  15  18
ENDBRANCH   1  11
BRANCH   1  23
ATOM     23  C   UNL     1      -1.288  12.226  18.340  0.00  0.00    +0.000 C 
ATOM     24  O   UNL     1      -2.373  11.773  18.671  0.00  0.00    +0.000 OA
BRANCH  23  25
ATOM     25  O   UNL     1      -1.151  12.841  17.145  0.00  0.00    +0.000 OA
ATOM     26  H   UNL     1      -0.536  13.584  17.205  0.00  0.00    +0.000 HD
ENDBRANCH  23  25
ENDBRANCH   1  23
TORSDOF 6
ENDMDL
MODEL 4
REMARK VINA RESULT:      -6.5      8.011     10.658
REMARK  Name = 
REMARK  7 active torsions:
REMARK  status: ('A' for Active; 'I' for Inactive)
REMARK    1  A    between atoms: C_1  and  O_2
REMARK    2  A    between atoms: O_2  and  C_3
REMARK    3  A    between atoms: C_9  and  C_10
REMARK    4  A    between atoms: C_10  and  C_11
REMARK    5  A    between atoms: C_10  and  N_14
REMARK    6  A    between atoms: C_11  and  O_13
REMARK    7  A    between atoms: N_18  and  C_19
REMARK                            x       y       z     vdW  Elec       q    Type
REMARK                         _______ _______ _______ _____ _____    ______ ____
ROOT
ATOM      1  C   UNL     1       0.461  11.746  18.644  0.00  0.00    +0.000 C 
ENDROOT
BRANCH   1   8
ATOM      2  C   UNL     1       0.918   9.674  20.250  0.00  0.00    +0.000 A 
ATOM      3  C   UNL     1       1.371   8.347  20.369  0.00  0.00    +0.000 A 
ATOM      4  C   UNL     1       2.071   7.731  19.335  0.00  0.00    +0.000 A 
ATOM      5  C   UNL     1       2.353   8.458  18.202  0.00  0.00    +0.000 A 
ATOM      6  F   UNL     1       3.084   7.913  17.215  0.00  0.00    +0.000 F 
ATOM      7  C   UNL     1       1.877   9.744  18.068  0.00  0.00    +0.000 A 
ATOM      8  C   UNL     1       1.049  10.365  19.023  0.00  0.00    +0.000 A 
BRANCH   2  10
ATOM      9  C   UNL     1      -0.291   9.562  22.339  0.00  0.00    +0.000 C 
ATOM     10  O   UNL     1       0.378  10.323  21.335  0.00  0.00    +0.000 OA
ENDBRANCH   2  10
ENDBRANCH   1   8
BRANCH   1  11
ATOM     11  N   UNL     1       0.691  12.833  19.627  0.00  0.00    +0.000 NA
ATOM     12  C   UNL     1      -0.469  13.392  20.292  0.00  0.00    +0.000 C 
ATOM     13  C   UNL     1      -0.573  14.870  20.730  0.00  0.00    +0.000 C 
ATOM     14  C   UNL     1       0.638  15.698  21.148  0.00  0.00    +0.000 C 
ATOM     15  N   UNL     1       1.870  15.589  20.370  0.00  0.00    +0.000 NA
ATOM     16  C   UNL     1       2.532  14.338  20.719  0.00  0.00    +0.000 C 
ATOM     17  C   UNL     1       2.082  13.073  19.989  0.00  0.00    +0.000 C 
BRANCH  15  18
ATOM     18  C   UNL     1       1.744  15.885  18.929  0.00  0.00    +0.000 C 
ATOM     19  C   UNL     1       0.946  17.171  18.683  0.00  0.00    +0.000 C 
ATOM     20  C   UNL     1       1.472  17.796  17.396  0.00  0.00    +0.000 C 
ATOM     21  C   UNL     1       2.700  17.009  16.973  0.00  0.00    +0.000 C 
ATOM     22  C   UNL     1       3.056  16.101  18.146  0.00  0.00    +0.000 C 
ENDBRANCH  15  18
ENDBRANCH   1  11
BRANCH   1  23
ATOM     23  C   UNL     1      -1.113  11.675  18.353  0.00  0.00    +0.000 C 
ATOM     24  O   UNL     1      -1.936  11.057  19.010  0.00  0.00    +0.000 OA
BRANCH  23  25
ATOM     25  O   UNL     1      -1.518  12.456  17.328  0.00  0.00    +0.000 OA
ATOM     26  H   UNL     1      -0.783  12.664  16.738  0.00  0.00    +0.000 HD
ENDBRANCH  23  25
ENDBRANCH   1  23
TORSDOF 6
ENDMDL
MODEL 5
REMARK VINA RESULT:      -6.3      9.703     12.218
REMARK  Name = 
REMARK  7 active torsions:
REMARK  status: ('A' for Active; 'I' for Inactive)
REMARK    1  A    between atoms: C_1  and  O_2
REMARK    2  A    between atoms: O_2  and  C_3
REMARK    3  A    between atoms: C_9  and  C_10
REMARK    4  A    between atoms: C_10  and  C_11
REMARK    5  A    between atoms: C_10  and  N_14
REMARK    6  A    between atoms: C_11  and  O_13
REMARK    7  A    between atoms: N_18  and  C_19
REMARK                            x       y       z     vdW  Elec       q    Type
REMARK                         _______ _______ _______ _____ _____    ______ ____
ROOT
ATOM      1  C   UNL     1      -2.684  11.891  17.904  0.00  0.00    +0.000 C 
ENDROOT
BRANCH   1   8
ATOM      2  C   UNL     1      -0.325  12.546  18.947  0.00  0.00    +0.000 A 
ATOM      3  C   UNL     1       0.684  12.237  19.878  0.00  0.00    +0.000 A 
ATOM      4  C   UNL     1       0.719  10.999  20.514  0.00  0.00    +0.000 A 
ATOM      5  C   UNL     1      -0.230  10.059  20.187  0.00  0.00    +0.000 A 
ATOM      6  F   UNL     1      -0.183   8.833  20.734  0.00  0.00    +0.000 F 
ATOM      7  C   UNL     1      -1.241  10.374  19.305  0.00  0.00    +0.000 A 
ATOM      8  C   UNL     1      -1.401  11.654  18.739  0.00  0.00    +0.000 A 
BRANCH   2  10
ATOM      9  C   UNL     1      -0.135  14.955  18.876  0.00  0.00    +0.000 C 
ATOM     10  O   UNL     1      -0.253  13.702  18.205  0.00  0.00    +0.000 OA
ENDBRANCH   2  10
ENDBRANCH   1   8
BRANCH   1  11
ATOM     11  N   UNL     1      -3.964  11.713  18.632  0.00  0.00    +0.000 NA
ATOM     12  C   UNL     1      -4.849  10.657  18.183  0.00  0.00    +0.000 C 
ATOM     13  C   UNL     1      -6.390  10.743  18.259  0.00  0.00    +0.000 C 
ATOM     14  C   UNL     1      -7.124  11.525  19.344  0.00  0.00    +0.000 C 
ATOM     15  N   UNL     1      -6.623  12.844  19.724  0.00  0.00    +0.000 NA
ATOM     16  C   UNL     1      -5.446  12.669  20.565  0.00  0.00    +0.000 C 
ATOM     17  C   UNL     1      -4.101  12.474  19.867  0.00  0.00    +0.000 C 
BRANCH  15  18
ATOM     18  C   UNL     1      -6.506  13.823  18.626  0.00  0.00    +0.000 C 
ATOM     19  C   UNL     1      -7.743  13.810  17.721  0.00  0.00    +0.000 C 
ATOM     20  C   UNL     1      -7.916  15.218  17.161  0.00  0.00    +0.000 C 
ATOM     21  C   UNL     1      -6.917  16.117  17.869  0.00  0.00    +0.000 C 
ATOM     22  C   UNL     1      -6.351  15.305  19.029  0.00  0.00    +0.000 C 
ENDBRANCH  15  18
ENDBRANCH   1  11
BRANCH   1  23
ATOM     23  C   UNL     1      -2.733  10.970  16.594  0.00  0.00    +0.000 C 
ATOM     24  O   UNL     1      -2.494   9.773  16.550  0.00  0.00    +0.000 OA
BRANCH  23  25
ATOM     25  O   UNL     1      -3.168  11.612  15.488  0.00  0.00    +0.000 OA
ATOM     26  H   UNL     1      -3.054  11.064  14.701  0.00  0.00    +0.000 HD
ENDBRANCH  23  25
ENDBRANCH   1  23
TORSDOF 6
ENDMDL
MODEL 6
REMARK VINA RESULT:      -6.3      7.428      9.762
REMARK  Name = 
REMARK  7 active torsions:
REMARK  status: ('A' for Active; 'I' for Inactive)
REMARK    1  A    between atoms: C_1  and  O_2
REMARK    2  A    between atoms: O_2  and  C_3
REMARK    3  A    between atoms: C_9  and  C_10
REMARK    4  A    between atoms: C_10  and  C_11
REMARK    5  A    between atoms: C_10  and  N_14
REMARK    6  A    between atoms: C_11  and  O_13
REMARK    7  A    between atoms: N_18  and  C_19
REMARK                            x       y       z     vdW  Elec       q    Type
REMARK                         _______ _______ _______ _____ _____    ______ ____
ROOT
ATOM      1  C   UNL     1       0.287  10.822  18.344  0.00  0.00    +0.000 C 
ENDROOT
BRANCH   1   8
ATOM      2  C   UNL     1       0.565   9.354  20.545  0.00  0.00    +0.000 A 
ATOM      3  C   UNL     1       1.023   8.152  21.115  0.00  0.00    +0.000 A 
ATOM      4  C   UNL     1       1.867   7.297  20.410  0.00  0.00    +0.000 A 
ATOM      5  C   UNL     1       2.283   7.669  19.153  0.00  0.00    +0.000 A 
ATOM      6  F   UNL     1       3.150   6.898  18.474  0.00  0.00    +0.000 F 
ATOM      7  C   UNL     1       1.805   8.826  18.578  0.00  0.00    +0.000 A 
ATOM      8  C   UNL     1       0.846   9.654  19.193  0.00  0.00    +0.000 A 
BRANCH   2  10
ATOM      9  C   UNL     1      -0.270  10.033  22.709  0.00  0.00    +0.000 C 
ATOM     10  O   UNL     1      -0.127  10.265  21.309  0.00  0.00    +0.000 OA
ENDBRANCH   2  10
ENDBRANCH   1   8
BRANCH   1  11
ATOM     11  N   UNL     1       0.538  12.182  18.881  0.00  0.00    +0.000 NA
ATOM     12  C   UNL     1       1.799  12.414  19.557  0.00  0.00    +0.000 C 
ATOM     13  C   UNL     1       1.967  13.397  20.738  0.00  0.00    +0.000 C 
ATOM     14  C   UNL     1       1.127  14.661  20.890  0.00  0.00    +0.000 C 
ATOM     15  N   UNL     1      -0.308  14.591  20.619  0.00  0.00    +0.000 NA
ATOM     16  C   UNL     1      -0.507  14.563  19.175  0.00  0.00    +0.000 C 
ATOM     17  C   UNL     1      -0.415  13.208  18.476  0.00  0.00    +0.000 C 
BRANCH  15  18
ATOM     18  C   UNL     1      -1.058  13.593  21.405  0.00  0.00    +0.000 C 
ATOM     19  C   UNL     1      -0.941  13.854  22.912  0.00  0.00    +0.000 C 
ATOM     20  C   UNL     1      -2.227  13.359  23.563  0.00  0.00    +0.000 C 
ATOM     21  C   UNL     1      -3.190  12.984  22.450  0.00  0.00    +0.000 C 
ATOM     22  C   UNL     1      -2.579  13.513  21.155  0.00  0.00    +0.000 C 
ENDBRANCH  15  18
ENDBRANCH   1  11
BRANCH   1  23
ATOM     23  C   UNL     1      -1.288  10.683  18.083  0.00  0.00    +0.000 C 
ATOM     24  O   UNL     1      -2.167  10.813  18.920  0.00  0.00    +0.000 OA
BRANCH  23  25
ATOM     25  O   UNL     1      -1.615  10.488  16.786  0.00  0.00    +0.000 OA
ATOM     26  H   UNL     1      -2.558  10.305  16.690  0.00  0.00    +0.000 HD
ENDBRANCH  23  25
ENDBRANCH   1  23
TORSDOF 6
ENDMDL
MODEL 7
REMARK VINA RESULT:      -6.3      9.467     11.926
REMARK  Name = 
REMARK  7 active torsions:
REMARK  status: ('A' for Active; 'I' for Inactive)
REMARK    1  A    between atoms: C_1  and  O_2
REMARK    2  A    between atoms: O_2  and  C_3
REMARK    3  A    between atoms: C_9  and  C_10
REMARK    4  A    between atoms: C_10  and  C_11
REMARK    5  A    between atoms: C_10  and  N_14
REMARK    6  A    between atoms: C_11  and  O_13
REMARK    7  A    between atoms: N_18  and  C_19
REMARK                            x       y       z     vdW  Elec       q    Type
REMARK                         _______ _______ _______ _____ _____    ______ ____
ROOT
ATOM      1  C   UNL     1      -0.775  12.603  20.258  0.00  0.00    +0.000 C 
ENDROOT
BRANCH   1   8
ATOM      2  C   UNL     1      -0.944  10.722  18.384  0.00  0.00    +0.000 A 
ATOM      3  C   UNL     1      -1.778   9.886  17.619  0.00  0.00    +0.000 A 
ATOM      4  C   UNL     1      -3.153  10.100  17.562  0.00  0.00    +0.000 A 
ATOM      5  C   UNL     1      -3.683  11.174  18.237  0.00  0.00    +0.000 A 
ATOM      6  F   UNL     1      -4.997  11.446  18.147  0.00  0.00    +0.000 F 
ATOM      7  C   UNL     1      -2.874  11.970  19.018  0.00  0.00    +0.000 A 
ATOM      8  C   UNL     1      -1.503  11.716  19.218  0.00  0.00    +0.000 A 
BRANCH   2  10
ATOM      9  C   UNL     1       1.082   9.580  19.042  0.00  0.00    +0.000 C 
ATOM     10  O   UNL     1       0.424  10.604  18.298  0.00  0.00    +0.000 OA
ENDBRANCH   2  10
ENDBRANCH   1   8
BRANCH   1  11
ATOM     11  N   UNL     1      -1.608  13.081  21.388  0.00  0.00    +0.000 NA
ATOM     12  C   UNL     1      -1.783  12.189  22.517  0.00  0.00    +0.000 C 
ATOM     13  C   UNL     1      -3.068  12.135  23.373  0.00  0.00    +0.000 C 
ATOM     14  C   UNL     1      -3.959  13.351  23.609  0.00  0.00    +0.000 C 
ATOM     15  N   UNL     1      -4.254  14.237  22.485  0.00  0.00    +0.000 NA
ATOM     16  C   UNL     1      -3.086  15.070  22.230  0.00  0.00    +0.000 C 
ATOM     17  C   UNL     1      -1.983  14.489  21.347  0.00  0.00    +0.000 C 
BRANCH  15  18
ATOM     18  C   UNL     1      -4.871  13.593  21.309  0.00  0.00    +0.000 C 
ATOM     19  C   UNL     1      -6.049  12.696  21.707  0.00  0.00    +0.000 C 
ATOM     20  C   UNL     1      -7.038  12.698  20.547  0.00  0.00    +0.000 C 
ATOM     21  C   UNL     1      -6.564  13.734  19.543  0.00  0.00    +0.000 C 
ATOM     22  C   UNL     1      -5.459  14.529  20.233  0.00  0.00    +0.000 C 
ENDBRANCH  15  18
ENDBRANCH   1  11
BRANCH   1  23
ATOM     23  C   UNL     1      -0.084  13.882  19.585  0.00  0.00    +0.000 C 
ATOM     24  O   UNL     1       0.910  14.460  19.997  0.00  0.00    +0.000 OA
BRANCH  23  25
ATOM     25  O   UNL     1      -0.644  14.257  18.414  0.00  0.00    +0.000 OA
ATOM     26  H   UNL     1      -1.193  15.043  18.528  0.00  0.00    +0.000 HD
ENDBRANCH  23  25
ENDBRANCH   1  23
TORSDOF 6
ENDMDL
MODEL 8
REMARK VINA RESULT:      -6.3      3.871      5.961
REMARK  Name = 
REMARK  7 active torsions:
REMARK  status: ('A' for Active; 'I' for Inactive)
REMARK    1  A    between atoms: C_1  and  O_2
REMARK    2  A    between atoms: O_2  and  C_3
REMARK    3  A    between atoms: C_9  and  C_10
REMARK    4  A    between atoms: C_10  and  C_11
REMARK    5  A    between atoms: C_10  and  N_14
REMARK    6  A    between atoms: C_11  and  O_13
REMARK    7  A    between atoms: N_18  and  C_19
REMARK                            x       y       z     vdW  Elec       q    Type
REMARK                         _______ _______ _______ _____ _____    ______ ____
ROOT
ATOM      1  C   UNL     1       1.979   6.242  18.754  0.00  0.00    +0.000 C 
ENDROOT
BRANCH   1   8
ATOM      2  C   UNL     1       3.410   4.560  17.270  0.00  0.00    +0.000 A 
ATOM      3  C   UNL     1       4.517   4.380  16.420  0.00  0.00    +0.000 A 
ATOM      4  C   UNL     1       5.505   5.355  16.311  0.00  0.00    +0.000 A 
ATOM      5  C   UNL     1       5.405   6.488  17.085  0.00  0.00    +0.000 A 
ATOM      6  F   UNL     1       6.377   7.415  17.052  0.00  0.00    +0.000 F 
ATOM      7  C   UNL     1       4.303   6.682  17.889  0.00  0.00    +0.000 A 
ATOM      8  C   UNL     1       3.212   5.793  17.931  0.00  0.00    +0.000 A 
BRANCH   2  10
ATOM      9  C   UNL     1       3.013   2.323  18.095  0.00  0.00    +0.000 C 
ATOM     10  O   UNL     1       2.533   3.525  17.495  0.00  0.00    +0.000 OA
ENDBRANCH   2  10
ENDBRANCH   1   8
BRANCH   1  11
ATOM     11  N   UNL     1       1.936   7.682  19.110  0.00  0.00    +0.000 NA
ATOM     12  C   UNL     1       1.828   8.022  20.515  0.00  0.00    +0.000 C 
ATOM     13  C   UNL     1       1.080   9.268  21.038  0.00  0.00    +0.000 C 
ATOM     14  C   UNL     1       0.976  10.566  20.243  0.00  0.00    +0.000 C 
ATOM     15  N   UNL     1       0.699  10.496  18.810  0.00  0.00    +0.000 NA
ATOM     16  C   UNL     1       1.921  10.103  18.119  0.00  0.00    +0.000 C 
ATOM     17  C   UNL     1       2.232   8.610  18.027  0.00  0.00    +0.000 C 
BRANCH  15  18
ATOM     18  C   UNL     1      -0.530   9.772  18.431  0.00  0.00    +0.000 C 
ATOM     19  C   UNL     1      -1.779  10.420  19.041  0.00  0.00    +0.000 C 
ATOM     20  C   UNL     1      -2.939  10.165  18.086  0.00  0.00    +0.000 C 
ATOM     21  C   UNL     1      -2.366   9.544  16.824  0.00  0.00    +0.000 C 
ATOM     22  C   UNL     1      -0.850   9.686  16.924  0.00  0.00    +0.000 C 
ENDBRANCH  15  18
ENDBRANCH   1  11
BRANCH   1  23
ATOM     23  C   UNL     1       1.812   5.398  20.105  0.00  0.00    +0.000 C 
ATOM     24  O   UNL     1       0.786   4.866  20.496  0.00  0.00    +0.000 OA
BRANCH  23  25
ATOM     25  O   UNL     1       2.965   5.223  20.789  0.00  0.00    +0.000 OA
ATOM     26  H   UNL     1       2.804   5.198  21.740  0.00  0.00    +0.000 HD
ENDBRANCH  23  25
ENDBRANCH   1  23
TORSDOF 6
ENDMDL
MODEL 9
REMARK VINA RESULT:      -6.3      9.521     12.122
REMARK  Name = 
REMARK  7 active torsions:
REMARK  status: ('A' for Active; 'I' for Inactive)
REMARK    1  A    between atoms: C_1  and  O_2
REMARK    2  A    between atoms: O_2  and  C_3
REMARK    3  A    between atoms: C_9  and  C_10
REMARK    4  A    between atoms: C_10  and  C_11
REMARK    5  A    between atoms: C_10  and  N_14
REMARK    6  A    between atoms: C_11  and  O_13
REMARK    7  A    between atoms: N_18  and  C_19
REMARK                            x       y       z     vdW  Elec       q    Type
REMARK                         _______ _______ _______ _____ _____    ______ ____
ROOT
ATOM      1  C   UNL     1      -1.778  12.618  22.598  0.00  0.00    +0.000 C 
ENDROOT
BRANCH   1   8
ATOM      2  C   UNL     1      -0.511  10.671  21.301  0.00  0.00    +0.000 A 
ATOM      3  C   UNL     1      -0.371   9.942  20.105  0.00  0.00    +0.000 A 
ATOM      4  C   UNL     1      -0.952  10.386  18.920  0.00  0.00    +0.000 A 
ATOM      5  C   UNL     1      -1.636  11.579  18.926  0.00  0.00    +0.000 A 
ATOM      6  F   UNL     1      -2.151  12.067  17.784  0.00  0.00    +0.000 F 
ATOM      7  C   UNL     1      -1.807  12.274  20.103  0.00  0.00    +0.000 A 
ATOM      8  C   UNL     1      -1.358  11.801  21.351  0.00  0.00    +0.000 A 
BRANCH   2  10
ATOM      9  C   UNL     1       1.084   9.191  22.354  0.00  0.00    +0.000 C 
ATOM     10  O   UNL     1       0.204  10.313  22.419  0.00  0.00    +0.000 OA
ENDBRANCH   2  10
ENDBRANCH   1   8
BRANCH   1  11
ATOM     11  N   UNL     1      -3.132  13.222  22.542  0.00  0.00    +0.000 NA
ATOM     12  C   UNL     1      -4.031  12.957  23.647  0.00  0.00    +0.000 C 
ATOM     13  C   UNL     1      -5.564  12.840  23.492  0.00  0.00    +0.000 C 
ATOM     14  C   UNL     1      -6.351  13.609  22.435  0.00  0.00    +0.000 C 
ATOM     15  N   UNL     1      -5.810  13.701  21.080  0.00  0.00    +0.000 NA
ATOM     16  C   UNL     1      -4.733  14.682  21.076  0.00  0.00    +0.000 C 
ATOM     17  C   UNL     1      -3.341  14.206  21.488  0.00  0.00    +0.000 C 
BRANCH  15  18
ATOM     18  C   UNL     1      -5.528  12.413  20.417  0.00  0.00    +0.000 C 
ATOM     19  C   UNL     1      -6.713  11.446  20.529  0.00  0.00    +0.000 C 
ATOM     20  C   UNL     1      -6.695  10.556  19.292  0.00  0.00    +0.000 C 
ATOM     21  C   UNL     1      -5.636  11.101  18.350  0.00  0.00    +0.000 C 
ATOM     22  C   UNL     1      -5.225  12.462  18.905  0.00  0.00    +0.000 C 
ENDBRANCH  15  18
ENDBRANCH   1  11
BRANCH   1  23
ATOM     23  C   UNL     1      -0.735  13.785  22.939  0.00  0.00    +0.000 C 
ATOM     24  O   UNL     1      -0.820  14.574  23.866  0.00  0.00    +0.000 OA
BRANCH  23  25
ATOM     25  O   UNL     1       0.359  13.792  22.146  0.00  0.00    +0.000 OA
ATOM     26  H   UNL     1       1.142  13.504  22.631  0.00  0.00    +0.000 HD
ENDBRANCH  23  25
ENDBRANCH   1  23
TORSDOF 6
ENDMDL
