MODEL 1
REMARK VINA RESULT:      -8.4      0.000      0.000
REMARK  Name = 
REMARK  3 active torsions:
REMARK  status: ('A' for Active; 'I' for Inactive)
REMARK    1  A    between atoms: C_7  and  C_8
REMARK    2  A    between atoms: C_16  and  N_17
REMARK    3  A    between atoms: N_17  and  C_18
REMARK                            x       y       z     vdW  Elec       q    Type
REMARK                         _______ _______ _______ _____ _____    ______ ____
ROOT
ATOM      1  C   UNL     1       3.806   6.644  17.778  0.00  0.00    +0.000 A 
ATOM      2  N   UNL     1       3.316   7.802  17.241  0.00  0.00    +0.000 NA
ATOM      3  C   UNL     1       2.522   8.297  18.156  0.00  0.00    +0.000 A 
ATOM      4  C   UNL     1       1.822   9.534  18.157  0.00  0.00    +0.000 A 
ATOM      5  C   UNL     1       1.059   9.874  19.214  0.00  0.00    +0.000 A 
ATOM      6  C   UNL     1       0.929   8.986  20.353  0.00  0.00    +0.000 A 
ATOM      7  C   UNL     1       1.595   7.820  20.359  0.00  0.00    +0.000 A 
ATOM      8  N   UNL     1       2.400   7.460  19.271  0.00  0.00    +0.000 N 
ATOM      9  C   UNL     1       3.245   6.368  19.033  0.00  0.00    +0.000 A 
ENDROOT
BRANCH   1  16
ATOM     10 CL   UNL     1       6.802   7.687  17.529  0.00  0.00    +0.000 Cl
ATOM     11  C   UNL     1       6.141   6.205  16.918  0.00  0.00    +0.000 A 
ATOM     12  C   UNL     1       7.047   5.356  16.264  0.00  0.00    +0.000 A 
ATOM     13  C   UNL     1       6.631   4.120  15.768  0.00  0.00    +0.000 A 
ATOM     14  C   UNL     1       5.300   3.746  15.886  0.00  0.00    +0.000 A 
ATOM     15  C   UNL     1       4.391   4.605  16.504  0.00  0.00    +0.000 A 
ATOM     16  C   UNL     1       4.795   5.829  17.070  0.00  0.00    +0.000 A 
ENDBRANCH   1  16
BRANCH   9  17
ATOM     17  N   UNL     1       3.547   5.326  19.878  0.00  0.00    +0.000 N 
ATOM     18  H   UNL     1       4.542   5.145  20.005  0.00  0.00    +0.000 HD
BRANCH  17  19
ATOM     19  C   UNL     1       2.704   4.296  20.473  0.00  0.00    +0.000 C 
ATOM     20  C   UNL     1       1.343   4.149  19.783  0.00  0.00    +0.000 C 
ATOM     21  C   UNL     1       1.403   3.532  18.383  0.00  0.00    +0.000 C 
ATOM     22  C   UNL     1       2.212   2.241  18.325  0.00  0.00    +0.000 C 
ATOM     23  C   UNL     1       3.565   2.354  19.015  0.00  0.00    +0.000 C 
ATOM     24  C   UNL     1       3.452   2.946  20.422  0.00  0.00    +0.000 C 
ENDBRANCH  17  19
ENDBRANCH   9  17
TORSDOF 3
ENDMDL
MODEL 2
REMARK VINA RESULT:      -8.1      0.722      1.454
REMARK  Name = 
REMARK  3 active torsions:
REMARK  status: ('A' for Active; 'I' for Inactive)
REMARK    1  A    between atoms: C_7  and  C_8
REMARK    2  A    between atoms: C_16  and  N_17
REMARK    3  A    between atoms: N_17  and  C_18
REMARK                            x       y       z     vdW  Elec       q    Type
REMARK                         _______ _______ _______ _____ _____    ______ ____
ROOT
ATOM      1  C   UNL     1       3.979   6.418  17.660  0.00  0.00    +0.000 A 
ATOM      2  N   UNL     1       3.426   7.603  17.261  0.00  0.00    +0.000 NA
ATOM      3  C   UNL     1       2.645   7.967  18.246  0.00  0.00    +0.000 A 
ATOM      4  C   UNL     1       1.898   9.167  18.398  0.00  0.00    +0.000 A 
ATOM      5  C   UNL     1       1.158   9.364  19.506  0.00  0.00    +0.000 A 
ATOM      6  C   UNL     1       1.102   8.358  20.550  0.00  0.00    +0.000 A 
ATOM      7  C   UNL     1       1.813   7.228  20.414  0.00  0.00    +0.000 A 
ATOM      8  N   UNL     1       2.594   7.015  19.271  0.00  0.00    +0.000 N 
ATOM      9  C   UNL     1       3.472   5.991  18.896  0.00  0.00    +0.000 A 
ENDROOT
BRANCH   1  16
ATOM     10 CL   UNL     1       6.951   7.546  17.520  0.00  0.00    +0.000 Cl
ATOM     11  C   UNL     1       6.311   6.143  16.727  0.00  0.00    +0.000 A 
ATOM     12  C   UNL     1       7.225   5.405  15.958  0.00  0.00    +0.000 A 
ATOM     13  C   UNL     1       6.825   4.236  15.309  0.00  0.00    +0.000 A 
ATOM     14  C   UNL     1       5.503   3.823  15.390  0.00  0.00    +0.000 A 
ATOM     15  C   UNL     1       4.586   4.575  16.124  0.00  0.00    +0.000 A 
ATOM     16  C   UNL     1       4.974   5.722  16.842  0.00  0.00    +0.000 A 
ENDBRANCH   1  16
BRANCH   9  17
ATOM     17  N   UNL     1       3.843   4.880  19.617  0.00  0.00    +0.000 N 
ATOM     18  H   UNL     1       4.550   5.044  20.331  0.00  0.00    +0.000 HD
BRANCH  17  19
ATOM     19  C   UNL     1       3.557   3.465  19.416  0.00  0.00    +0.000 C 
ATOM     20  C   UNL     1       3.592   2.646  20.712  0.00  0.00    +0.000 C 
ATOM     21  C   UNL     1       2.428   2.921  21.668  0.00  0.00    +0.000 C 
ATOM     22  C   UNL     1       1.062   2.859  20.993  0.00  0.00    +0.000 C 
ATOM     23  C   UNL     1       1.003   3.653  19.695  0.00  0.00    +0.000 C 
ATOM     24  C   UNL     1       2.168   3.324  18.757  0.00  0.00    +0.000 C 
ENDBRANCH  17  19
ENDBRANCH   9  17
TORSDOF 3
ENDMDL
MODEL 3
REMARK VINA RESULT:      -7.8      1.638      5.101
REMARK  Name = 
REMARK  3 active torsions:
REMARK  status: ('A' for Active; 'I' for Inactive)
REMARK    1  A    between atoms: C_7  and  C_8
REMARK    2  A    between atoms: C_16  and  N_17
REMARK    3  A    between atoms: N_17  and  C_18
REMARK                            x       y       z     vdW  Elec       q    Type
REMARK                         _______ _______ _______ _____ _____    ______ ____
ROOT
ATOM      1  C   UNL     1       3.549   6.254  18.250  0.00  0.00    +0.000 A 
ATOM      2  N   UNL     1       4.751   6.796  17.892  0.00  0.00    +0.000 NA
ATOM      3  C   UNL     1       5.272   5.948  17.041  0.00  0.00    +0.000 A 
ATOM      4  C   UNL     1       6.472   6.060  16.288  0.00  0.00    +0.000 A 
ATOM      5  C   UNL     1       6.832   5.075  15.443  0.00  0.00    +0.000 A 
ATOM      6  C   UNL     1       6.013   3.886  15.297  0.00  0.00    +0.000 A 
ATOM      7  C   UNL     1       4.874   3.781  16.001  0.00  0.00    +0.000 A 
ATOM      8  N   UNL     1       4.484   4.803  16.874  0.00  0.00    +0.000 N 
ATOM      9  C   UNL     1       3.345   4.995  17.666  0.00  0.00    +0.000 A 
ENDROOT
BRANCH   1  16
ATOM     10 CL   UNL     1       2.435   9.119  17.426  0.00  0.00    +0.000 Cl
ATOM     11  C   UNL     1       2.082   8.217  18.865  0.00  0.00    +0.000 A 
ATOM     12  C   UNL     1       1.173   8.814  19.752  0.00  0.00    +0.000 A 
ATOM     13  C   UNL     1       0.787   8.158  20.921  0.00  0.00    +0.000 A 
ATOM     14  C   UNL     1       1.339   6.923  21.230  0.00  0.00    +0.000 A 
ATOM     15  C   UNL     1       2.270   6.345  20.367  0.00  0.00    +0.000 A 
ATOM     16  C   UNL     1       2.629   6.954  19.149  0.00  0.00    +0.000 A 
ENDBRANCH   1  16
BRANCH   9  17
ATOM     17  N   UNL     1       2.230   4.196  17.761  0.00  0.00    +0.000 N 
ATOM     18  H   UNL     1       1.339   4.688  17.721  0.00  0.00    +0.000 HD
BRANCH  17  19
ATOM     19  C   UNL     1       2.084   2.788  18.111  0.00  0.00    +0.000 C 
ATOM     20  C   UNL     1       3.220   2.260  18.995  0.00  0.00    +0.000 C 
ATOM     21  C   UNL     1       3.211   2.794  20.430  0.00  0.00    +0.000 C 
ATOM     22  C   UNL     1       1.854   2.670  21.114  0.00  0.00    +0.000 C 
ATOM     23  C   UNL     1       0.704   3.175  20.253  0.00  0.00    +0.000 C 
ATOM     24  C   UNL     1       0.736   2.591  18.838  0.00  0.00    +0.000 C 
ENDBRANCH  17  19
ENDBRANCH   9  17
TORSDOF 3
ENDMDL
MODEL 4
REMARK VINA RESULT:      -7.8      1.321      1.658
REMARK  Name = 
REMARK  3 active torsions:
REMARK  status: ('A' for Active; 'I' for Inactive)
REMARK    1  A    between atoms: C_7  and  C_8
REMARK    2  A    between atoms: C_16  and  N_17
REMARK    3  A    between atoms: N_17  and  C_18
REMARK                            x       y       z     vdW  Elec       q    Type
REMARK                         _______ _______ _______ _____ _____    ______ ____
ROOT
ATOM      1  C   UNL     1       3.619   6.614  18.161  0.00  0.00    +0.000 A 
ATOM      2  N   UNL     1       3.161   7.774  17.602  0.00  0.00    +0.000 NA
ATOM      3  C   UNL     1       2.319   8.269  18.474  0.00  0.00    +0.000 A 
ATOM      4  C   UNL     1       1.623   9.507  18.442  0.00  0.00    +0.000 A 
ATOM      5  C   UNL     1       0.804   9.846  19.458  0.00  0.00    +0.000 A 
ATOM      6  C   UNL     1       0.612   8.954  20.585  0.00  0.00    +0.000 A 
ATOM      7  C   UNL     1       1.275   7.787  20.623  0.00  0.00    +0.000 A 
ATOM      8  N   UNL     1       2.137   7.429  19.579  0.00  0.00    +0.000 N 
ATOM      9  C   UNL     1       2.991   6.336  19.383  0.00  0.00    +0.000 A 
ENDROOT
BRANCH   1  16
ATOM     10 CL   UNL     1       2.783   3.878  16.769  0.00  0.00    +0.000 Cl
ATOM     11  C   UNL     1       4.365   4.582  16.858  0.00  0.00    +0.000 A 
ATOM     12  C   UNL     1       5.388   3.870  16.212  0.00  0.00    +0.000 A 
ATOM     13  C   UNL     1       6.692   4.366  16.188  0.00  0.00    +0.000 A 
ATOM     14  C   UNL     1       6.988   5.552  16.844  0.00  0.00    +0.000 A 
ATOM     15  C   UNL     1       5.980   6.241  17.518  0.00  0.00    +0.000 A 
ATOM     16  C   UNL     1       4.643   5.799  17.505  0.00  0.00    +0.000 A 
ENDBRANCH   1  16
BRANCH   9  17
ATOM     17  N   UNL     1       3.245   5.290  20.239  0.00  0.00    +0.000 N 
ATOM     18  H   UNL     1       4.193   4.918  20.199  0.00  0.00    +0.000 HD
BRANCH  17  19
ATOM     19  C   UNL     1       2.352   4.478  21.057  0.00  0.00    +0.000 C 
ATOM     20  C   UNL     1       0.959   4.299  20.442  0.00  0.00    +0.000 C 
ATOM     21  C   UNL     1       0.921   3.400  19.204  0.00  0.00    +0.000 C 
ATOM     22  C   UNL     1       1.631   2.064  19.403  0.00  0.00    +0.000 C 
ATOM     23  C   UNL     1       3.013   2.212  20.025  0.00  0.00    +0.000 C 
ATOM     24  C   UNL     1       2.997   3.093  21.277  0.00  0.00    +0.000 C 
ENDBRANCH  17  19
ENDBRANCH   9  17
TORSDOF 3
ENDMDL
MODEL 5
REMARK VINA RESULT:      -7.6      1.680      5.156
REMARK  Name = 
REMARK  3 active torsions:
REMARK  status: ('A' for Active; 'I' for Inactive)
REMARK    1  A    between atoms: C_7  and  C_8
REMARK    2  A    between atoms: C_16  and  N_17
REMARK    3  A    between atoms: N_17  and  C_18
REMARK                            x       y       z     vdW  Elec       q    Type
REMARK                         _______ _______ _______ _____ _____    ______ ____
ROOT
ATOM      1  C   UNL     1       3.524   6.623  17.813  0.00  0.00    +0.000 A 
ATOM      2  N   UNL     1       4.727   7.073  17.346  0.00  0.00    +0.000 NA
ATOM      3  C   UNL     1       5.274   6.043  16.752  0.00  0.00    +0.000 A 
ATOM      4  C   UNL     1       6.487   5.976  16.014  0.00  0.00    +0.000 A 
ATOM      5  C   UNL     1       6.872   4.811  15.457  0.00  0.00    +0.000 A 
ATOM      6  C   UNL     1       6.070   3.613  15.610  0.00  0.00    +0.000 A 
ATOM      7  C   UNL     1       4.919   3.675  16.299  0.00  0.00    +0.000 A 
ATOM      8  N   UNL     1       4.502   4.882  16.873  0.00  0.00    +0.000 N 
ATOM      9  C   UNL     1       3.345   5.254  17.570  0.00  0.00    +0.000 A 
ENDROOT
BRANCH   1  16
ATOM     10 CL   UNL     1       2.676   6.020  20.820  0.00  0.00    +0.000 Cl
ATOM     11  C   UNL     1       2.155   7.333  19.815  0.00  0.00    +0.000 A 
ATOM     12  C   UNL     1       1.280   8.253  20.415  0.00  0.00    +0.000 A 
ATOM     13  C   UNL     1       0.831   9.369  19.709  0.00  0.00    +0.000 A 
ATOM     14  C   UNL     1       1.219   9.550  18.389  0.00  0.00    +0.000 A 
ATOM     15  C   UNL     1       2.060   8.618  17.781  0.00  0.00    +0.000 A 
ATOM     16  C   UNL     1       2.580   7.517  18.487  0.00  0.00    +0.000 A 
ENDBRANCH   1  16
BRANCH   9  17
ATOM     17  N   UNL     1       2.237   4.489  17.851  0.00  0.00    +0.000 N 
ATOM     18  H   UNL     1       1.408   5.012  18.126  0.00  0.00    +0.000 HD
BRANCH  17  19
ATOM     19  C   UNL     1       2.082   3.050  18.025  0.00  0.00    +0.000 C 
ATOM     20  C   UNL     1       3.204   2.412  18.853  0.00  0.00    +0.000 C 
ATOM     21  C   UNL     1       3.175   2.766  20.342  0.00  0.00    +0.000 C 
ATOM     22  C   UNL     1       1.808   2.565  20.986  0.00  0.00    +0.000 C 
ATOM     23  C   UNL     1       0.672   3.178  20.177  0.00  0.00    +0.000 C 
ATOM     24  C   UNL     1       0.723   2.771  18.702  0.00  0.00    +0.000 C 
ENDBRANCH  17  19
ENDBRANCH   9  17
TORSDOF 3
ENDMDL
MODEL 6
REMARK VINA RESULT:      -7.2      1.393      2.159
REMARK  Name = 
REMARK  3 active torsions:
REMARK  status: ('A' for Active; 'I' for Inactive)
REMARK    1  A    between atoms: C_7  and  C_8
REMARK    2  A    between atoms: C_16  and  N_17
REMARK    3  A    between atoms: N_17  and  C_18
REMARK                            x       y       z     vdW  Elec       q    Type
REMARK                         _______ _______ _______ _____ _____    ______ ____
ROOT
ATOM      1  C   UNL     1       3.938   6.399  17.853  0.00  0.00    +0.000 A 
ATOM      2  N   UNL     1       3.405   7.596  17.462  0.00  0.00    +0.000 NA
ATOM      3  C   UNL     1       2.583   7.938  18.422  0.00  0.00    +0.000 A 
ATOM      4  C   UNL     1       1.833   9.135  18.574  0.00  0.00    +0.000 A 
ATOM      5  C   UNL     1       1.049   9.307  19.655  0.00  0.00    +0.000 A 
ATOM      6  C   UNL     1       0.946   8.274  20.669  0.00  0.00    +0.000 A 
ATOM      7  C   UNL     1       1.660   7.145  20.534  0.00  0.00    +0.000 A 
ATOM      8  N   UNL     1       2.488   6.960  19.420  0.00  0.00    +0.000 N 
ATOM      9  C   UNL     1       3.378   5.942  19.055  0.00  0.00    +0.000 A 
ENDROOT
BRANCH   1  16
ATOM     10 CL   UNL     1       3.174   3.774  16.225  0.00  0.00    +0.000 Cl
ATOM     11  C   UNL     1       4.717   4.562  16.303  0.00  0.00    +0.000 A 
ATOM     12  C   UNL     1       5.737   3.986  15.530  0.00  0.00    +0.000 A 
ATOM     13  C   UNL     1       7.007   4.563  15.489  0.00  0.00    +0.000 A 
ATOM     14  C   UNL     1       7.275   5.691  16.251  0.00  0.00    +0.000 A 
ATOM     15  C   UNL     1       6.272   6.243  17.047  0.00  0.00    +0.000 A 
ATOM     16  C   UNL     1       4.964   5.721  17.059  0.00  0.00    +0.000 A 
ENDBRANCH   1  16
BRANCH   9  17
ATOM     17  N   UNL     1       3.716   4.813  19.762  0.00  0.00    +0.000 N 
ATOM     18  H   UNL     1       4.433   4.945  20.474  0.00  0.00    +0.000 HD
BRANCH  17  19
ATOM     19  C   UNL     1       3.382   3.409  19.549  0.00  0.00    +0.000 C 
ATOM     20  C   UNL     1       3.538   2.548  20.807  0.00  0.00    +0.000 C 
ATOM     21  C   UNL     1       2.490   2.809  21.892  0.00  0.00    +0.000 C 
ATOM     22  C   UNL     1       1.058   2.794  21.367  0.00  0.00    +0.000 C 
ATOM     23  C   UNL     1       0.876   3.632  20.108  0.00  0.00    +0.000 C 
ATOM     24  C   UNL     1       1.927   3.314  19.040  0.00  0.00    +0.000 C 
ENDBRANCH  17  19
ENDBRANCH   9  17
TORSDOF 3
ENDMDL
MODEL 7
REMARK VINA RESULT:      -7.1      1.964      5.737
REMARK  Name = 
REMARK  3 active torsions:
REMARK  status: ('A' for Active; 'I' for Inactive)
REMARK    1  A    between atoms: C_7  and  C_8
REMARK    2  A    between atoms: C_16  and  N_17
REMARK    3  A    between atoms: N_17  and  C_18
REMARK                            x       y       z     vdW  Elec       q    Type
REMARK                         _______ _______ _______ _____ _____    ______ ____
ROOT
ATOM      1  C   UNL     1       2.396   6.042  18.543  0.00  0.00    +0.000 A 
ATOM      2  N   UNL     1       1.400   5.106  18.505  0.00  0.00    +0.000 NA
ATOM      3  C   UNL     1       2.014   3.951  18.459  0.00  0.00    +0.000 A 
ATOM      4  C   UNL     1       1.461   2.642  18.497  0.00  0.00    +0.000 A 
ATOM      5  C   UNL     1       2.272   1.567  18.456  0.00  0.00    +0.000 A 
ATOM      6  C   UNL     1       3.710   1.725  18.360  0.00  0.00    +0.000 A 
ATOM      7  C   UNL     1       4.236   2.960  18.333  0.00  0.00    +0.000 A 
ATOM      8  N   UNL     1       3.405   4.085  18.386  0.00  0.00    +0.000 N 
ATOM      9  C   UNL     1       3.668   5.460  18.442  0.00  0.00    +0.000 A 
ENDROOT
BRANCH   1  16
ATOM     10 CL   UNL     1       1.220   7.161  21.279  0.00  0.00    +0.000 Cl
ATOM     11  C   UNL     1       1.588   8.054  19.839  0.00  0.00    +0.000 A 
ATOM     12  C   UNL     1       1.367   9.439  19.906  0.00  0.00    +0.000 A 
ATOM     13  C   UNL     1       1.667  10.258  18.817  0.00  0.00    +0.000 A 
ATOM     14  C   UNL     1       2.148   9.694  17.644  0.00  0.00    +0.000 A 
ATOM     15  C   UNL     1       2.333   8.314  17.564  0.00  0.00    +0.000 A 
ATOM     16  C   UNL     1       2.101   7.471  18.668  0.00  0.00    +0.000 A 
ENDBRANCH   1  16
BRANCH   9  17
ATOM     17  N   UNL     1       4.887   6.092  18.503  0.00  0.00    +0.000 N 
ATOM     18  H   UNL     1       5.225   6.293  19.443  0.00  0.00    +0.000 HD
BRANCH  17  19
ATOM     19  C   UNL     1       5.701   6.712  17.464  0.00  0.00    +0.000 C 
ATOM     20  C   UNL     1       7.175   6.292  17.512  0.00  0.00    +0.000 C 
ATOM     21  C   UNL     1       7.437   4.844  17.092  0.00  0.00    +0.000 C 
ATOM     22  C   UNL     1       6.783   4.469  15.767  0.00  0.00    +0.000 C 
ATOM     23  C   UNL     1       5.320   4.886  15.686  0.00  0.00    +0.000 C 
ATOM     24  C   UNL     1       5.110   6.350  16.084  0.00  0.00    +0.000 C 
ENDBRANCH  17  19
ENDBRANCH   9  17
TORSDOF 3
ENDMDL
MODEL 8
REMARK VINA RESULT:      -7.0      1.898      4.307
REMARK  Name = 
REMARK  3 active torsions:
REMARK  status: ('A' for Active; 'I' for Inactive)
REMARK    1  A    between atoms: C_7  and  C_8
REMARK    2  A    between atoms: C_16  and  N_17
REMARK    3  A    between atoms: N_17  and  C_18
REMARK                            x       y       z     vdW  Elec       q    Type
REMARK                         _______ _______ _______ _____ _____    ______ ____
ROOT
ATOM      1  C   UNL     1       2.900   5.600  19.117  0.00  0.00    +0.000 A 
ATOM      2  N   UNL     1       2.196   6.260  20.085  0.00  0.00    +0.000 NA
ATOM      3  C   UNL     1       2.013   7.468  19.616  0.00  0.00    +0.000 A 
ATOM      4  C   UNL     1       1.265   8.540  20.173  0.00  0.00    +0.000 A 
ATOM      5  C   UNL     1       1.182   9.715  19.520  0.00  0.00    +0.000 A 
ATOM      6  C   UNL     1       1.861   9.909  18.253  0.00  0.00    +0.000 A 
ATOM      7  C   UNL     1       2.562   8.896  17.719  0.00  0.00    +0.000 A 
ATOM      8  N   UNL     1       2.646   7.666  18.383  0.00  0.00    +0.000 N 
ATOM      9  C   UNL     1       3.233   6.441  18.044  0.00  0.00    +0.000 A 
ENDROOT
BRANCH   1  16
ATOM     10 CL   UNL     1       0.791   3.394  18.220  0.00  0.00    +0.000 Cl
ATOM     11  C   UNL     1       2.377   3.141  18.872  0.00  0.00    +0.000 A 
ATOM     12  C   UNL     1       2.785   1.802  18.986  0.00  0.00    +0.000 A 
ATOM     13  C   UNL     1       4.058   1.486  19.461  0.00  0.00    +0.000 A 
ATOM     14  C   UNL     1       4.913   2.502  19.863  0.00  0.00    +0.000 A 
ATOM     15  C   UNL     1       4.496   3.831  19.784  0.00  0.00    +0.000 A 
ATOM     16  C   UNL     1       3.242   4.183  19.249  0.00  0.00    +0.000 A 
ENDBRANCH   1  16
BRANCH   9  17
ATOM     17  N   UNL     1       3.883   6.100  16.882  0.00  0.00    +0.000 N 
ATOM     18  H   UNL     1       3.518   5.277  16.406  0.00  0.00    +0.000 HD
BRANCH  17  19
ATOM     19  C   UNL     1       5.131   6.583  16.302  0.00  0.00    +0.000 C 
ATOM     20  C   UNL     1       6.181   6.966  17.351  0.00  0.00    +0.000 C 
ATOM     21  C   UNL     1       6.791   5.781  18.104  0.00  0.00    +0.000 C 
ATOM     22  C   UNL     1       7.285   4.668  17.185  0.00  0.00    +0.000 C 
ATOM     23  C   UNL     1       6.265   4.276  16.124  0.00  0.00    +0.000 C 
ATOM     24  C   UNL     1       5.707   5.490  15.376  0.00  0.00    +0.000 C 
ENDBRANCH  17  19
ENDBRANCH   9  17
TORSDOF 3
ENDMDL
MODEL 9
REMARK VINA RESULT:      -7.0      2.007      5.693
REMARK  Name = 
REMARK  3 active torsions:
REMARK  status: ('A' for Active; 'I' for Inactive)
REMARK    1  A    between atoms: C_7  and  C_8
REMARK    2  A    between atoms: C_16  and  N_17
REMARK    3  A    between atoms: N_17  and  C_18
REMARK                            x       y       z     vdW  Elec       q    Type
REMARK                         _______ _______ _______ _____ _____    ______ ____
ROOT
ATOM      1  C   UNL     1       2.212   6.472  19.731  0.00  0.00    +0.000 A 
ATOM      2  N   UNL     1       1.365   5.689  20.465  0.00  0.00    +0.000 NA
ATOM      3  C   UNL     1       2.001   4.558  20.635  0.00  0.00    +0.000 A 
ATOM      4  C   UNL     1       1.619   3.424  21.401  0.00  0.00    +0.000 A 
ATOM      5  C   UNL     1       2.430   2.350  21.465  0.00  0.00    +0.000 A 
ATOM      6  C   UNL     1       3.691   2.328  20.747  0.00  0.00    +0.000 A 
ATOM      7  C   UNL     1       4.058   3.401  20.029  0.00  0.00    +0.000 A 
ATOM      8  N   UNL     1       3.229   4.527  19.964  0.00  0.00    +0.000 N 
ATOM      9  C   UNL     1       3.379   5.785  19.366  0.00  0.00    +0.000 A 
ENDROOT
BRANCH   1  16
ATOM     10 CL   UNL     1       1.086   8.406  21.992  0.00  0.00    +0.000 Cl
ATOM     11  C   UNL     1       1.381   8.783  20.326  0.00  0.00    +0.000 A 
ATOM     12  C   UNL     1       1.119  10.108  19.942  0.00  0.00    +0.000 A 
ATOM     13  C   UNL     1       1.359  10.529  18.634  0.00  0.00    +0.000 A 
ATOM     14  C   UNL     1       1.822   9.620  17.694  0.00  0.00    +0.000 A 
ATOM     15  C   UNL     1       2.048   8.294  18.064  0.00  0.00    +0.000 A 
ATOM     16  C   UNL     1       1.876   7.856  19.391  0.00  0.00    +0.000 A 
ENDBRANCH   1  16
BRANCH   9  17
ATOM     17  N   UNL     1       4.463   6.278  18.680  0.00  0.00    +0.000 N 
ATOM     18  H   UNL     1       5.153   6.765  19.250  0.00  0.00    +0.000 HD
BRANCH  17  19
ATOM     19  C   UNL     1       4.716   6.410  17.250  0.00  0.00    +0.000 C 
ATOM     20  C   UNL     1       6.087   7.017  16.927  0.00  0.00    +0.000 C 
ATOM     21  C   UNL     1       7.275   6.100  17.226  0.00  0.00    +0.000 C 
ATOM     22  C   UNL     1       7.123   4.700  16.642  0.00  0.00    +0.000 C 
ATOM     23  C   UNL     1       5.765   4.077  16.936  0.00  0.00    +0.000 C 
ATOM     24  C   UNL     1       4.606   5.017  16.592  0.00  0.00    +0.000 C 
ENDBRANCH  17  19
ENDBRANCH   9  17
TORSDOF 3
ENDMDL
