MODEL 1
REMARK VINA RESULT:      -9.0      0.000      0.000
REMARK  Name = 
REMARK  7 active torsions:
REMARK  status: ('A' for Active; 'I' for Inactive)
REMARK    1  A    between atoms: C_1  and  O_2
REMARK    2  A    between atoms: O_2  and  C_3
REMARK    3  A    between atoms: C_6  and  N_7
REMARK    4  A    between atoms: N_13  and  C_14
REMARK    5  A    between atoms: C_19  and  C_20
REMARK    6  A    between atoms: C_24  and  N_25
REMARK    7  A    between atoms: N_28  and  C_29
REMARK                            x       y       z     vdW  Elec       q    Type
REMARK                         _______ _______ _______ _____ _____    ______ ____
ROOT
ATOM      1  N   UNL     1       1.660   7.111  21.037  0.00  0.00    +0.000 N 
ATOM      2  C   UNL     1       1.458   8.263  20.313  0.00  0.00    +0.000 C 
ATOM      3  O   UNL     1       1.655   8.357  19.102  0.00  0.00    +0.000 OA
ATOM      4  N   UNL     1       0.957   9.333  21.020  0.00  0.00    +0.000 N 
ATOM      5  C   UNL     1       0.593  10.541  20.267  0.00  0.00    +0.000 C 
ATOM      6  C   UNL     1      -0.822  11.012  20.630  0.00  0.00    +0.000 C 
ATOM      7  N   UNL     1      -0.932  11.184  22.097  0.00  0.00    +0.000 N 
ATOM      8  C   UNL     1      -0.587   9.970  22.853  0.00  0.00    +0.000 C 
ATOM      9  C   UNL     1       0.831   9.488  22.477  0.00  0.00    +0.000 C 
ATOM     10  H   UNL     1       1.115   7.009  21.878  0.00  0.00    +0.000 HD
ENDROOT
BRANCH   7  11
ATOM     11  C   UNL     1      -1.314  12.402  22.631  0.00  0.00    +0.000 A 
ATOM     12  C   UNL     1      -2.522  12.468  23.368  0.00  0.00    +0.000 A 
ATOM     13  C   UNL     1      -3.047  13.657  23.880  0.00  0.00    +0.000 A 
ATOM     14  C   UNL     1      -2.354  14.838  23.704  0.00  0.00    +0.000 A 
ATOM     15  C   UNL     1      -1.143  14.817  23.023  0.00  0.00    +0.000 A 
ATOM     16  C   UNL     1      -0.617  13.624  22.472  0.00  0.00    +0.000 A 
ATOM     17  C   UNL     1       0.670  13.781  21.706  0.00  0.00    +0.000 C 
ENDBRANCH   7  11
BRANCH   1  21
ATOM     18  C   UNL     1       3.493   3.620  19.532  0.00  0.00    +0.000 A 
ATOM     19  C   UNL     1       2.428   3.525  20.439  0.00  0.00    +0.000 A 
ATOM     20  C   UNL     1       1.796   4.663  20.925  0.00  0.00    +0.000 A 
ATOM     21  C   UNL     1       2.221   5.921  20.524  0.00  0.00    +0.000 A 
ATOM     22  C   UNL     1       3.232   6.018  19.557  0.00  0.00    +0.000 A 
ATOM     23  C   UNL     1       3.893   4.884  19.028  0.00  0.00    +0.000 A 
BRANCH  23  24
ATOM     24  N   UNL     1       4.829   5.079  18.019  0.00  0.00    +0.000 N 
ATOM     25  C   UNL     1       4.458   4.996  16.600  0.00  0.00    +0.000 C 
ATOM     26  C   UNL     1       5.276   6.041  15.800  0.00  0.00    +0.000 C 
ATOM     27  N   UNL     1       6.748   5.977  15.966  0.00  0.00    +0.000 NA
ATOM     28  C   UNL     1       7.320   4.845  15.243  0.00  0.00    +0.000 C 
ATOM     29  C   UNL     1       7.077   5.927  17.410  0.00  0.00    +0.000 C 
ATOM     30  C   UNL     1       6.271   4.915  18.267  0.00  0.00    +0.000 C 
ENDBRANCH  23  24
BRANCH  18  32
ATOM     31  C   UNL     1       3.461   1.611  18.259  0.00  0.00    +0.000 C 
ATOM     32  O   UNL     1       4.177   2.499  19.114  0.00  0.00    +0.000 OA
ENDBRANCH  18  32
ENDBRANCH   1  21
TORSDOF 4
ENDMDL
MODEL 2
REMARK VINA RESULT:      -9.0      0.410      1.270
REMARK  Name = 
REMARK  7 active torsions:
REMARK  status: ('A' for Active; 'I' for Inactive)
REMARK    1  A    between atoms: C_1  and  O_2
REMARK    2  A    between atoms: O_2  and  C_3
REMARK    3  A    between atoms: C_6  and  N_7
REMARK    4  A    between atoms: N_13  and  C_14
REMARK    5  A    between atoms: C_19  and  C_20
REMARK    6  A    between atoms: C_24  and  N_25
REMARK    7  A    between atoms: N_28  and  C_29
REMARK                            x       y       z     vdW  Elec       q    Type
REMARK                         _______ _______ _______ _____ _____    ______ ____
ROOT
ATOM      1  N   UNL     1       1.644   7.311  20.942  0.00  0.00    +0.000 N 
ATOM      2  C   UNL     1       1.463   8.455  20.199  0.00  0.00    +0.000 C 
ATOM      3  O   UNL     1       1.622   8.515  18.980  0.00  0.00    +0.000 OA
ATOM      4  N   UNL     1       1.028   9.558  20.898  0.00  0.00    +0.000 N 
ATOM      5  C   UNL     1       0.686  10.763  20.131  0.00  0.00    +0.000 C 
ATOM      6  C   UNL     1      -0.696  11.298  20.531  0.00  0.00    +0.000 C 
ATOM      7  N   UNL     1      -0.749  11.505  21.996  0.00  0.00    +0.000 N 
ATOM      8  C   UNL     1      -0.426  10.294  22.767  0.00  0.00    +0.000 C 
ATOM      9  C   UNL     1       0.959   9.749  22.355  0.00  0.00    +0.000 C 
ATOM     10  H   UNL     1       1.125   7.248  21.802  0.00  0.00    +0.000 HD
ENDROOT
BRANCH   7  11
ATOM     11  C   UNL     1      -1.065  12.748  22.515  0.00  0.00    +0.000 A 
ATOM     12  C   UNL     1      -0.153  13.814  22.318  0.00  0.00    +0.000 A 
ATOM     13  C   UNL     1      -0.327  15.087  22.865  0.00  0.00    +0.000 A 
ATOM     14  C   UNL     1      -1.456  15.357  23.613  0.00  0.00    +0.000 A 
ATOM     15  C   UNL     1      -2.400  14.354  23.800  0.00  0.00    +0.000 A 
ATOM     16  C   UNL     1      -2.220  13.052  23.276  0.00  0.00    +0.000 A 
ATOM     17  C   UNL     1      -3.299  12.062  23.624  0.00  0.00    +0.000 C 
ENDBRANCH   7  11
BRANCH   1  21
ATOM     18  C   UNL     1       3.287   3.714  19.465  0.00  0.00    +0.000 A 
ATOM     19  C   UNL     1       2.195   3.684  20.344  0.00  0.00    +0.000 A 
ATOM     20  C   UNL     1       1.625   4.859  20.820  0.00  0.00    +0.000 A 
ATOM     21  C   UNL     1       2.140   6.089  20.436  0.00  0.00    +0.000 A 
ATOM     22  C   UNL     1       3.179   6.124  19.496  0.00  0.00    +0.000 A 
ATOM     23  C   UNL     1       3.779   4.951  18.978  0.00  0.00    +0.000 A 
BRANCH  23  24
ATOM     24  N   UNL     1       4.752   5.090  17.993  0.00  0.00    +0.000 N 
ATOM     25  C   UNL     1       4.413   5.029  16.565  0.00  0.00    +0.000 C 
ATOM     26  C   UNL     1       5.315   6.022  15.789  0.00  0.00    +0.000 C 
ATOM     27  N   UNL     1       6.775   5.869  15.994  0.00  0.00    +0.000 NA
ATOM     28  C   UNL     1       7.295   4.705  15.283  0.00  0.00    +0.000 C 
ATOM     29  C   UNL     1       7.062   5.799  17.445  0.00  0.00    +0.000 C 
ATOM     30  C   UNL     1       6.174   4.837  18.279  0.00  0.00    +0.000 C 
ENDBRANCH  23  24
BRANCH  18  32
ATOM     31  C   UNL     1       3.210   1.776  18.087  0.00  0.00    +0.000 C 
ATOM     32  O   UNL     1       3.907   2.552  19.058  0.00  0.00    +0.000 OA
ENDBRANCH  18  32
ENDBRANCH   1  21
TORSDOF 4
ENDMDL
MODEL 3
REMARK VINA RESULT:      -8.9      0.655      1.087
REMARK  Name = 
REMARK  7 active torsions:
REMARK  status: ('A' for Active; 'I' for Inactive)
REMARK    1  A    between atoms: C_1  and  O_2
REMARK    2  A    between atoms: O_2  and  C_3
REMARK    3  A    between atoms: C_6  and  N_7
REMARK    4  A    between atoms: N_13  and  C_14
REMARK    5  A    between atoms: C_19  and  C_20
REMARK    6  A    between atoms: C_24  and  N_25
REMARK    7  A    between atoms: N_28  and  C_29
REMARK                            x       y       z     vdW  Elec       q    Type
REMARK                         _______ _______ _______ _____ _____    ______ ____
ROOT
ATOM      1  N   UNL     1       1.793   6.829  21.057  0.00  0.00    +0.000 N 
ATOM      2  C   UNL     1       1.613   7.951  20.282  0.00  0.00    +0.000 C 
ATOM      3  O   UNL     1       1.814   7.987  19.069  0.00  0.00    +0.000 OA
ATOM      4  N   UNL     1       1.129   9.060  20.939  0.00  0.00    +0.000 N 
ATOM      5  C   UNL     1       0.788  10.239  20.132  0.00  0.00    +0.000 C 
ATOM      6  C   UNL     1      -0.620  10.750  20.471  0.00  0.00    +0.000 C 
ATOM      7  N   UNL     1      -0.730  10.989  21.928  0.00  0.00    +0.000 N 
ATOM      8  C   UNL     1      -0.408   9.804  22.738  0.00  0.00    +0.000 C 
ATOM      9  C   UNL     1       1.003   9.282  22.387  0.00  0.00    +0.000 C 
ATOM     10  H   UNL     1       1.245   6.774  21.900  0.00  0.00    +0.000 HD
ENDROOT
BRANCH   7  11
ATOM     11  C   UNL     1      -1.092  12.236  22.406  0.00  0.00    +0.000 A 
ATOM     12  C   UNL     1      -2.297  12.355  23.141  0.00  0.00    +0.000 A 
ATOM     13  C   UNL     1      -2.802  13.573  23.600  0.00  0.00    +0.000 A 
ATOM     14  C   UNL     1      -2.092  14.734  23.369  0.00  0.00    +0.000 A 
ATOM     15  C   UNL     1      -0.883  14.663  22.687  0.00  0.00    +0.000 A 
ATOM     16  C   UNL     1      -0.376  13.438  22.191  0.00  0.00    +0.000 A 
ATOM     17  C   UNL     1       0.911  13.540  21.416  0.00  0.00    +0.000 C 
ENDBRANCH   7  11
BRANCH   1  21
ATOM     18  C   UNL     1       3.569   3.241  19.719  0.00  0.00    +0.000 A 
ATOM     19  C   UNL     1       2.477   3.205  20.597  0.00  0.00    +0.000 A 
ATOM     20  C   UNL     1       1.864   4.375  21.028  0.00  0.00    +0.000 A 
ATOM     21  C   UNL     1       2.334   5.608  20.599  0.00  0.00    +0.000 A 
ATOM     22  C   UNL     1       3.374   5.645  19.658  0.00  0.00    +0.000 A 
ATOM     23  C   UNL     1       4.017   4.477  19.186  0.00  0.00    +0.000 A 
BRANCH  23  24
ATOM     24  N   UNL     1       4.986   4.613  18.197  0.00  0.00    +0.000 N 
ATOM     25  C   UNL     1       6.231   5.355  18.439  0.00  0.00    +0.000 C 
ATOM     26  C   UNL     1       7.389   4.660  17.679  0.00  0.00    +0.000 C 
ATOM     27  N   UNL     1       7.175   4.442  16.229  0.00  0.00    +0.000 NA
ATOM     28  C   UNL     1       7.311   5.686  15.476  0.00  0.00    +0.000 C 
ATOM     29  C   UNL     1       5.850   3.815  16.016  0.00  0.00    +0.000 C 
ATOM     30  C   UNL     1       4.655   4.455  16.772  0.00  0.00    +0.000 C 
ENDBRANCH  23  24
BRANCH  18  32
ATOM     31  C   UNL     1       3.598   1.286  18.363  0.00  0.00    +0.000 C 
ATOM     32  O   UNL     1       4.232   2.089  19.356  0.00  0.00    +0.000 OA
ENDBRANCH  18  32
ENDBRANCH   1  21
TORSDOF 4
ENDMDL
MODEL 4
REMARK VINA RESULT:      -8.9      0.695      1.639
REMARK  Name = 
REMARK  7 active torsions:
REMARK  status: ('A' for Active; 'I' for Inactive)
REMARK    1  A    between atoms: C_1  and  O_2
REMARK    2  A    between atoms: O_2  and  C_3
REMARK    3  A    between atoms: C_6  and  N_7
REMARK    4  A    between atoms: N_13  and  C_14
REMARK    5  A    between atoms: C_19  and  C_20
REMARK    6  A    between atoms: C_24  and  N_25
REMARK    7  A    between atoms: N_28  and  C_29
REMARK                            x       y       z     vdW  Elec       q    Type
REMARK                         _______ _______ _______ _____ _____    ______ ____
ROOT
ATOM      1  N   UNL     1       1.764   7.079  20.941  0.00  0.00    +0.000 N 
ATOM      2  C   UNL     1       1.587   8.194  20.155  0.00  0.00    +0.000 C 
ATOM      3  O   UNL     1       1.734   8.203  18.933  0.00  0.00    +0.000 OA
ATOM      4  N   UNL     1       1.171   9.330  20.812  0.00  0.00    +0.000 N 
ATOM      5  C   UNL     1       0.834  10.506  20.000  0.00  0.00    +0.000 C 
ATOM      6  C   UNL     1      -0.538  11.072  20.391  0.00  0.00    +0.000 C 
ATOM      7  N   UNL     1      -0.574  11.339  21.847  0.00  0.00    +0.000 N 
ATOM      8  C   UNL     1      -0.256  10.157  22.664  0.00  0.00    +0.000 C 
ATOM      9  C   UNL     1       1.119   9.580  22.260  0.00  0.00    +0.000 C 
ATOM     10  H   UNL     1       1.253   7.057  21.808  0.00  0.00    +0.000 HD
ENDROOT
BRANCH   7  11
ATOM     11  C   UNL     1      -0.871  12.606  22.318  0.00  0.00    +0.000 A 
ATOM     12  C   UNL     1       0.030  13.661  22.035  0.00  0.00    +0.000 A 
ATOM     13  C   UNL     1      -0.125  14.959  22.528  0.00  0.00    +0.000 A 
ATOM     14  C   UNL     1      -1.224  15.265  23.304  0.00  0.00    +0.000 A 
ATOM     15  C   UNL     1      -2.158  14.272  23.576  0.00  0.00    +0.000 A 
ATOM     16  C   UNL     1      -1.996  12.946  23.108  0.00  0.00    +0.000 A 
ATOM     17  C   UNL     1      -3.060  11.974  23.544  0.00  0.00    +0.000 C 
ENDBRANCH   7  11
BRANCH   1  21
ATOM     18  C   UNL     1       3.352   3.404  19.606  0.00  0.00    +0.000 A 
ATOM     19  C   UNL     1       2.225   3.426  20.439  0.00  0.00    +0.000 A 
ATOM     20  C   UNL     1       1.673   4.628  20.867  0.00  0.00    +0.000 A 
ATOM     21  C   UNL     1       2.242   5.833  20.481  0.00  0.00    +0.000 A 
ATOM     22  C   UNL     1       3.319   5.816  19.585  0.00  0.00    +0.000 A 
ATOM     23  C   UNL     1       3.903   4.615  19.116  0.00  0.00    +0.000 A 
BRANCH  23  24
ATOM     24  N   UNL     1       4.919   4.703  18.170  0.00  0.00    +0.000 N 
ATOM     25  C   UNL     1       6.182   5.396  18.461  0.00  0.00    +0.000 C 
ATOM     26  C   UNL     1       7.343   4.648  17.759  0.00  0.00    +0.000 C 
ATOM     27  N   UNL     1       7.185   4.425  16.302  0.00  0.00    +0.000 NA
ATOM     28  C   UNL     1       7.403   5.655  15.546  0.00  0.00    +0.000 C 
ATOM     29  C   UNL     1       5.846   3.849  16.037  0.00  0.00    +0.000 C 
ATOM     30  C   UNL     1       4.645   4.544  16.733  0.00  0.00    +0.000 C 
ENDBRANCH  23  24
BRANCH  18  32
ATOM     31  C   UNL     1       3.310   1.475  18.214  0.00  0.00    +0.000 C 
ATOM     32  O   UNL     1       3.952   2.216  19.249  0.00  0.00    +0.000 OA
ENDBRANCH  18  32
ENDBRANCH   1  21
TORSDOF 4
ENDMDL
MODEL 5
REMARK VINA RESULT:      -8.2      1.491      1.768
REMARK  Name = 
REMARK  7 active torsions:
REMARK  status: ('A' for Active; 'I' for Inactive)
REMARK    1  A    between atoms: C_1  and  O_2
REMARK    2  A    between atoms: O_2  and  C_3
REMARK    3  A    between atoms: C_6  and  N_7
REMARK    4  A    between atoms: N_13  and  C_14
REMARK    5  A    between atoms: C_19  and  C_20
REMARK    6  A    between atoms: C_24  and  N_25
REMARK    7  A    between atoms: N_28  and  C_29
REMARK                            x       y       z     vdW  Elec       q    Type
REMARK                         _______ _______ _______ _____ _____    ______ ____
ROOT
ATOM      1  N   UNL     1       1.845   7.476  20.263  0.00  0.00    +0.000 N 
ATOM      2  C   UNL     1       1.626   8.413  19.279  0.00  0.00    +0.000 C 
ATOM      3  O   UNL     1       1.789   8.198  18.079  0.00  0.00    +0.000 OA
ATOM      4  N   UNL     1       1.148   9.630  19.709  0.00  0.00    +0.000 N 
ATOM      5  C   UNL     1       0.767  10.614  18.687  0.00  0.00    +0.000 C 
ATOM      6  C   UNL     1      -0.636  11.176  18.959  0.00  0.00    +0.000 C 
ATOM      7  N   UNL     1      -0.704  11.710  20.338  0.00  0.00    +0.000 N 
ATOM      8  C   UNL     1      -0.341  10.721  21.365  0.00  0.00    +0.000 C 
ATOM      9  C   UNL     1       1.064  10.146  21.083  0.00  0.00    +0.000 C 
ATOM     10  H   UNL     1       1.324   7.593  21.117  0.00  0.00    +0.000 HD
ENDROOT
BRANCH   7  11
ATOM     11  C   UNL     1      -1.068  13.027  20.560  0.00  0.00    +0.000 A 
ATOM     12  C   UNL     1      -2.434  13.322  20.789  0.00  0.00    +0.000 A 
ATOM     13  C   UNL     1      -2.926  14.620  20.942  0.00  0.00    +0.000 A 
ATOM     14  C   UNL     1      -2.051  15.687  20.907  0.00  0.00    +0.000 A 
ATOM     15  C   UNL     1      -0.695  15.445  20.726  0.00  0.00    +0.000 A 
ATOM     16  C   UNL     1      -0.188  14.137  20.539  0.00  0.00    +0.000 A 
ATOM     17  C   UNL     1       1.294  14.049  20.289  0.00  0.00    +0.000 C 
ENDBRANCH   7  11
BRANCH   1  21
ATOM     18  C   UNL     1       3.625   3.701  19.635  0.00  0.00    +0.000 A 
ATOM     19  C   UNL     1       2.570   3.843  20.548  0.00  0.00    +0.000 A 
ATOM     20  C   UNL     1       1.956   5.073  20.748  0.00  0.00    +0.000 A 
ATOM     21  C   UNL     1       2.388   6.190  20.049  0.00  0.00    +0.000 A 
ATOM     22  C   UNL     1       3.387   6.036  19.078  0.00  0.00    +0.000 A 
ATOM     23  C   UNL     1       4.030   4.799  18.835  0.00  0.00    +0.000 A 
BRANCH  23  24
ATOM     24  N   UNL     1       4.955   4.731  17.798  0.00  0.00    +0.000 N 
ATOM     25  C   UNL     1       6.205   5.503  17.832  0.00  0.00    +0.000 C 
ATOM     26  C   UNL     1       7.334   4.667  17.179  0.00  0.00    +0.000 C 
ATOM     27  N   UNL     1       7.060   4.162  15.813  0.00  0.00    +0.000 NA
ATOM     28  C   UNL     1       7.156   5.228  14.820  0.00  0.00    +0.000 C 
ATOM     29  C   UNL     1       5.731   3.508  15.788  0.00  0.00    +0.000 C 
ATOM     30  C   UNL     1       4.565   4.290  16.449  0.00  0.00    +0.000 C 
ENDBRANCH  23  24
BRANCH  18  32
ATOM     31  C   UNL     1       3.661   1.526  18.670  0.00  0.00    +0.000 C 
ATOM     32  O   UNL     1       4.292   2.503  19.495  0.00  0.00    +0.000 OA
ENDBRANCH  18  32
ENDBRANCH   1  21
TORSDOF 4
ENDMDL
MODEL 6
REMARK VINA RESULT:      -8.1      1.472      2.124
REMARK  Name = 
REMARK  7 active torsions:
REMARK  status: ('A' for Active; 'I' for Inactive)
REMARK    1  A    between atoms: C_1  and  O_2
REMARK    2  A    between atoms: O_2  and  C_3
REMARK    3  A    between atoms: C_6  and  N_7
REMARK    4  A    between atoms: N_13  and  C_14
REMARK    5  A    between atoms: C_19  and  C_20
REMARK    6  A    between atoms: C_24  and  N_25
REMARK    7  A    between atoms: N_28  and  C_29
REMARK                            x       y       z     vdW  Elec       q    Type
REMARK                         _______ _______ _______ _____ _____    ______ ____
ROOT
ATOM      1  N   UNL     1       1.769   7.625  20.283  0.00  0.00    +0.000 N 
ATOM      2  C   UNL     1       1.606   8.570  19.296  0.00  0.00    +0.000 C 
ATOM      3  O   UNL     1       1.812   8.357  18.101  0.00  0.00    +0.000 OA
ATOM      4  N   UNL     1       1.136   9.795  19.713  0.00  0.00    +0.000 N 
ATOM      5  C   UNL     1       0.814  10.790  18.683  0.00  0.00    +0.000 C 
ATOM      6  C   UNL     1      -0.587  11.378  18.903  0.00  0.00    +0.000 C 
ATOM      7  N   UNL     1      -0.699  11.907  20.281  0.00  0.00    +0.000 N 
ATOM      8  C   UNL     1      -0.395  10.906  21.316  0.00  0.00    +0.000 C 
ATOM      9  C   UNL     1       1.009  10.306  21.086  0.00  0.00    +0.000 C 
ATOM     10  H   UNL     1       1.217   7.748  21.116  0.00  0.00    +0.000 HD
ENDROOT
BRANCH   7  11
ATOM     11  C   UNL     1      -1.045  13.230  20.496  0.00  0.00    +0.000 A 
ATOM     12  C   UNL     1      -0.031  14.216  20.413  0.00  0.00    +0.000 A 
ATOM     13  C   UNL     1      -0.247  15.568  20.691  0.00  0.00    +0.000 A 
ATOM     14  C   UNL     1      -1.514  15.998  21.031  0.00  0.00    +0.000 A 
ATOM     15  C   UNL     1      -2.550  15.073  21.086  0.00  0.00    +0.000 A 
ATOM     16  C   UNL     1      -2.337  13.696  20.837  0.00  0.00    +0.000 A 
ATOM     17  C   UNL     1      -3.548  12.817  21.001  0.00  0.00    +0.000 C 
ENDBRANCH   7  11
BRANCH   1  21
ATOM     18  C   UNL     1       3.498   3.818  19.703  0.00  0.00    +0.000 A 
ATOM     19  C   UNL     1       2.415   3.977  20.580  0.00  0.00    +0.000 A 
ATOM     20  C   UNL     1       1.817   5.218  20.763  0.00  0.00    +0.000 A 
ATOM     21  C   UNL     1       2.294   6.329  20.083  0.00  0.00    +0.000 A 
ATOM     22  C   UNL     1       3.324   6.159  19.147  0.00  0.00    +0.000 A 
ATOM     23  C   UNL     1       3.952   4.911  18.922  0.00  0.00    +0.000 A 
BRANCH  23  24
ATOM     24  N   UNL     1       4.912   4.829  17.919  0.00  0.00    +0.000 N 
ATOM     25  C   UNL     1       6.185   5.555  18.012  0.00  0.00    +0.000 C 
ATOM     26  C   UNL     1       7.308   4.691  17.385  0.00  0.00    +0.000 C 
ATOM     27  N   UNL     1       7.067   4.221  16.000  0.00  0.00    +0.000 NA
ATOM     28  C   UNL     1       7.236   5.300  15.031  0.00  0.00    +0.000 C 
ATOM     29  C   UNL     1       5.718   3.615  15.915  0.00  0.00    +0.000 C 
ATOM     30  C   UNL     1       4.556   4.426  16.548  0.00  0.00    +0.000 C 
ENDBRANCH  23  24
BRANCH  18  32
ATOM     31  C   UNL     1       3.518   1.640  18.748  0.00  0.00    +0.000 C 
ATOM     32  O   UNL     1       4.147   2.608  19.583  0.00  0.00    +0.000 OA
ENDBRANCH  18  32
ENDBRANCH   1  21
TORSDOF 4
ENDMDL
MODEL 7
REMARK VINA RESULT:      -8.0      1.421      1.889
REMARK  Name = 
REMARK  7 active torsions:
REMARK  status: ('A' for Active; 'I' for Inactive)
REMARK    1  A    between atoms: C_1  and  O_2
REMARK    2  A    between atoms: O_2  and  C_3
REMARK    3  A    between atoms: C_6  and  N_7
REMARK    4  A    between atoms: N_13  and  C_14
REMARK    5  A    between atoms: C_19  and  C_20
REMARK    6  A    between atoms: C_24  and  N_25
REMARK    7  A    between atoms: N_28  and  C_29
REMARK                            x       y       z     vdW  Elec       q    Type
REMARK                         _______ _______ _______ _____ _____    ______ ____
ROOT
ATOM      1  N   UNL     1       1.487   8.086  20.425  0.00  0.00    +0.000 N 
ATOM      2  C   UNL     1       1.272   9.039  19.457  0.00  0.00    +0.000 C 
ATOM      3  O   UNL     1       1.472   8.857  18.257  0.00  0.00    +0.000 OA
ATOM      4  N   UNL     1       0.753  10.235  19.901  0.00  0.00    +0.000 N 
ATOM      5  C   UNL     1       0.375  11.233  18.892  0.00  0.00    +0.000 C 
ATOM      6  C   UNL     1      -1.049  11.754  19.138  0.00  0.00    +0.000 C 
ATOM      7  N   UNL     1      -1.167  12.254  20.527  0.00  0.00    +0.000 N 
ATOM      8  C   UNL     1      -0.807  11.249  21.540  0.00  0.00    +0.000 C 
ATOM      9  C   UNL     1       0.619  10.716  21.284  0.00  0.00    +0.000 C 
ATOM     10  H   UNL     1       0.941   8.170  21.267  0.00  0.00    +0.000 HD
ENDROOT
BRANCH   7  11
ATOM     11  C   UNL     1      -1.568  13.556  20.769  0.00  0.00    +0.000 A 
ATOM     12  C   UNL     1      -0.577  14.563  20.864  0.00  0.00    +0.000 A 
ATOM     13  C   UNL     1      -0.857  15.893  21.185  0.00  0.00    +0.000 A 
ATOM     14  C   UNL     1      -2.166  16.280  21.392  0.00  0.00    +0.000 A 
ATOM     15  C   UNL     1      -3.179  15.336  21.271  0.00  0.00    +0.000 A 
ATOM     16  C   UNL     1      -2.904  13.979  20.975  0.00  0.00    +0.000 A 
ATOM     17  C   UNL     1      -4.103  13.070  20.943  0.00  0.00    +0.000 C 
ENDBRANCH   7  11
BRANCH   1  21
ATOM     18  C   UNL     1       3.376   4.369  19.765  0.00  0.00    +0.000 A 
ATOM     19  C   UNL     1       2.273   4.459  20.626  0.00  0.00    +0.000 A 
ATOM     20  C   UNL     1       1.623   5.669  20.835  0.00  0.00    +0.000 A 
ATOM     21  C   UNL     1       2.067   6.819  20.197  0.00  0.00    +0.000 A 
ATOM     22  C   UNL     1       3.118   6.717  19.274  0.00  0.00    +0.000 A 
ATOM     23  C   UNL     1       3.799   5.502  19.024  0.00  0.00    +0.000 A 
BRANCH  23  24
ATOM     24  N   UNL     1       4.778   5.488  18.036  0.00  0.00    +0.000 N 
ATOM     25  C   UNL     1       4.473   5.078  16.658  0.00  0.00    +0.000 C 
ATOM     26  C   UNL     1       5.312   5.935  15.678  0.00  0.00    +0.000 C 
ATOM     27  N   UNL     1       6.775   5.947  15.915  0.00  0.00    +0.000 NA
ATOM     28  C   UNL     1       7.397   4.696  15.491  0.00  0.00    +0.000 C 
ATOM     29  C   UNL     1       7.038   6.233  17.345  0.00  0.00    +0.000 C 
ATOM     30  C   UNL     1       6.209   5.420  18.375  0.00  0.00    +0.000 C 
ENDBRANCH  23  24
BRANCH  18  32
ATOM     31  C   UNL     1       3.390   2.134  18.950  0.00  0.00    +0.000 C 
ATOM     32  O   UNL     1       4.074   3.190  19.620  0.00  0.00    +0.000 OA
ENDBRANCH  18  32
ENDBRANCH   1  21
TORSDOF 4
ENDMDL
MODEL 8
REMARK VINA RESULT:      -7.9      1.662      1.860
REMARK  Name = 
REMARK  7 active torsions:
REMARK  status: ('A' for Active; 'I' for Inactive)
REMARK    1  A    between atoms: C_1  and  O_2
REMARK    2  A    between atoms: O_2  and  C_3
REMARK    3  A    between atoms: C_6  and  N_7
REMARK    4  A    between atoms: N_13  and  C_14
REMARK    5  A    between atoms: C_19  and  C_20
REMARK    6  A    between atoms: C_24  and  N_25
REMARK    7  A    between atoms: N_28  and  C_29
REMARK                            x       y       z     vdW  Elec       q    Type
REMARK                         _______ _______ _______ _____ _____    ______ ____
ROOT
ATOM      1  N   UNL     1       1.452   8.398  20.265  0.00  0.00    +0.000 N 
ATOM      2  C   UNL     1       1.079   9.236  19.240  0.00  0.00    +0.000 C 
ATOM      3  O   UNL     1       1.086   8.914  18.053  0.00  0.00    +0.000 OA
ATOM      4  N   UNL     1       0.633  10.482  19.620  0.00  0.00    +0.000 N 
ATOM      5  C   UNL     1       0.093  11.362  18.575  0.00  0.00    +0.000 C 
ATOM      6  C   UNL     1      -1.274  11.929  18.983  0.00  0.00    +0.000 C 
ATOM      7  N   UNL     1      -1.171  12.587  20.305  0.00  0.00    +0.000 N 
ATOM      8  C   UNL     1      -0.649  11.701  21.358  0.00  0.00    +0.000 C 
ATOM      9  C   UNL     1       0.720  11.121  20.941  0.00  0.00    +0.000 C 
ATOM     10  H   UNL     1       1.047   8.586  21.168  0.00  0.00    +0.000 HD
ENDROOT
BRANCH   7  11
ATOM     11  C   UNL     1      -1.535  13.914  20.455  0.00  0.00    +0.000 A 
ATOM     12  C   UNL     1      -2.810  14.208  20.996  0.00  0.00    +0.000 A 
ATOM     13  C   UNL     1      -3.315  15.505  21.116  0.00  0.00    +0.000 A 
ATOM     14  C   UNL     1      -2.536  16.576  20.727  0.00  0.00    +0.000 A 
ATOM     15  C   UNL     1      -1.261  16.340  20.227  0.00  0.00    +0.000 A 
ATOM     16  C   UNL     1      -0.750  15.029  20.072  0.00  0.00    +0.000 A 
ATOM     17  C   UNL     1       0.620  14.939  19.455  0.00  0.00    +0.000 C 
ENDBRANCH   7  11
BRANCH   1  21
ATOM     18  C   UNL     1       3.227   4.599  19.785  0.00  0.00    +0.000 A 
ATOM     19  C   UNL     1       2.099   4.753  20.602  0.00  0.00    +0.000 A 
ATOM     20  C   UNL     1       1.486   5.992  20.751  0.00  0.00    +0.000 A 
ATOM     21  C   UNL     1       1.993   7.105  20.096  0.00  0.00    +0.000 A 
ATOM     22  C   UNL     1       3.072   6.938  19.216  0.00  0.00    +0.000 A 
ATOM     23  C   UNL     1       3.717   5.693  19.027  0.00  0.00    +0.000 A 
BRANCH  23  24
ATOM     24  N   UNL     1       4.729   5.614  18.076  0.00  0.00    +0.000 N 
ATOM     25  C   UNL     1       4.459   5.171  16.701  0.00  0.00    +0.000 C 
ATOM     26  C   UNL     1       5.362   5.968  15.727  0.00  0.00    +0.000 C 
ATOM     27  N   UNL     1       6.815   5.937  16.016  0.00  0.00    +0.000 NA
ATOM     28  C   UNL     1       7.406   4.652  15.653  0.00  0.00    +0.000 C 
ATOM     29  C   UNL     1       7.037   6.258  17.446  0.00  0.00    +0.000 C 
ATOM     30  C   UNL     1       6.143   5.507  18.468  0.00  0.00    +0.000 C 
ENDBRANCH  23  24
BRANCH  18  32
ATOM     31  C   UNL     1       3.238   2.373  18.945  0.00  0.00    +0.000 C 
ATOM     32  O   UNL     1       3.888   3.392  19.701  0.00  0.00    +0.000 OA
ENDBRANCH  18  32
ENDBRANCH   1  21
TORSDOF 4
ENDMDL
MODEL 9
REMARK VINA RESULT:      -7.9      1.815      2.596
REMARK  Name = 
REMARK  7 active torsions:
REMARK  status: ('A' for Active; 'I' for Inactive)
REMARK    1  A    between atoms: C_1  and  O_2
REMARK    2  A    between atoms: O_2  and  C_3
REMARK    3  A    between atoms: C_6  and  N_7
REMARK    4  A    between atoms: N_13  and  C_14
REMARK    5  A    between atoms: C_19  and  C_20
REMARK    6  A    between atoms: C_24  and  N_25
REMARK    7  A    between atoms: N_28  and  C_29
REMARK                            x       y       z     vdW  Elec       q    Type
REMARK                         _______ _______ _______ _____ _____    ______ ____
ROOT
ATOM      1  N   UNL     1       1.585   8.131  19.566  0.00  0.00    +0.000 N 
ATOM      2  C   UNL     1       1.259   8.862  20.686  0.00  0.00    +0.000 C 
ATOM      3  O   UNL     1       1.576   8.541  21.831  0.00  0.00    +0.000 OA
ATOM      4  N   UNL     1       0.584  10.039  20.455  0.00  0.00    +0.000 N 
ATOM      5  C   UNL     1       0.337  10.922  21.603  0.00  0.00    +0.000 C 
ATOM      6  C   UNL     1       0.774  12.361  21.296  0.00  0.00    +0.000 C 
ATOM      7  N   UNL     1       0.123  12.828  20.050  0.00  0.00    +0.000 N 
ATOM      8  C   UNL     1       0.386  11.956  18.894  0.00  0.00    +0.000 C 
ATOM      9  C   UNL     1      -0.042  10.505  19.209  0.00  0.00    +0.000 C 
ATOM     10  H   UNL     1       1.648   8.642  18.701  0.00  0.00    +0.000 HD
ENDROOT
BRANCH   7  11
ATOM     11  C   UNL     1      -0.653  13.974  20.054  0.00  0.00    +0.000 A 
ATOM     12  C   UNL     1      -0.101  15.166  19.525  0.00  0.00    +0.000 A 
ATOM     13  C   UNL     1      -0.759  16.397  19.552  0.00  0.00    +0.000 A 
ATOM     14  C   UNL     1      -2.030  16.478  20.085  0.00  0.00    +0.000 A 
ATOM     15  C   UNL     1      -2.629  15.326  20.580  0.00  0.00    +0.000 A 
ATOM     16  C   UNL     1      -1.961  14.078  20.586  0.00  0.00    +0.000 A 
ATOM     17  C   UNL     1      -2.720  12.942  21.217  0.00  0.00    +0.000 C 
ENDBRANCH   7  11
BRANCH   1  21
ATOM     18  C   UNL     1       3.637   4.443  19.607  0.00  0.00    +0.000 A 
ATOM     19  C   UNL     1       2.567   4.666  20.484  0.00  0.00    +0.000 A 
ATOM     20  C   UNL     1       1.863   5.865  20.467  0.00  0.00    +0.000 A 
ATOM     21  C   UNL     1       2.221   6.870  19.580  0.00  0.00    +0.000 A 
ATOM     22  C   UNL     1       3.238   6.621  18.648  0.00  0.00    +0.000 A 
ATOM     23  C   UNL     1       3.971   5.410  18.624  0.00  0.00    +0.000 A 
BRANCH  23  24
ATOM     24  N   UNL     1       4.909   5.229  17.614  0.00  0.00    +0.000 N 
ATOM     25  C   UNL     1       5.996   6.191  17.392  0.00  0.00    +0.000 C 
ATOM     26  C   UNL     1       7.268   5.425  16.952  0.00  0.00    +0.000 C 
ATOM     27  N   UNL     1       7.112   4.525  15.784  0.00  0.00    +0.000 NA
ATOM     28  C   UNL     1       7.027   5.278  14.536  0.00  0.00    +0.000 C 
ATOM     29  C   UNL     1       5.925   3.662  15.985  0.00  0.00    +0.000 C 
ATOM     30  C   UNL     1       4.626   4.372  16.450  0.00  0.00    +0.000 C 
ENDBRANCH  23  24
BRANCH  18  32
ATOM     31  C   UNL     1       3.739   2.090  19.270  0.00  0.00    +0.000 C 
ATOM     32  O   UNL     1       4.390   3.291  19.678  0.00  0.00    +0.000 OA
ENDBRANCH  18  32
ENDBRANCH   1  21
TORSDOF 4
ENDMDL
