MODEL 1
REMARK VINA RESULT:      -7.6      0.000      0.000
REMARK  Name = 
REMARK  4 active torsions:
REMARK  status: ('A' for Active; 'I' for Inactive)
REMARK    1  A    between atoms: C_1  and  C_2
REMARK    2  A    between atoms: C_2  and  S_3
REMARK    3  A    between atoms: S_3  and  C_6
REMARK    4  A    between atoms: C_11  and  C_12
REMARK                            x       y       z     vdW  Elec       q    Type
REMARK                         _______ _______ _______ _____ _____    ______ ____
ROOT
ATOM      1  C   UNL     1       5.606   5.419  17.288  0.00  0.00    +0.000 A 
ATOM      2  C   UNL     1       5.275   4.748  18.480  0.00  0.00    +0.000 A 
ATOM      3  C   UNL     1       4.248   5.208  19.313  0.00  0.00    +0.000 A 
ATOM      4  C   UNL     1       3.593   6.353  18.878  0.00  0.00    +0.000 A 
ATOM      5  O   UNL     1       2.573   7.009  19.502  0.00  0.00    +0.000 OA
ATOM      6  C   UNL     1       2.298   8.064  18.668  0.00  0.00    +0.000 A 
ATOM      7  N   UNL     1       3.054   8.116  17.585  0.00  0.00    +0.000 NA
ATOM      8  C   UNL     1       3.888   7.036  17.710  0.00  0.00    +0.000 A 
ATOM      9  C   UNL     1       4.923   6.578  16.882  0.00  0.00    +0.000 A 
ENDROOT
BRANCH   6  10
ATOM     10  C   UNL     1       1.239   8.981  19.087  0.00  0.00    +0.000 A 
ATOM     11  C   UNL     1       0.919   9.194  20.437  0.00  0.00    +0.000 A 
ATOM     12  C   UNL     1      -0.083  10.102  20.799  0.00  0.00    +0.000 A 
ATOM     13  C   UNL     1      -0.776  10.800  19.812  0.00  0.00    +0.000 A 
ATOM     14 CL   UNL     1      -1.995  11.929  20.256  0.00  0.00    +0.000 Cl
ATOM     15  C   UNL     1      -0.483  10.592  18.468  0.00  0.00    +0.000 A 
ATOM     16  C   UNL     1       0.519   9.686  18.109  0.00  0.00    +0.000 A 
ENDBRANCH   6  10
BRANCH   1  17
ATOM     17  S   UNL     1       6.989   4.838  16.325  0.00  0.00    +0.000 S 
ATOM     18  O   UNL     1       7.907   4.198  17.251  0.00  0.00    +0.000 OA
ATOM     19  O   UNL     1       7.414   5.958  15.508  0.00  0.00    +0.000 OA
BRANCH  17  21
ATOM     20  C   UNL     1       6.315   4.033  13.810  0.00  0.00    +0.000 C 
ATOM     21  C   UNL     1       6.331   3.571  15.258  0.00  0.00    +0.000 C 
ENDBRANCH  17  21
ENDBRANCH   1  17
TORSDOF 3
ENDMDL
MODEL 2
REMARK VINA RESULT:      -7.5      0.698      1.219
REMARK  Name = 
REMARK  4 active torsions:
REMARK  status: ('A' for Active; 'I' for Inactive)
REMARK    1  A    between atoms: C_1  and  C_2
REMARK    2  A    between atoms: C_2  and  S_3
REMARK    3  A    between atoms: S_3  and  C_6
REMARK    4  A    between atoms: C_11  and  C_12
REMARK                            x       y       z     vdW  Elec       q    Type
REMARK                         _______ _______ _______ _____ _____    ______ ____
ROOT
ATOM      1  C   UNL     1       5.305   5.711  17.631  0.00  0.00    +0.000 A 
ATOM      2  C   UNL     1       4.834   5.109  18.813  0.00  0.00    +0.000 A 
ATOM      3  C   UNL     1       3.733   5.629  19.505  0.00  0.00    +0.000 A 
ATOM      4  C   UNL     1       3.152   6.759  18.944  0.00  0.00    +0.000 A 
ATOM      5  O   UNL     1       2.085   7.462  19.420  0.00  0.00    +0.000 OA
ATOM      6  C   UNL     1       1.923   8.476  18.509  0.00  0.00    +0.000 A 
ATOM      7  N   UNL     1       2.792   8.460  17.513  0.00  0.00    +0.000 NA
ATOM      8  C   UNL     1       3.585   7.375  17.782  0.00  0.00    +0.000 A 
ATOM      9  C   UNL     1       4.693   6.858  17.095  0.00  0.00    +0.000 A 
ENDROOT
BRANCH   6  10
ATOM     10  C   UNL     1       0.845   9.429  18.764  0.00  0.00    +0.000 A 
ATOM     11  C   UNL     1      -0.168   9.687  17.826  0.00  0.00    +0.000 A 
ATOM     12  C   UNL     1      -1.199  10.587  18.119  0.00  0.00    +0.000 A 
ATOM     13  C   UNL     1      -1.222  11.240  19.349  0.00  0.00    +0.000 A 
ATOM     14 CL   UNL     1      -2.499  12.333  19.717  0.00  0.00    +0.000 Cl
ATOM     15  C   UNL     1      -0.220  11.009  20.286  0.00  0.00    +0.000 A 
ATOM     16  C   UNL     1       0.808  10.108  19.993  0.00  0.00    +0.000 A 
ENDBRANCH   6  10
BRANCH   1  17
ATOM     17  S   UNL     1       6.770   5.060  16.854  0.00  0.00    +0.000 S 
ATOM     18  O   UNL     1       7.523   4.372  17.888  0.00  0.00    +0.000 OA
ATOM     19  O   UNL     1       7.357   6.157  16.108  0.00  0.00    +0.000 OA
BRANCH  17  21
ATOM     20  C   UNL     1       5.959   4.437  14.328  0.00  0.00    +0.000 C 
ATOM     21  C   UNL     1       6.194   3.829  15.701  0.00  0.00    +0.000 C 
ENDBRANCH  17  21
ENDBRANCH   1  17
TORSDOF 3
ENDMDL
MODEL 3
REMARK VINA RESULT:      -7.5      2.652      3.325
REMARK  Name = 
REMARK  4 active torsions:
REMARK  status: ('A' for Active; 'I' for Inactive)
REMARK    1  A    between atoms: C_1  and  C_2
REMARK    2  A    between atoms: C_2  and  S_3
REMARK    3  A    between atoms: S_3  and  C_6
REMARK    4  A    between atoms: C_11  and  C_12
REMARK                            x       y       z     vdW  Elec       q    Type
REMARK                         _______ _______ _______ _____ _____    ______ ____
ROOT
ATOM      1  C   UNL     1       3.537   5.343  18.715  0.00  0.00    +0.000 A 
ATOM      2  C   UNL     1       3.629   6.320  17.706  0.00  0.00    +0.000 A 
ATOM      3  C   UNL     1       2.993   7.561  17.835  0.00  0.00    +0.000 A 
ATOM      4  C   UNL     1       2.282   7.750  19.013  0.00  0.00    +0.000 A 
ATOM      5  O   UNL     1       1.570   8.854  19.380  0.00  0.00    +0.000 OA
ATOM      6  C   UNL     1       1.065   8.526  20.614  0.00  0.00    +0.000 A 
ATOM      7  N   UNL     1       1.404   7.323  21.042  0.00  0.00    +0.000 NA
ATOM      8  C   UNL     1       2.174   6.815  20.029  0.00  0.00    +0.000 A 
ATOM      9  C   UNL     1       2.805   5.570  19.893  0.00  0.00    +0.000 A 
ENDROOT
BRANCH   6  10
ATOM     10  C   UNL     1       0.223   9.524  21.271  0.00  0.00    +0.000 A 
ATOM     11  C   UNL     1      -0.171   9.408  22.614  0.00  0.00    +0.000 A 
ATOM     12  C   UNL     1      -0.956  10.400  23.215  0.00  0.00    +0.000 A 
ATOM     13  C   UNL     1      -1.356  11.511  22.477  0.00  0.00    +0.000 A 
ATOM     14 CL   UNL     1      -2.304  12.739  23.220  0.00  0.00    +0.000 Cl
ATOM     15  C   UNL     1      -0.987  11.637  21.141  0.00  0.00    +0.000 A 
ATOM     16  C   UNL     1      -0.203  10.647  20.543  0.00  0.00    +0.000 A 
ENDBRANCH   6  10
BRANCH   1  17
ATOM     17  S   UNL     1       4.286   3.749  18.445  0.00  0.00    +0.000 S 
ATOM     18  O   UNL     1       5.480   3.700  19.270  0.00  0.00    +0.000 OA
ATOM     19  O   UNL     1       4.364   3.575  17.007  0.00  0.00    +0.000 OA
BRANCH  17  21
ATOM     20  C   UNL     1       1.992   2.312  18.126  0.00  0.00    +0.000 C 
ATOM     21  C   UNL     1       3.131   2.561  19.101  0.00  0.00    +0.000 C 
ENDBRANCH  17  21
ENDBRANCH   1  17
TORSDOF 3
ENDMDL
MODEL 4
REMARK VINA RESULT:      -7.5      2.272      2.985
REMARK  Name = 
REMARK  4 active torsions:
REMARK  status: ('A' for Active; 'I' for Inactive)
REMARK    1  A    between atoms: C_1  and  C_2
REMARK    2  A    between atoms: C_2  and  S_3
REMARK    3  A    between atoms: S_3  and  C_6
REMARK    4  A    between atoms: C_11  and  C_12
REMARK                            x       y       z     vdW  Elec       q    Type
REMARK                         _______ _______ _______ _____ _____    ______ ____
ROOT
ATOM      1  C   UNL     1       3.784   5.527  18.455  0.00  0.00    +0.000 A 
ATOM      2  C   UNL     1       3.796   6.531  17.468  0.00  0.00    +0.000 A 
ATOM      3  C   UNL     1       3.095   7.731  17.642  0.00  0.00    +0.000 A 
ATOM      4  C   UNL     1       2.405   7.852  18.840  0.00  0.00    +0.000 A 
ATOM      5  O   UNL     1       1.642   8.905  19.251  0.00  0.00    +0.000 OA
ATOM      6  C   UNL     1       1.187   8.522  20.489  0.00  0.00    +0.000 A 
ATOM      7  N   UNL     1       1.603   7.330  20.879  0.00  0.00    +0.000 NA
ATOM      8  C   UNL     1       2.374   6.889  19.836  0.00  0.00    +0.000 A 
ATOM      9  C   UNL     1       3.070   5.685  19.655  0.00  0.00    +0.000 A 
ENDROOT
BRANCH   6  10
ATOM     10  C   UNL     1       0.307   9.455  21.189  0.00  0.00    +0.000 A 
ATOM     11  C   UNL     1      -0.028   9.300  22.544  0.00  0.00    +0.000 A 
ATOM     12  C   UNL     1      -0.852  10.232  23.187  0.00  0.00    +0.000 A 
ATOM     13  C   UNL     1      -1.351  11.322  22.478  0.00  0.00    +0.000 A 
ATOM     14 CL   UNL     1      -2.349  12.477  23.272  0.00  0.00    +0.000 Cl
ATOM     15  C   UNL     1      -1.042  11.486  21.131  0.00  0.00    +0.000 A 
ATOM     16  C   UNL     1      -0.218  10.555  20.492  0.00  0.00    +0.000 A 
ENDBRANCH   6  10
BRANCH   1  17
ATOM     17  S   UNL     1       4.613   3.984  18.128  0.00  0.00    +0.000 S 
ATOM     18  O   UNL     1       3.613   3.073  17.600  0.00  0.00    +0.000 OA
ATOM     19  O   UNL     1       5.358   3.660  19.330  0.00  0.00    +0.000 OA
BRANCH  17  21
ATOM     20  C   UNL     1       7.151   4.634  17.374  0.00  0.00    +0.000 C 
ATOM     21  C   UNL     1       5.770   4.331  16.817  0.00  0.00    +0.000 C 
ENDBRANCH  17  21
ENDBRANCH   1  17
TORSDOF 3
ENDMDL
MODEL 5
REMARK VINA RESULT:      -7.4      2.817      3.678
REMARK  Name = 
REMARK  4 active torsions:
REMARK  status: ('A' for Active; 'I' for Inactive)
REMARK    1  A    between atoms: C_1  and  C_2
REMARK    2  A    between atoms: C_2  and  S_3
REMARK    3  A    between atoms: S_3  and  C_6
REMARK    4  A    between atoms: C_11  and  C_12
REMARK                            x       y       z     vdW  Elec       q    Type
REMARK                         _______ _______ _______ _____ _____    ______ ____
ROOT
ATOM      1  C   UNL     1       3.331   5.178  18.880  0.00  0.00    +0.000 A 
ATOM      2  C   UNL     1       3.498   6.115  17.843  0.00  0.00    +0.000 A 
ATOM      3  C   UNL     1       2.959   7.405  17.935  0.00  0.00    +0.000 A 
ATOM      4  C   UNL     1       2.265   7.681  19.105  0.00  0.00    +0.000 A 
ATOM      5  O   UNL     1       1.639   8.846  19.439  0.00  0.00    +0.000 OA
ATOM      6  C   UNL     1       1.110   8.595  20.681  0.00  0.00    +0.000 A 
ATOM      7  N   UNL     1       1.356   7.381  21.144  0.00  0.00    +0.000 NA
ATOM      8  C   UNL     1       2.085   6.787  20.148  0.00  0.00    +0.000 A 
ATOM      9  C   UNL     1       2.618   5.493  20.049  0.00  0.00    +0.000 A 
ENDROOT
BRANCH   6  10
ATOM     10  C   UNL     1       0.347   9.672  21.307  0.00  0.00    +0.000 A 
ATOM     11  C   UNL     1       0.169  10.922  20.693  0.00  0.00    +0.000 A 
ATOM     12  C   UNL     1      -0.594  11.920  21.313  0.00  0.00    +0.000 A 
ATOM     13  C   UNL     1      -1.178  11.676  22.554  0.00  0.00    +0.000 A 
ATOM     14 CL   UNL     1      -2.130  12.894  23.308  0.00  0.00    +0.000 Cl
ATOM     15  C   UNL     1      -1.002  10.448  23.185  0.00  0.00    +0.000 A 
ATOM     16  C   UNL     1      -0.242   9.453  22.563  0.00  0.00    +0.000 A 
ENDBRANCH   6  10
BRANCH   1  17
ATOM     17  S   UNL     1       3.955   3.524  18.657  0.00  0.00    +0.000 S 
ATOM     18  O   UNL     1       5.192   3.436  19.414  0.00  0.00    +0.000 OA
ATOM     19  O   UNL     1       3.935   3.270  17.229  0.00  0.00    +0.000 OA
BRANCH  17  21
ATOM     20  C   UNL     1       1.516   2.309  18.593  0.00  0.00    +0.000 C 
ATOM     21  C   UNL     1       2.767   2.454  19.444  0.00  0.00    +0.000 C 
ENDBRANCH  17  21
ENDBRANCH   1  17
TORSDOF 3
ENDMDL
MODEL 6
REMARK VINA RESULT:      -7.4      1.783      2.283
REMARK  Name = 
REMARK  4 active torsions:
REMARK  status: ('A' for Active; 'I' for Inactive)
REMARK    1  A    between atoms: C_1  and  C_2
REMARK    2  A    between atoms: C_2  and  S_3
REMARK    3  A    between atoms: S_3  and  C_6
REMARK    4  A    between atoms: C_11  and  C_12
REMARK                            x       y       z     vdW  Elec       q    Type
REMARK                         _______ _______ _______ _____ _____    ______ ____
ROOT
ATOM      1  C   UNL     1       4.379   5.837  17.482  0.00  0.00    +0.000 A 
ATOM      2  C   UNL     1       4.181   4.915  18.528  0.00  0.00    +0.000 A 
ATOM      3  C   UNL     1       3.354   5.218  19.617  0.00  0.00    +0.000 A 
ATOM      4  C   UNL     1       2.755   6.471  19.583  0.00  0.00    +0.000 A 
ATOM      5  O   UNL     1       1.921   7.013  20.516  0.00  0.00    +0.000 OA
ATOM      6  C   UNL     1       1.622   8.254  20.012  0.00  0.00    +0.000 A 
ATOM      7  N   UNL     1       2.193   8.525  18.851  0.00  0.00    +0.000 NA
ATOM      8  C   UNL     1       2.924   7.400  18.570  0.00  0.00    +0.000 A 
ATOM      9  C   UNL     1       3.759   7.098  17.485  0.00  0.00    +0.000 A 
ENDROOT
BRANCH   6  10
ATOM     10  C   UNL     1       0.743   9.102  20.816  0.00  0.00    +0.000 A 
ATOM     11  C   UNL     1       0.591   8.928  22.201  0.00  0.00    +0.000 A 
ATOM     12  C   UNL     1      -0.239   9.779  22.940  0.00  0.00    +0.000 A 
ATOM     13  C   UNL     1      -0.927  10.806  22.299  0.00  0.00    +0.000 A 
ATOM     14 CL   UNL     1      -1.934  11.863  23.209  0.00  0.00    +0.000 Cl
ATOM     15  C   UNL     1      -0.801  10.986  20.925  0.00  0.00    +0.000 A 
ATOM     16  C   UNL     1       0.029  10.136  20.189  0.00  0.00    +0.000 A 
ENDBRANCH   6  10
BRANCH   1  17
ATOM     17  S   UNL     1       5.522   5.429  16.177  0.00  0.00    +0.000 S 
ATOM     18  O   UNL     1       5.472   6.520  15.219  0.00  0.00    +0.000 OA
ATOM     19  O   UNL     1       5.214   4.070  15.777  0.00  0.00    +0.000 OA
BRANCH  17  21
ATOM     20  C   UNL     1       7.352   6.731  17.721  0.00  0.00    +0.000 C 
ATOM     21  C   UNL     1       7.137   5.450  16.931  0.00  0.00    +0.000 C 
ENDBRANCH  17  21
ENDBRANCH   1  17
TORSDOF 3
ENDMDL
MODEL 7
REMARK VINA RESULT:      -7.3      1.736      2.424
REMARK  Name = 
REMARK  4 active torsions:
REMARK  status: ('A' for Active; 'I' for Inactive)
REMARK    1  A    between atoms: C_1  and  C_2
REMARK    2  A    between atoms: C_2  and  S_3
REMARK    3  A    between atoms: S_3  and  C_6
REMARK    4  A    between atoms: C_11  and  C_12
REMARK                            x       y       z     vdW  Elec       q    Type
REMARK                         _______ _______ _______ _____ _____    ______ ____
ROOT
ATOM      1  C   UNL     1       4.344   5.730  17.512  0.00  0.00    +0.000 A 
ATOM      2  C   UNL     1       4.131   4.879  18.613  0.00  0.00    +0.000 A 
ATOM      3  C   UNL     1       3.306   5.261  19.678  0.00  0.00    +0.000 A 
ATOM      4  C   UNL     1       2.723   6.516  19.564  0.00  0.00    +0.000 A 
ATOM      5  O   UNL     1       1.893   7.126  20.458  0.00  0.00    +0.000 OA
ATOM      6  C   UNL     1       1.610   8.336  19.876  0.00  0.00    +0.000 A 
ATOM      7  N   UNL     1       2.188   8.526  18.702  0.00  0.00    +0.000 NA
ATOM      8  C   UNL     1       2.905   7.377  18.495  0.00  0.00    +0.000 A 
ATOM      9  C   UNL     1       3.739   6.996  17.434  0.00  0.00    +0.000 A 
ENDROOT
BRANCH   6  10
ATOM     10  C   UNL     1       0.740   9.243  20.621  0.00  0.00    +0.000 A 
ATOM     11  C   UNL     1       0.074  10.318  20.011  0.00  0.00    +0.000 A 
ATOM     12  C   UNL     1      -0.773  11.148  20.754  0.00  0.00    +0.000 A 
ATOM     13  C   UNL     1      -0.957  10.912  22.114  0.00  0.00    +0.000 A 
ATOM     14 CL   UNL     1      -2.012  11.920  23.025  0.00  0.00    +0.000 Cl
ATOM     15  C   UNL     1      -0.296   9.861  22.741  0.00  0.00    +0.000 A 
ATOM     16  C   UNL     1       0.549   9.032  21.996  0.00  0.00    +0.000 A 
ENDBRANCH   6  10
BRANCH   1  17
ATOM     17  S   UNL     1       5.484   5.227  16.239  0.00  0.00    +0.000 S 
ATOM     18  O   UNL     1       5.410   6.228  15.189  0.00  0.00    +0.000 OA
ATOM     19  O   UNL     1       5.197   3.833  15.963  0.00  0.00    +0.000 OA
BRANCH  17  21
ATOM     20  C   UNL     1       7.391   6.758  17.443  0.00  0.00    +0.000 C 
ATOM     21  C   UNL     1       7.104   5.341  16.975  0.00  0.00    +0.000 C 
ENDBRANCH  17  21
ENDBRANCH   1  17
TORSDOF 3
ENDMDL
MODEL 8
REMARK VINA RESULT:      -7.2      2.328      3.248
REMARK  Name = 
REMARK  4 active torsions:
REMARK  status: ('A' for Active; 'I' for Inactive)
REMARK    1  A    between atoms: C_1  and  C_2
REMARK    2  A    between atoms: C_2  and  S_3
REMARK    3  A    between atoms: S_3  and  C_6
REMARK    4  A    between atoms: C_11  and  C_12
REMARK                            x       y       z     vdW  Elec       q    Type
REMARK                         _______ _______ _______ _____ _____    ______ ____
ROOT
ATOM      1  C   UNL     1       3.840   5.613  18.462  0.00  0.00    +0.000 A 
ATOM      2  C   UNL     1       3.781   6.568  17.430  0.00  0.00    +0.000 A 
ATOM      3  C   UNL     1       3.042   7.749  17.573  0.00  0.00    +0.000 A 
ATOM      4  C   UNL     1       2.389   7.903  18.788  0.00  0.00    +0.000 A 
ATOM      5  O   UNL     1       1.600   8.946  19.177  0.00  0.00    +0.000 OA
ATOM      6  C   UNL     1       1.202   8.605  20.446  0.00  0.00    +0.000 A 
ATOM      7  N   UNL     1       1.677   7.449  20.877  0.00  0.00    +0.000 NA
ATOM      8  C   UNL     1       2.428   6.987  19.828  0.00  0.00    +0.000 A 
ATOM      9  C   UNL     1       3.162   5.802  19.678  0.00  0.00    +0.000 A 
ENDROOT
BRANCH   6  10
ATOM     10  C   UNL     1       0.312   9.539  21.134  0.00  0.00    +0.000 A 
ATOM     11  C   UNL     1      -0.280  10.632  20.482  0.00  0.00    +0.000 A 
ATOM     12  C   UNL     1      -1.149  11.487  21.169  0.00  0.00    +0.000 A 
ATOM     13  C   UNL     1      -1.429  11.258  22.514  0.00  0.00    +0.000 A 
ATOM     14 CL   UNL     1      -2.511  12.298  23.355  0.00  0.00    +0.000 Cl
ATOM     15  C   UNL     1      -0.841  10.188  23.182  0.00  0.00    +0.000 A 
ATOM     16  C   UNL     1       0.025   9.334  22.494  0.00  0.00    +0.000 A 
ENDBRANCH   6  10
BRANCH   1  17
ATOM     17  S   UNL     1       4.716   4.087  18.178  0.00  0.00    +0.000 S 
ATOM     18  O   UNL     1       3.963   3.351  17.177  0.00  0.00    +0.000 OA
ATOM     19  O   UNL     1       4.975   3.517  19.486  0.00  0.00    +0.000 OA
BRANCH  17  21
ATOM     20  C   UNL     1       7.142   5.301  18.440  0.00  0.00    +0.000 C 
ATOM     21  C   UNL     1       6.270   4.557  17.442  0.00  0.00    +0.000 C 
ENDBRANCH  17  21
ENDBRANCH   1  17
TORSDOF 3
ENDMDL
MODEL 9
REMARK VINA RESULT:      -7.1      5.545      6.900
REMARK  Name = 
REMARK  4 active torsions:
REMARK  status: ('A' for Active; 'I' for Inactive)
REMARK    1  A    between atoms: C_1  and  C_2
REMARK    2  A    between atoms: C_2  and  S_3
REMARK    3  A    between atoms: S_3  and  C_6
REMARK    4  A    between atoms: C_11  and  C_12
REMARK                            x       y       z     vdW  Elec       q    Type
REMARK                         _______ _______ _______ _____ _____    ______ ____
ROOT
ATOM      1  C   UNL     1       6.341   5.512  17.026  0.00  0.00    +0.000 A 
ATOM      2  C   UNL     1       7.042   4.939  18.104  0.00  0.00    +0.000 A 
ATOM      3  C   UNL     1       7.910   5.702  18.895  0.00  0.00    +0.000 A 
ATOM      4  C   UNL     1       8.020   7.041  18.543  0.00  0.00    +0.000 A 
ATOM      5  O   UNL     1       8.797   7.991  19.137  0.00  0.00    +0.000 OA
ATOM      6  C   UNL     1       8.545   9.128  18.411  0.00  0.00    +0.000 A 
ATOM      7  N   UNL     1       7.680   8.966  17.424  0.00  0.00    +0.000 NA
ATOM      8  C   UNL     1       7.343   7.640  17.493  0.00  0.00    +0.000 A 
ATOM      9  C   UNL     1       6.481   6.871  16.697  0.00  0.00    +0.000 A 
ENDROOT
BRANCH   6  10
ATOM     10  C   UNL     1       9.263  10.339  18.804  0.00  0.00    +0.000 A 
ATOM     11  C   UNL     1       9.787  11.241  17.865  0.00  0.00    +0.000 A 
ATOM     12  C   UNL     1      10.444  12.405  18.282  0.00  0.00    +0.000 A 
ATOM     13  C   UNL     1      10.587  12.671  19.642  0.00  0.00    +0.000 A 
ATOM     14 CL   UNL     1      11.379  14.109  20.155  0.00  0.00    +0.000 Cl
ATOM     15  C   UNL     1      10.088  11.782  20.589  0.00  0.00    +0.000 A 
ATOM     16  C   UNL     1       9.430  10.622  20.170  0.00  0.00    +0.000 A 
ENDBRANCH   6  10
BRANCH   1  17
ATOM     17  S   UNL     1       5.331   4.464  15.998  0.00  0.00    +0.000 S 
ATOM     18  O   UNL     1       6.010   3.183  15.909  0.00  0.00    +0.000 OA
ATOM     19  O   UNL     1       5.029   5.233  14.806  0.00  0.00    +0.000 OA
BRANCH  17  21
ATOM     20  C   UNL     1       3.919   2.973  17.789  0.00  0.00    +0.000 C 
ATOM     21  C   UNL     1       3.822   4.209  16.911  0.00  0.00    +0.000 C 
ENDBRANCH  17  21
ENDBRANCH   1  17
TORSDOF 3
ENDMDL
