MODEL 1
REMARK VINA RESULT:      -7.1      0.000      0.000
REMARK  Name = 
REMARK  8 active torsions:
REMARK  status: ('A' for Active; 'I' for Inactive)
REMARK    1  A    between atoms: C_2  and  C_3
REMARK    2  A    between atoms: C_2  and  O_13
REMARK    3  A    between atoms: C_3  and  C_4
REMARK    4  A    between atoms: C_4  and  C_5
REMARK    5  A    between atoms: C_5  and  C_6
REMARK    6  A    between atoms: C_6  and  C_7
REMARK    7  A    between atoms: O_13  and  C_14
REMARK    8  A    between atoms: C_14  and  C_15
REMARK                            x       y       z     vdW  Elec       q    Type
REMARK                         _______ _______ _______ _____ _____    ______ ____
ROOT
ATOM      1  C   UNL     1      -0.558  11.730  18.554  0.00  0.00    +0.000 C 
ATOM      2  C   UNL     1      -1.727  11.927  17.548  0.00  0.00    +0.000 C 
ATOM      3  O   UNL     1      -2.231  10.671  17.127  0.00  0.00    +0.000 OA
ATOM      4  C   UNL     1      -3.259  10.676  16.147  0.00  0.00    +0.000 C 
ATOM      5  C   UNL     1      -4.587  11.285  16.599  0.00  0.00    +0.000 C 
ATOM      6  O   UNL     1      -4.957  10.817  17.894  0.00  0.00    +0.000 OA
ATOM      7  C   UNL     1      -6.278  11.241  18.255  0.00  0.00    +0.000 C 
ATOM      8  C   UNL     1      -6.358  11.392  19.770  0.00  0.00    +0.000 C 
ATOM      9  O   UNL     1      -5.610  12.557  20.146  0.00  0.00    +0.000 OA
ATOM     10  C   UNL     1      -5.164  12.489  21.502  0.00  0.00    +0.000 C 
ATOM     11  C   UNL     1      -4.415  13.777  21.861  0.00  0.00    +0.000 C 
ATOM     12  O   UNL     1      -3.004  13.544  21.934  0.00  0.00    +0.000 OA
ATOM     13  C   UNL     1      -2.343  13.711  20.676  0.00  0.00    +0.000 C 
ATOM     14  C   UNL     1      -1.085  12.849  20.674  0.00  0.00    +0.000 C 
ATOM     15  O   UNL     1      -0.402  12.867  19.421  0.00  0.00    +0.000 OA
ENDROOT
BRANCH   1  16
ATOM     16  C   UNL     1      -0.526  10.341  19.248  0.00  0.00    +0.000 C 
BRANCH  16  17
ATOM     17  O   UNL     1       0.815   9.985  19.627  0.00  0.00    +0.000 OA
BRANCH  17  19
ATOM     18  O   UNL     1       1.696   9.865  17.525  0.00  0.00    +0.000 OA
ATOM     19  C   UNL     1       1.527   9.393  18.640  0.00  0.00    +0.000 C 
BRANCH  19  20
ATOM     20  C   UNL     1       1.998   8.032  19.069  0.00  0.00    +0.000 C 
BRANCH  20  21
ATOM     21  C   UNL     1       2.943   7.397  18.068  0.00  0.00    +0.000 C 
BRANCH  21  22
ATOM     22  C   UNL     1       3.612   6.164  18.682  0.00  0.00    +0.000 C 
BRANCH  22  23
ATOM     23  C   UNL     1       2.565   5.197  19.229  0.00  0.00    +0.000 C 
BRANCH  23  24
ATOM     24  C   UNL     1       1.886   4.324  18.151  0.00  0.00    +0.000 C 
ATOM     25  C   UNL     1       2.867   3.726  17.129  0.00  0.00    +0.000 C 
ATOM     26  C   UNL     1       3.789   2.677  17.738  0.00  0.00    +0.000 C 
ATOM     27  C   UNL     1       2.999   1.570  18.431  0.00  0.00    +0.000 C 
ATOM     28  C   UNL     1       1.989   2.119  19.434  0.00  0.00    +0.000 C 
ATOM     29  C   UNL     1       1.087   3.187  18.811  0.00  0.00    +0.000 C 
ENDBRANCH  23  24
ENDBRANCH  22  23
ENDBRANCH  21  22
ENDBRANCH  20  21
ENDBRANCH  19  20
ENDBRANCH  17  19
ENDBRANCH  16  17
ENDBRANCH   1  16
TORSDOF 8
ENDMDL
MODEL 2
REMARK VINA RESULT:      -7.0      1.766      2.924
REMARK  Name = 
REMARK  8 active torsions:
REMARK  status: ('A' for Active; 'I' for Inactive)
REMARK    1  A    between atoms: C_2  and  C_3
REMARK    2  A    between atoms: C_2  and  O_13
REMARK    3  A    between atoms: C_3  and  C_4
REMARK    4  A    between atoms: C_4  and  C_5
REMARK    5  A    between atoms: C_5  and  C_6
REMARK    6  A    between atoms: C_6  and  C_7
REMARK    7  A    between atoms: O_13  and  C_14
REMARK    8  A    between atoms: C_14  and  C_15
REMARK                            x       y       z     vdW  Elec       q    Type
REMARK                         _______ _______ _______ _____ _____    ______ ____
ROOT
ATOM      1  C   UNL     1      -1.026  12.265  22.585  0.00  0.00    +0.000 C 
ATOM      2  C   UNL     1      -0.949  12.700  21.095  0.00  0.00    +0.000 C 
ATOM      3  O   UNL     1      -0.505  11.623  20.289  0.00  0.00    +0.000 OA
ATOM      4  C   UNL     1      -0.312  11.879  18.906  0.00  0.00    +0.000 C 
ATOM      5  C   UNL     1      -1.582  12.208  18.120  0.00  0.00    +0.000 C 
ATOM      6  O   UNL     1      -2.642  11.313  18.450  0.00  0.00    +0.000 OA
ATOM      7  C   UNL     1      -3.779  11.498  17.598  0.00  0.00    +0.000 C 
ATOM      8  C   UNL     1      -5.045  11.132  18.367  0.00  0.00    +0.000 C 
ATOM      9  O   UNL     1      -5.291  12.157  19.340  0.00  0.00    +0.000 OA
ATOM     10  C   UNL     1      -6.075  11.675  20.434  0.00  0.00    +0.000 C 
ATOM     11  C   UNL     1      -6.347  12.822  21.414  0.00  0.00    +0.000 C 
ATOM     12  O   UNL     1      -5.556  12.678  22.599  0.00  0.00    +0.000 OA
ATOM     13  C   UNL     1      -4.271  13.299  22.493  0.00  0.00    +0.000 C 
ATOM     14  C   UNL     1      -3.309  12.578  23.431  0.00  0.00    +0.000 C 
ATOM     15  O   UNL     1      -1.969  13.059  23.327  0.00  0.00    +0.000 OA
ENDROOT
BRANCH   1  16
ATOM     16  C   UNL     1      -1.109  10.731  22.810  0.00  0.00    +0.000 C 
BRANCH  16  17
ATOM     17  O   UNL     1       0.187  10.120  22.681  0.00  0.00    +0.000 OA
BRANCH  17  19
ATOM     18  O   UNL     1      -0.821   8.225  21.903  0.00  0.00    +0.000 OA
ATOM     19  C   UNL     1       0.172   8.925  22.043  0.00  0.00    +0.000 C 
BRANCH  19  20
ATOM     20  C   UNL     1       1.558   8.533  21.617  0.00  0.00    +0.000 C 
BRANCH  20  21
ATOM     21  C   UNL     1       1.592   7.208  20.882  0.00  0.00    +0.000 C 
BRANCH  21  22
ATOM     22  C   UNL     1       2.215   7.389  19.496  0.00  0.00    +0.000 C 
BRANCH  22  23
ATOM     23  C   UNL     1       2.838   6.084  19.008  0.00  0.00    +0.000 C 
BRANCH  23  24
ATOM     24  C   UNL     1       1.970   4.834  19.267  0.00  0.00    +0.000 C 
ATOM     25  C   UNL     1       1.528   4.109  17.985  0.00  0.00    +0.000 C 
ATOM     26  C   UNL     1       2.686   3.445  17.251  0.00  0.00    +0.000 C 
ATOM     27  C   UNL     1       3.457   2.494  18.164  0.00  0.00    +0.000 C 
ATOM     28  C   UNL     1       3.890   3.163  19.465  0.00  0.00    +0.000 C 
ATOM     29  C   UNL     1       2.719   3.844  20.175  0.00  0.00    +0.000 C 
ENDBRANCH  23  24
ENDBRANCH  22  23
ENDBRANCH  21  22
ENDBRANCH  20  21
ENDBRANCH  19  20
ENDBRANCH  17  19
ENDBRANCH  16  17
ENDBRANCH   1  16
TORSDOF 8
ENDMDL
MODEL 3
REMARK VINA RESULT:      -7.0      0.833      1.425
REMARK  Name = 
REMARK  8 active torsions:
REMARK  status: ('A' for Active; 'I' for Inactive)
REMARK    1  A    between atoms: C_2  and  C_3
REMARK    2  A    between atoms: C_2  and  O_13
REMARK    3  A    between atoms: C_3  and  C_4
REMARK    4  A    between atoms: C_4  and  C_5
REMARK    5  A    between atoms: C_5  and  C_6
REMARK    6  A    between atoms: C_6  and  C_7
REMARK    7  A    between atoms: O_13  and  C_14
REMARK    8  A    between atoms: C_14  and  C_15
REMARK                            x       y       z     vdW  Elec       q    Type
REMARK                         _______ _______ _______ _____ _____    ______ ____
ROOT
ATOM      1  C   UNL     1      -0.307  11.686  18.610  0.00  0.00    +0.000 C 
ATOM      2  C   UNL     1      -1.419  11.933  17.553  0.00  0.00    +0.000 C 
ATOM      3  O   UNL     1      -1.937  10.701  17.085  0.00  0.00    +0.000 OA
ATOM      4  C   UNL     1      -2.916  10.752  16.057  0.00  0.00    +0.000 C 
ATOM      5  C   UNL     1      -4.247  11.392  16.456  0.00  0.00    +0.000 C 
ATOM      6  O   UNL     1      -4.692  10.913  17.723  0.00  0.00    +0.000 OA
ATOM      7  C   UNL     1      -6.016  11.368  18.028  0.00  0.00    +0.000 C 
ATOM      8  C   UNL     1      -6.166  11.495  19.541  0.00  0.00    +0.000 C 
ATOM      9  O   UNL     1      -5.404  12.632  19.973  0.00  0.00    +0.000 OA
ATOM     10  C   UNL     1      -5.026  12.527  21.348  0.00  0.00    +0.000 C 
ATOM     11  C   UNL     1      -4.260  13.787  21.766  0.00  0.00    +0.000 C 
ATOM     12  O   UNL     1      -2.861  13.511  21.902  0.00  0.00    +0.000 OA
ATOM     13  C   UNL     1      -2.135  13.681  20.680  0.00  0.00    +0.000 C 
ATOM     14  C   UNL     1      -0.904  12.783  20.723  0.00  0.00    +0.000 C 
ATOM     15  O   UNL     1      -0.161  12.803  19.505  0.00  0.00    +0.000 OA
ENDROOT
BRANCH   1  16
ATOM     16  C   UNL     1      -0.347  10.285  19.279  0.00  0.00    +0.000 C 
BRANCH  16  17
ATOM     17  O   UNL     1       0.977   9.840  19.625  0.00  0.00    +0.000 OA
BRANCH  17  19
ATOM     18  O   UNL     1       1.753   9.623  17.489  0.00  0.00    +0.000 OA
ATOM     19  C   UNL     1       1.617   9.190  18.624  0.00  0.00    +0.000 C 
BRANCH  19  20
ATOM     20  C   UNL     1       2.051   7.823  19.073  0.00  0.00    +0.000 C 
BRANCH  20  21
ATOM     21  C   UNL     1       1.766   7.571  20.540  0.00  0.00    +0.000 C 
BRANCH  21  22
ATOM     22  C   UNL     1       1.548   6.076  20.787  0.00  0.00    +0.000 C 
BRANCH  22  23
ATOM     23  C   UNL     1       2.620   5.249  20.080  0.00  0.00    +0.000 C 
BRANCH  23  24
ATOM     24  C   UNL     1       2.615   3.752  20.457  0.00  0.00    +0.000 C 
ATOM     25  C   UNL     1       1.290   3.037  20.143  0.00  0.00    +0.000 C 
ATOM     26  C   UNL     1       1.028   2.906  18.648  0.00  0.00    +0.000 C 
ATOM     27  C   UNL     1       2.189   2.218  17.934  0.00  0.00    +0.000 C 
ATOM     28  C   UNL     1       3.531   2.875  18.241  0.00  0.00    +0.000 C 
ATOM     29  C   UNL     1       3.765   3.019  19.747  0.00  0.00    +0.000 C 
ENDBRANCH  23  24
ENDBRANCH  22  23
ENDBRANCH  21  22
ENDBRANCH  20  21
ENDBRANCH  19  20
ENDBRANCH  17  19
ENDBRANCH  16  17
ENDBRANCH   1  16
TORSDOF 8
ENDMDL
MODEL 4
REMARK VINA RESULT:      -6.9      1.211      1.777
REMARK  Name = 
REMARK  8 active torsions:
REMARK  status: ('A' for Active; 'I' for Inactive)
REMARK    1  A    between atoms: C_2  and  C_3
REMARK    2  A    between atoms: C_2  and  O_13
REMARK    3  A    between atoms: C_3  and  C_4
REMARK    4  A    between atoms: C_4  and  C_5
REMARK    5  A    between atoms: C_5  and  C_6
REMARK    6  A    between atoms: C_6  and  C_7
REMARK    7  A    between atoms: O_13  and  C_14
REMARK    8  A    between atoms: C_14  and  C_15
REMARK                            x       y       z     vdW  Elec       q    Type
REMARK                         _______ _______ _______ _____ _____    ______ ____
ROOT
ATOM      1  C   UNL     1      -0.803  11.600  18.649  0.00  0.00    +0.000 C 
ATOM      2  C   UNL     1      -1.924  11.834  17.598  0.00  0.00    +0.000 C 
ATOM      3  O   UNL     1      -2.470  10.597  17.176  0.00  0.00    +0.000 OA
ATOM      4  C   UNL     1      -3.461  10.635  16.159  0.00  0.00    +0.000 C 
ATOM      5  C   UNL     1      -4.775  11.311  16.554  0.00  0.00    +0.000 C 
ATOM      6  O   UNL     1      -5.213  10.881  17.841  0.00  0.00    +0.000 OA
ATOM      7  C   UNL     1      -6.524  11.370  18.147  0.00  0.00    +0.000 C 
ATOM      8  C   UNL     1      -6.652  11.548  19.657  0.00  0.00    +0.000 C 
ATOM      9  O   UNL     1      -5.864  12.683  20.043  0.00  0.00    +0.000 OA
ATOM     10  C   UNL     1      -5.471  12.615  21.416  0.00  0.00    +0.000 C 
ATOM     11  C   UNL     1      -4.677  13.872  21.785  0.00  0.00    +0.000 C 
ATOM     12  O   UNL     1      -3.281  13.575  21.913  0.00  0.00    +0.000 OA
ATOM     13  C   UNL     1      -2.568  13.692  20.677  0.00  0.00    +0.000 C 
ATOM     14  C   UNL     1      -1.353  12.773  20.734  0.00  0.00    +0.000 C 
ATOM     15  O   UNL     1      -0.625  12.741  19.506  0.00  0.00    +0.000 OA
ENDROOT
BRANCH   1  16
ATOM     16  C   UNL     1      -0.861  10.221  19.363  0.00  0.00    +0.000 C 
BRANCH  16  17
ATOM     17  O   UNL     1       0.415   9.884  19.937  0.00  0.00    +0.000 OA
BRANCH  17  19
ATOM     18  O   UNL     1      -0.619   9.273  21.877  0.00  0.00    +0.000 OA
ATOM     19  C   UNL     1       0.330   9.212  21.110  0.00  0.00    +0.000 C 
BRANCH  19  20
ATOM     20  C   UNL     1       1.603   8.463  21.385  0.00  0.00    +0.000 C 
BRANCH  20  21
ATOM     21  C   UNL     1       1.898   7.407  20.339  0.00  0.00    +0.000 C 
BRANCH  21  22
ATOM     22  C   UNL     1       1.375   6.044  20.802  0.00  0.00    +0.000 C 
BRANCH  22  23
ATOM     23  C   UNL     1       2.424   4.958  20.576  0.00  0.00    +0.000 C 
BRANCH  23  24
ATOM     24  C   UNL     1       1.885   3.519  20.728  0.00  0.00    +0.000 C 
ATOM     25  C   UNL     1       0.910   3.101  19.615  0.00  0.00    +0.000 C 
ATOM     26  C   UNL     1       1.587   2.960  18.257  0.00  0.00    +0.000 C 
ATOM     27  C   UNL     1       2.771   1.998  18.318  0.00  0.00    +0.000 C 
ATOM     28  C   UNL     1       3.752   2.356  19.430  0.00  0.00    +0.000 C 
ATOM     29  C   UNL     1       3.051   2.516  20.781  0.00  0.00    +0.000 C 
ENDBRANCH  23  24
ENDBRANCH  22  23
ENDBRANCH  21  22
ENDBRANCH  20  21
ENDBRANCH  19  20
ENDBRANCH  17  19
ENDBRANCH  16  17
ENDBRANCH   1  16
TORSDOF 8
ENDMDL
MODEL 5
REMARK VINA RESULT:      -6.9      1.872      2.370
REMARK  Name = 
REMARK  8 active torsions:
REMARK  status: ('A' for Active; 'I' for Inactive)
REMARK    1  A    between atoms: C_2  and  C_3
REMARK    2  A    between atoms: C_2  and  O_13
REMARK    3  A    between atoms: C_3  and  C_4
REMARK    4  A    between atoms: C_4  and  C_5
REMARK    5  A    between atoms: C_5  and  C_6
REMARK    6  A    between atoms: C_6  and  C_7
REMARK    7  A    between atoms: O_13  and  C_14
REMARK    8  A    between atoms: C_14  and  C_15
REMARK                            x       y       z     vdW  Elec       q    Type
REMARK                         _______ _______ _______ _____ _____    ______ ____
ROOT
ATOM      1  C   UNL     1      -0.304  11.871  21.238  0.00  0.00    +0.000 C 
ATOM      2  C   UNL     1      -0.637  11.885  19.720  0.00  0.00    +0.000 C 
ATOM      3  O   UNL     1      -0.894  10.570  19.260  0.00  0.00    +0.000 OA
ATOM      4  C   UNL     1      -1.144  10.402  17.872  0.00  0.00    +0.000 C 
ATOM      5  C   UNL     1      -2.431  11.049  17.359  0.00  0.00    +0.000 C 
ATOM      6  O   UNL     1      -3.528  10.784  18.231  0.00  0.00    +0.000 OA
ATOM      7  C   UNL     1      -4.769  11.235  17.676  0.00  0.00    +0.000 C 
ATOM      8  C   UNL     1      -5.714  11.620  18.809  0.00  0.00    +0.000 C 
ATOM      9  O   UNL     1      -5.241  12.844  19.391  0.00  0.00    +0.000 OA
ATOM     10  C   UNL     1      -5.686  12.998  20.741  0.00  0.00    +0.000 C 
ATOM     11  C   UNL     1      -5.193  14.341  21.292  0.00  0.00    +0.000 C 
ATOM     12  O   UNL     1      -4.118  14.147  22.220  0.00  0.00    +0.000 OA
ATOM     13  C   UNL     1      -2.833  14.127  21.590  0.00  0.00    +0.000 C 
ATOM     14  C   UNL     1      -1.887  13.299  22.454  0.00  0.00    +0.000 C 
ATOM     15  O   UNL     1      -0.599  13.133  21.863  0.00  0.00    +0.000 OA
ENDROOT
BRANCH   1  16
ATOM     16  C   UNL     1      -0.796  10.609  21.999  0.00  0.00    +0.000 C 
BRANCH  16  17
ATOM     17  O   UNL     1       0.127  10.243  23.041  0.00  0.00    +0.000 OA
BRANCH  17  19
ATOM     18  O   UNL     1       2.254   9.416  23.015  0.00  0.00    +0.000 OA
ATOM     19  C   UNL     1       1.090   9.378  22.644  0.00  0.00    +0.000 C 
BRANCH  19  20
ATOM     20  C   UNL     1       0.555   8.427  21.611  0.00  0.00    +0.000 C 
BRANCH  20  21
ATOM     21  C   UNL     1       1.635   7.895  20.690  0.00  0.00    +0.000 C 
BRANCH  21  22
ATOM     22  C   UNL     1       1.508   6.376  20.549  0.00  0.00    +0.000 C 
BRANCH  22  23
ATOM     23  C   UNL     1       2.698   5.803  19.784  0.00  0.00    +0.000 C 
BRANCH  23  24
ATOM     24  C   UNL     1       2.446   5.616  18.272  0.00  0.00    +0.000 C 
ATOM     25  C   UNL     1       3.729   5.407  17.450  0.00  0.00    +0.000 C 
ATOM     26  C   UNL     1       4.410   4.077  17.744  0.00  0.00    +0.000 C 
ATOM     27  C   UNL     1       3.454   2.902  17.548  0.00  0.00    +0.000 C 
ATOM     28  C   UNL     1       2.151   3.080  18.322  0.00  0.00    +0.000 C 
ATOM     29  C   UNL     1       1.494   4.432  18.033  0.00  0.00    +0.000 C 
ENDBRANCH  23  24
ENDBRANCH  22  23
ENDBRANCH  21  22
ENDBRANCH  20  21
ENDBRANCH  19  20
ENDBRANCH  17  19
ENDBRANCH  16  17
ENDBRANCH   1  16
TORSDOF 8
ENDMDL
MODEL 6
REMARK VINA RESULT:      -6.9      0.888      1.266
REMARK  Name = 
REMARK  8 active torsions:
REMARK  status: ('A' for Active; 'I' for Inactive)
REMARK    1  A    between atoms: C_2  and  C_3
REMARK    2  A    between atoms: C_2  and  O_13
REMARK    3  A    between atoms: C_3  and  C_4
REMARK    4  A    between atoms: C_4  and  C_5
REMARK    5  A    between atoms: C_5  and  C_6
REMARK    6  A    between atoms: C_6  and  C_7
REMARK    7  A    between atoms: O_13  and  C_14
REMARK    8  A    between atoms: C_14  and  C_15
REMARK                            x       y       z     vdW  Elec       q    Type
REMARK                         _______ _______ _______ _____ _____    ______ ____
ROOT
ATOM      1  C   UNL     1      -0.623  11.530  18.539  0.00  0.00    +0.000 C 
ATOM      2  C   UNL     1      -1.861  11.827  17.649  0.00  0.00    +0.000 C 
ATOM      3  O   UNL     1      -2.508  10.620  17.285  0.00  0.00    +0.000 OA
ATOM      4  C   UNL     1      -3.622  10.715  16.409  0.00  0.00    +0.000 C 
ATOM      5  C   UNL     1      -4.844  11.433  16.983  0.00  0.00    +0.000 C 
ATOM      6  O   UNL     1      -5.126  10.995  18.310  0.00  0.00    +0.000 OA
ATOM      7  C   UNL     1      -6.365  11.529  18.793  0.00  0.00    +0.000 C 
ATOM      8  C   UNL     1      -6.286  11.682  20.309  0.00  0.00    +0.000 C 
ATOM      9  O   UNL     1      -5.409  12.779  20.604  0.00  0.00    +0.000 OA
ATOM     10  C   UNL     1      -4.842  12.669  21.912  0.00  0.00    +0.000 C 
ATOM     11  C   UNL     1      -3.956  13.888  22.190  0.00  0.00    +0.000 C 
ATOM     12  O   UNL     1      -2.569  13.535  22.128  0.00  0.00    +0.000 OA
ATOM     13  C   UNL     1      -2.021  13.649  20.811  0.00  0.00    +0.000 C 
ATOM     14  C   UNL     1      -0.846  12.684  20.694  0.00  0.00    +0.000 C 
ATOM     15  O   UNL     1      -0.288  12.647  19.381  0.00  0.00    +0.000 OA
ENDROOT
BRANCH   1  16
ATOM     16  C   UNL     1      -0.642  10.141  19.234  0.00  0.00    +0.000 C 
BRANCH  16  17
ATOM     17  O   UNL     1       0.672   9.554  19.251  0.00  0.00    +0.000 OA
BRANCH  17  19
ATOM     18  O   UNL     1       0.877   9.580  21.524  0.00  0.00    +0.000 OA
ATOM     19  C   UNL     1       1.022   9.022  20.446  0.00  0.00    +0.000 C 
BRANCH  19  20
ATOM     20  C   UNL     1       1.702   7.696  20.256  0.00  0.00    +0.000 C 
BRANCH  20  21
ATOM     21  C   UNL     1       2.470   7.613  18.952  0.00  0.00    +0.000 C 
BRANCH  21  22
ATOM     22  C   UNL     1       2.073   6.348  18.185  0.00  0.00    +0.000 C 
BRANCH  22  23
ATOM     23  C   UNL     1       3.233   5.356  18.142  0.00  0.00    +0.000 C 
BRANCH  23  24
ATOM     24  C   UNL     1       2.822   3.920  17.751  0.00  0.00    +0.000 C 
ATOM     25  C   UNL     1       3.795   2.839  18.249  0.00  0.00    +0.000 C 
ATOM     26  C   UNL     1       3.785   2.685  19.764  0.00  0.00    +0.000 C 
ATOM     27  C   UNL     1       2.377   2.419  20.291  0.00  0.00    +0.000 C 
ATOM     28  C   UNL     1       1.368   3.451  19.797  0.00  0.00    +0.000 C 
ATOM     29  C   UNL     1       1.409   3.609  18.276  0.00  0.00    +0.000 C 
ENDBRANCH  23  24
ENDBRANCH  22  23
ENDBRANCH  21  22
ENDBRANCH  20  21
ENDBRANCH  19  20
ENDBRANCH  17  19
ENDBRANCH  16  17
ENDBRANCH   1  16
TORSDOF 8
ENDMDL
MODEL 7
REMARK VINA RESULT:      -6.8      1.157      1.497
REMARK  Name = 
REMARK  8 active torsions:
REMARK  status: ('A' for Active; 'I' for Inactive)
REMARK    1  A    between atoms: C_2  and  C_3
REMARK    2  A    between atoms: C_2  and  O_13
REMARK    3  A    between atoms: C_3  and  C_4
REMARK    4  A    between atoms: C_4  and  C_5
REMARK    5  A    between atoms: C_5  and  C_6
REMARK    6  A    between atoms: C_6  and  C_7
REMARK    7  A    between atoms: O_13  and  C_14
REMARK    8  A    between atoms: C_14  and  C_15
REMARK                            x       y       z     vdW  Elec       q    Type
REMARK                         _______ _______ _______ _____ _____    ______ ____
ROOT
ATOM      1  C   UNL     1      -0.441  11.484  19.019  0.00  0.00    +0.000 C 
ATOM      2  C   UNL     1      -1.454  11.661  17.854  0.00  0.00    +0.000 C 
ATOM      3  O   UNL     1      -1.955  10.402  17.441  0.00  0.00    +0.000 OA
ATOM      4  C   UNL     1      -2.842  10.384  16.332  0.00  0.00    +0.000 C 
ATOM      5  C   UNL     1      -4.189  11.071  16.564  0.00  0.00    +0.000 C 
ATOM      6  O   UNL     1      -4.750  10.700  17.821  0.00  0.00    +0.000 OA
ATOM      7  C   UNL     1      -6.085  11.195  17.975  0.00  0.00    +0.000 C 
ATOM      8  C   UNL     1      -6.360  11.444  19.454  0.00  0.00    +0.000 C 
ATOM      9  O   UNL     1      -5.615  12.601  19.861  0.00  0.00    +0.000 OA
ATOM     10  C   UNL     1      -5.358  12.601  21.267  0.00  0.00    +0.000 C 
ATOM     11  C   UNL     1      -4.605  13.880  21.650  0.00  0.00    +0.000 C 
ATOM     12  O   UNL     1      -3.228  13.597  21.927  0.00  0.00    +0.000 OA
ATOM     13  C   UNL     1      -2.399  13.660  20.763  0.00  0.00    +0.000 C 
ATOM     14  C   UNL     1      -1.193  12.752  20.981  0.00  0.00    +0.000 C 
ATOM     15  O   UNL     1      -0.349  12.666  19.834  0.00  0.00    +0.000 OA
ENDROOT
BRANCH   1  16
ATOM     16  C   UNL     1      -0.566  10.141  19.789  0.00  0.00    +0.000 C 
BRANCH  16  17
ATOM     17  O   UNL     1      -0.157  10.292  21.160  0.00  0.00    +0.000 OA
BRANCH  17  19
ATOM     18  O   UNL     1       1.588   9.714  22.515  0.00  0.00    +0.000 OA
ATOM     19  C   UNL     1       0.932   9.560  21.494  0.00  0.00    +0.000 C 
BRANCH  19  20
ATOM     20  C   UNL     1       1.283   8.600  20.393  0.00  0.00    +0.000 C 
BRANCH  20  21
ATOM     21  C   UNL     1       1.452   7.177  20.888  0.00  0.00    +0.000 C 
BRANCH  21  22
ATOM     22  C   UNL     1       2.320   6.378  19.912  0.00  0.00    +0.000 C 
BRANCH  22  23
ATOM     23  C   UNL     1       2.215   4.882  20.197  0.00  0.00    +0.000 C 
BRANCH  23  24
ATOM     24  C   UNL     1       1.243   4.128  19.263  0.00  0.00    +0.000 C 
ATOM     25  C   UNL     1       1.552   4.311  17.768  0.00  0.00    +0.000 C 
ATOM     26  C   UNL     1       2.854   3.643  17.346  0.00  0.00    +0.000 C 
ATOM     27  C   UNL     1       2.870   2.162  17.716  0.00  0.00    +0.000 C 
ATOM     28  C   UNL     1       2.538   1.928  19.187  0.00  0.00    +0.000 C 
ATOM     29  C   UNL     1       1.240   2.626  19.598  0.00  0.00    +0.000 C 
ENDBRANCH  23  24
ENDBRANCH  22  23
ENDBRANCH  21  22
ENDBRANCH  20  21
ENDBRANCH  19  20
ENDBRANCH  17  19
ENDBRANCH  16  17
ENDBRANCH   1  16
TORSDOF 8
ENDMDL
MODEL 8
REMARK VINA RESULT:      -6.8      2.874      3.916
REMARK  Name = 
REMARK  8 active torsions:
REMARK  status: ('A' for Active; 'I' for Inactive)
REMARK    1  A    between atoms: C_2  and  C_3
REMARK    2  A    between atoms: C_2  and  O_13
REMARK    3  A    between atoms: C_3  and  C_4
REMARK    4  A    between atoms: C_4  and  C_5
REMARK    5  A    between atoms: C_5  and  C_6
REMARK    6  A    between atoms: C_6  and  C_7
REMARK    7  A    between atoms: O_13  and  C_14
REMARK    8  A    between atoms: C_14  and  C_15
REMARK                            x       y       z     vdW  Elec       q    Type
REMARK                         _______ _______ _______ _____ _____    ______ ____
ROOT
ATOM      1  C   UNL     1       1.116  11.241  20.579  0.00  0.00    +0.000 C 
ATOM      2  C   UNL     1       1.350  12.777  20.604  0.00  0.00    +0.000 C 
ATOM      3  O   UNL     1       1.148  13.328  19.315  0.00  0.00    +0.000 OA
ATOM      4  C   UNL     1       1.395  14.717  19.152  0.00  0.00    +0.000 C 
ATOM      5  C   UNL     1       0.446  15.641  19.917  0.00  0.00    +0.000 C 
ATOM      6  O   UNL     1      -0.910  15.224  19.774  0.00  0.00    +0.000 OA
ATOM      7  C   UNL     1      -1.821  16.176  20.337  0.00  0.00    +0.000 C 
ATOM      8  C   UNL     1      -3.066  15.446  20.830  0.00  0.00    +0.000 C 
ATOM      9  O   UNL     1      -2.716  14.706  22.009  0.00  0.00    +0.000 OA
ATOM     10  C   UNL     1      -3.596  13.601  22.225  0.00  0.00    +0.000 C 
ATOM     11  C   UNL     1      -3.205  12.880  23.519  0.00  0.00    +0.000 C 
ATOM     12  O   UNL     1      -2.557  11.635  23.234  0.00  0.00    +0.000 OA
ATOM     13  C   UNL     1      -1.140  11.764  23.078  0.00  0.00    +0.000 C 
ATOM     14  C   UNL     1      -0.651  10.639  22.173  0.00  0.00    +0.000 C 
ATOM     15  O   UNL     1       0.741  10.735  21.872  0.00  0.00    +0.000 OA
ENDROOT
BRANCH   1  16
ATOM     16  C   UNL     1       0.265  10.734  19.382  0.00  0.00    +0.000 C 
BRANCH  16  17
ATOM     17  O   UNL     1       0.663   9.408  18.991  0.00  0.00    +0.000 OA
BRANCH  17  19
ATOM     18  O   UNL     1       2.117  10.285  17.465  0.00  0.00    +0.000 OA
ATOM     19  C   UNL     1       1.762   9.375  18.200  0.00  0.00    +0.000 C 
BRANCH  19  20
ATOM     20  C   UNL     1       2.429   8.030  18.276  0.00  0.00    +0.000 C 
BRANCH  20  21
ATOM     21  C   UNL     1       2.234   7.355  19.619  0.00  0.00    +0.000 C 
BRANCH  21  22
ATOM     22  C   UNL     1       2.447   5.845  19.487  0.00  0.00    +0.000 C 
BRANCH  22  23
ATOM     23  C   UNL     1       2.831   5.476  18.056  0.00  0.00    +0.000 C 
BRANCH  23  24
ATOM     24  C   UNL     1       3.985   4.455  17.955  0.00  0.00    +0.000 C 
ATOM     25  C   UNL     1       4.490   4.229  16.520  0.00  0.00    +0.000 C 
ATOM     26  C   UNL     1       5.199   5.447  15.942  0.00  0.00    +0.000 C 
ATOM     27  C   UNL     1       6.342   5.910  16.843  0.00  0.00    +0.000 C 
ATOM     28  C   UNL     1       5.894   6.118  18.287  0.00  0.00    +0.000 C 
ATOM     29  C   UNL     1       5.164   4.894  18.841  0.00  0.00    +0.000 C 
ENDBRANCH  23  24
ENDBRANCH  22  23
ENDBRANCH  21  22
ENDBRANCH  20  21
ENDBRANCH  19  20
ENDBRANCH  17  19
ENDBRANCH  16  17
ENDBRANCH   1  16
TORSDOF 8
ENDMDL
MODEL 9
REMARK VINA RESULT:      -6.8      2.655      3.568
REMARK  Name = 
REMARK  8 active torsions:
REMARK  status: ('A' for Active; 'I' for Inactive)
REMARK    1  A    between atoms: C_2  and  C_3
REMARK    2  A    between atoms: C_2  and  O_13
REMARK    3  A    between atoms: C_3  and  C_4
REMARK    4  A    between atoms: C_4  and  C_5
REMARK    5  A    between atoms: C_5  and  C_6
REMARK    6  A    between atoms: C_6  and  C_7
REMARK    7  A    between atoms: O_13  and  C_14
REMARK    8  A    between atoms: C_14  and  C_15
REMARK                            x       y       z     vdW  Elec       q    Type
REMARK                         _______ _______ _______ _____ _____    ______ ____
ROOT
ATOM      1  C   UNL     1       0.913  10.906  19.995  0.00  0.00    +0.000 C 
ATOM      2  C   UNL     1       1.332  12.403  20.032  0.00  0.00    +0.000 C 
ATOM      3  O   UNL     1       1.021  13.031  18.800  0.00  0.00    +0.000 OA
ATOM      4  C   UNL     1       1.409  14.389  18.645  0.00  0.00    +0.000 C 
ATOM      5  C   UNL     1       0.692  15.380  19.563  0.00  0.00    +0.000 C 
ATOM      6  O   UNL     1      -0.710  15.128  19.603  0.00  0.00    +0.000 OA
ATOM      7  C   UNL     1      -1.414  16.152  20.318  0.00  0.00    +0.000 C 
ATOM      8  C   UNL     1      -2.658  15.548  20.962  0.00  0.00    +0.000 C 
ATOM      9  O   UNL     1      -2.239  14.720  22.057  0.00  0.00    +0.000 OA
ATOM     10  C   UNL     1      -3.207  13.715  22.365  0.00  0.00    +0.000 C 
ATOM     11  C   UNL     1      -2.730  12.895  23.569  0.00  0.00    +0.000 C 
ATOM     12  O   UNL     1      -2.282  11.598  23.158  0.00  0.00    +0.000 OA
ATOM     13  C   UNL     1      -0.895  11.571  22.805  0.00  0.00    +0.000 C 
ATOM     14  C   UNL     1      -0.675  10.439  21.807  0.00  0.00    +0.000 C 
ATOM     15  O   UNL     1       0.663  10.388  21.314  0.00  0.00    +0.000 OA
ENDROOT
BRANCH   1  16
ATOM     16  C   UNL     1      -0.150  10.556  18.918  0.00  0.00    +0.000 C 
BRANCH  16  17
ATOM     17  O   UNL     1       0.381   9.632  17.952  0.00  0.00    +0.000 OA
BRANCH  17  19
ATOM     18  O   UNL     1       2.541  10.216  17.500  0.00  0.00    +0.000 OA
ATOM     19  C   UNL     1       1.724   9.472  18.023  0.00  0.00    +0.000 C 
BRANCH  19  20
ATOM     20  C   UNL     1       2.069   8.201  18.747  0.00  0.00    +0.000 C 
BRANCH  20  21
ATOM     21  C   UNL     1       2.940   7.275  17.922  0.00  0.00    +0.000 C 
BRANCH  21  22
ATOM     22  C   UNL     1       3.627   6.250  18.828  0.00  0.00    +0.000 C 
BRANCH  22  23
ATOM     23  C   UNL     1       3.103   4.844  18.547  0.00  0.00    +0.000 C 
BRANCH  23  24
ATOM     24  C   UNL     1       1.634   4.622  18.967  0.00  0.00    +0.000 C 
ATOM     25  C   UNL     1       1.123   3.195  18.706  0.00  0.00    +0.000 C 
ATOM     26  C   UNL     1       1.786   2.156  19.602  0.00  0.00    +0.000 C 
ATOM     27  C   UNL     1       1.640   2.514  21.079  0.00  0.00    +0.000 C 
ATOM     28  C   UNL     1       2.107   3.934  21.380  0.00  0.00    +0.000 C 
ATOM     29  C   UNL     1       1.449   4.961  20.456  0.00  0.00    +0.000 C 
ENDBRANCH  23  24
ENDBRANCH  22  23
ENDBRANCH  21  22
ENDBRANCH  20  21
ENDBRANCH  19  20
ENDBRANCH  17  19
ENDBRANCH  16  17
ENDBRANCH   1  16
TORSDOF 8
ENDMDL
