MODEL 1
REMARK VINA RESULT:      -6.0      0.000      0.000
REMARK  Name = 
REMARK  2 active torsions:
REMARK  status: ('A' for Active; 'I' for Inactive)
REMARK    1  A    between atoms: C_2  and  C_3
REMARK    2  A    between atoms: C_4  and  C_5
REMARK                            x       y       z     vdW  Elec       q    Type
REMARK                         _______ _______ _______ _____ _____    ______ ____
ROOT
ATOM      1  O   UNL     1       7.402   6.244  17.458  0.00  0.00    +0.000 OA
ATOM      2  C   UNL     1       6.905   5.487  16.624  0.00  0.00    +0.000 C 
ATOM      3  N   UNL     1       7.368   5.513  15.340  0.00  0.00    +0.000 N 
ATOM      4  C   UNL     1       6.866   4.839  14.262  0.00  0.00    +0.000 A 
ATOM      5  N   UNL     1       5.745   4.173  14.129  0.00  0.00    +0.000 NA
ATOM      6  N   UNL     1       5.633   3.574  12.893  0.00  0.00    +0.000 NA
ATOM      7  C   UNL     1       6.673   3.836  12.136  0.00  0.00    +0.000 A 
ATOM      8  S   UNL     1       7.849   4.855  12.865  0.00  0.00    +0.000 S 
ATOM      9  H   UNL     1       8.175   6.101  15.186  0.00  0.00    +0.000 HD
ENDROOT
BRANCH   2  10
ATOM     10  C   UNL     1       5.879   4.490  17.017  0.00  0.00    +0.000 C 
ATOM     11  C   UNL     1       4.752   4.828  17.660  0.00  0.00    +0.000 C 
BRANCH  11  12
ATOM     12  C   UNL     1       3.804   3.825  18.036  0.00  0.00    +0.000 A 
ATOM     13  C   UNL     1       2.684   3.344  17.368  0.00  0.00    +0.000 A 
ATOM     14  C   UNL     1       1.968   2.353  18.096  0.00  0.00    +0.000 A 
ATOM     15  C   UNL     1       2.567   2.077  19.301  0.00  0.00    +0.000 A 
ATOM     16  S   UNL     1       3.981   3.006  19.544  0.00  0.00    +0.000 S 
ENDBRANCH  11  12
ENDBRANCH   2  10
TORSDOF 2
ENDMDL
MODEL 2
REMARK VINA RESULT:      -5.9      2.058      2.472
REMARK  Name = 
REMARK  2 active torsions:
REMARK  status: ('A' for Active; 'I' for Inactive)
REMARK    1  A    between atoms: C_2  and  C_3
REMARK    2  A    between atoms: C_4  and  C_5
REMARK                            x       y       z     vdW  Elec       q    Type
REMARK                         _______ _______ _______ _____ _____    ______ ____
ROOT
ATOM      1  O   UNL     1       7.118   5.523  19.899  0.00  0.00    +0.000 OA
ATOM      2  C   UNL     1       6.456   5.094  18.955  0.00  0.00    +0.000 C 
ATOM      3  N   UNL     1       6.956   5.202  17.688  0.00  0.00    +0.000 N 
ATOM      4  C   UNL     1       6.322   4.892  16.517  0.00  0.00    +0.000 A 
ATOM      5  N   UNL     1       5.064   4.610  16.285  0.00  0.00    +0.000 NA
ATOM      6  N   UNL     1       4.832   4.286  14.966  0.00  0.00    +0.000 NA
ATOM      7  C   UNL     1       5.932   4.361  14.252  0.00  0.00    +0.000 A 
ATOM      8  S   UNL     1       7.322   4.859  15.131  0.00  0.00    +0.000 S 
ATOM      9  H   UNL     1       7.903   5.548  17.628  0.00  0.00    +0.000 HD
ENDROOT
BRANCH   2  10
ATOM     10  C   UNL     1       5.174   4.385  19.183  0.00  0.00    +0.000 C 
ATOM     11  C   UNL     1       4.072   5.008  19.626  0.00  0.00    +0.000 C 
BRANCH  11  12
ATOM     12  C   UNL     1       2.866   4.272  19.851  0.00  0.00    +0.000 A 
ATOM     13  C   UNL     1       2.253   3.883  21.037  0.00  0.00    +0.000 A 
ATOM     14  C   UNL     1       1.064   3.126  20.842  0.00  0.00    +0.000 A 
ATOM     15  C   UNL     1       0.778   2.967  19.507  0.00  0.00    +0.000 A 
ATOM     16  S   UNL     1       1.933   3.730  18.506  0.00  0.00    +0.000 S 
ENDBRANCH  11  12
ENDBRANCH   2  10
TORSDOF 2
ENDMDL
MODEL 3
REMARK VINA RESULT:      -5.8      2.450      5.579
REMARK  Name = 
REMARK  2 active torsions:
REMARK  status: ('A' for Active; 'I' for Inactive)
REMARK    1  A    between atoms: C_2  and  C_3
REMARK    2  A    between atoms: C_4  and  C_5
REMARK                            x       y       z     vdW  Elec       q    Type
REMARK                         _______ _______ _______ _____ _____    ______ ____
ROOT
ATOM      1  O   UNL     1       7.928   4.937  18.649  0.00  0.00    +0.000 OA
ATOM      2  C   UNL     1       6.820   4.747  18.150  0.00  0.00    +0.000 C 
ATOM      3  N   UNL     1       5.701   5.036  18.879  0.00  0.00    +0.000 N 
ATOM      4  C   UNL     1       4.401   4.784  18.541  0.00  0.00    +0.000 A 
ATOM      5  N   UNL     1       3.906   4.058  17.569  0.00  0.00    +0.000 NA
ATOM      6  N   UNL     1       2.530   4.108  17.523  0.00  0.00    +0.000 NA
ATOM      7  C   UNL     1       2.045   4.859  18.485  0.00  0.00    +0.000 A 
ATOM      8  S   UNL     1       3.229   5.535  19.531  0.00  0.00    +0.000 S 
ATOM      9  H   UNL     1       5.872   5.491  19.765  0.00  0.00    +0.000 HD
ENDROOT
BRANCH   2  10
ATOM     10  C   UNL     1       6.685   4.296  16.744  0.00  0.00    +0.000 C 
ATOM     11  C   UNL     1       6.948   5.095  15.699  0.00  0.00    +0.000 C 
BRANCH  11  12
ATOM     12  C   UNL     1       6.780   4.617  14.362  0.00  0.00    +0.000 A 
ATOM     13  C   UNL     1       5.843   3.741  13.825  0.00  0.00    +0.000 A 
ATOM     14  C   UNL     1       6.031   3.486  12.438  0.00  0.00    +0.000 A 
ATOM     15  C   UNL     1       7.097   4.189  11.933  0.00  0.00    +0.000 A 
ATOM     16  S   UNL     1       7.858   5.149  13.124  0.00  0.00    +0.000 S 
ENDBRANCH  11  12
ENDBRANCH   2  10
TORSDOF 2
ENDMDL
MODEL 4
REMARK VINA RESULT:      -5.8      0.845      1.013
REMARK  Name = 
REMARK  2 active torsions:
REMARK  status: ('A' for Active; 'I' for Inactive)
REMARK    1  A    between atoms: C_2  and  C_3
REMARK    2  A    between atoms: C_4  and  C_5
REMARK                            x       y       z     vdW  Elec       q    Type
REMARK                         _______ _______ _______ _____ _____    ______ ____
ROOT
ATOM      1  O   UNL     1       7.315   6.298  17.437  0.00  0.00    +0.000 OA
ATOM      2  C   UNL     1       6.825   5.523  16.617  0.00  0.00    +0.000 C 
ATOM      3  N   UNL     1       7.291   5.529  15.332  0.00  0.00    +0.000 N 
ATOM      4  C   UNL     1       6.795   4.832  14.266  0.00  0.00    +0.000 A 
ATOM      5  N   UNL     1       5.679   4.156  14.143  0.00  0.00    +0.000 NA
ATOM      6  N   UNL     1       5.575   3.534  12.918  0.00  0.00    +0.000 NA
ATOM      7  C   UNL     1       6.615   3.789  12.158  0.00  0.00    +0.000 A 
ATOM      8  S   UNL     1       7.782   4.829  12.872  0.00  0.00    +0.000 S 
ATOM      9  H   UNL     1       8.095   6.119  15.170  0.00  0.00    +0.000 HD
ENDROOT
BRANCH   2  10
ATOM     10  C   UNL     1       5.805   4.527  17.025  0.00  0.00    +0.000 C 
ATOM     11  C   UNL     1       4.658   4.873  17.628  0.00  0.00    +0.000 C 
BRANCH  11  12
ATOM     12  C   UNL     1       3.717   3.870  18.023  0.00  0.00    +0.000 A 
ATOM     13  C   UNL     1       3.910   2.647  18.655  0.00  0.00    +0.000 A 
ATOM     14  C   UNL     1       2.709   1.910  18.850  0.00  0.00    +0.000 A 
ATOM     15  C   UNL     1       1.613   2.594  18.381  0.00  0.00    +0.000 A 
ATOM     16  S   UNL     1       2.036   4.110  17.717  0.00  0.00    +0.000 S 
ENDBRANCH  11  12
ENDBRANCH   2  10
TORSDOF 2
ENDMDL
MODEL 5
REMARK VINA RESULT:      -5.7      2.361      5.622
REMARK  Name = 
REMARK  2 active torsions:
REMARK  status: ('A' for Active; 'I' for Inactive)
REMARK    1  A    between atoms: C_2  and  C_3
REMARK    2  A    between atoms: C_4  and  C_5
REMARK                            x       y       z     vdW  Elec       q    Type
REMARK                         _______ _______ _______ _____ _____    ______ ____
ROOT
ATOM      1  O   UNL     1       7.324   5.056  18.772  0.00  0.00    +0.000 OA
ATOM      2  C   UNL     1       6.317   4.710  18.156  0.00  0.00    +0.000 C 
ATOM      3  N   UNL     1       5.107   4.731  18.791  0.00  0.00    +0.000 N 
ATOM      4  C   UNL     1       3.910   4.276  18.312  0.00  0.00    +0.000 A 
ATOM      5  N   UNL     1       3.643   3.554  17.252  0.00  0.00    +0.000 NA
ATOM      6  N   UNL     1       2.291   3.358  17.077  0.00  0.00    +0.000 NA
ATOM      7  C   UNL     1       1.595   3.928  18.033  0.00  0.00    +0.000 A 
ATOM      8  S   UNL     1       2.540   4.718  19.231  0.00  0.00    +0.000 S 
ATOM      9  H   UNL     1       5.116   5.135  19.716  0.00  0.00    +0.000 HD
ENDROOT
BRANCH   2  10
ATOM     10  C   UNL     1       6.387   4.358  16.717  0.00  0.00    +0.000 C 
ATOM     11  C   UNL     1       6.903   5.184  15.795  0.00  0.00    +0.000 C 
BRANCH  11  12
ATOM     12  C   UNL     1       6.927   4.806  14.416  0.00  0.00    +0.000 A 
ATOM     13  C   UNL     1       7.746   5.231  13.376  0.00  0.00    +0.000 A 
ATOM     14  C   UNL     1       7.432   4.635  12.123  0.00  0.00    +0.000 A 
ATOM     15  C   UNL     1       6.389   3.747  12.231  0.00  0.00    +0.000 A 
ATOM     16  S   UNL     1       5.802   3.636  13.832  0.00  0.00    +0.000 S 
ENDBRANCH  11  12
ENDBRANCH   2  10
TORSDOF 2
ENDMDL
MODEL 6
REMARK VINA RESULT:      -5.7      2.616      3.751
REMARK  Name = 
REMARK  2 active torsions:
REMARK  status: ('A' for Active; 'I' for Inactive)
REMARK    1  A    between atoms: C_2  and  C_3
REMARK    2  A    between atoms: C_4  and  C_5
REMARK                            x       y       z     vdW  Elec       q    Type
REMARK                         _______ _______ _______ _____ _____    ______ ____
ROOT
ATOM      1  O   UNL     1       5.251   4.711  14.516  0.00  0.00    +0.000 OA
ATOM      2  C   UNL     1       5.426   4.692  15.734  0.00  0.00    +0.000 C 
ATOM      3  N   UNL     1       6.403   5.474  16.280  0.00  0.00    +0.000 N 
ATOM      4  C   UNL     1       6.818   5.496  17.583  0.00  0.00    +0.000 A 
ATOM      5  N   UNL     1       6.545   4.680  18.571  0.00  0.00    +0.000 NA
ATOM      6  N   UNL     1       7.110   5.087  19.760  0.00  0.00    +0.000 NA
ATOM      7  C   UNL     1       7.808   6.188  19.608  0.00  0.00    +0.000 A 
ATOM      8  S   UNL     1       7.849   6.792  18.000  0.00  0.00    +0.000 S 
ATOM      9  H   UNL     1       6.860   6.103  15.635  0.00  0.00    +0.000 HD
ENDROOT
BRANCH   2  10
ATOM     10  C   UNL     1       4.534   3.903  16.618  0.00  0.00    +0.000 C 
ATOM     11  C   UNL     1       3.422   4.415  17.166  0.00  0.00    +0.000 C 
BRANCH  11  12
ATOM     12  C   UNL     1       2.608   3.617  18.031  0.00  0.00    +0.000 A 
ATOM     13  C   UNL     1       1.235   3.635  18.249  0.00  0.00    +0.000 A 
ATOM     14  C   UNL     1       0.801   2.694  19.224  0.00  0.00    +0.000 A 
ATOM     15  C   UNL     1       1.849   1.957  19.720  0.00  0.00    +0.000 A 
ATOM     16  S   UNL     1       3.339   2.399  19.008  0.00  0.00    +0.000 S 
ENDBRANCH  11  12
ENDBRANCH   2  10
TORSDOF 2
ENDMDL
MODEL 7
REMARK VINA RESULT:      -5.7      1.993      2.274
REMARK  Name = 
REMARK  2 active torsions:
REMARK  status: ('A' for Active; 'I' for Inactive)
REMARK    1  A    between atoms: C_2  and  C_3
REMARK    2  A    between atoms: C_4  and  C_5
REMARK                            x       y       z     vdW  Elec       q    Type
REMARK                         _______ _______ _______ _____ _____    ______ ____
ROOT
ATOM      1  O   UNL     1       7.063   5.527  19.917  0.00  0.00    +0.000 OA
ATOM      2  C   UNL     1       6.423   5.080  18.966  0.00  0.00    +0.000 C 
ATOM      3  N   UNL     1       6.931   5.202  17.704  0.00  0.00    +0.000 N 
ATOM      4  C   UNL     1       6.317   4.875  16.527  0.00  0.00    +0.000 A 
ATOM      5  N   UNL     1       5.068   4.558  16.284  0.00  0.00    +0.000 NA
ATOM      6  N   UNL     1       4.858   4.228  14.963  0.00  0.00    +0.000 NA
ATOM      7  C   UNL     1       5.961   4.333  14.259  0.00  0.00    +0.000 A 
ATOM      8  S   UNL     1       7.329   4.869  15.151  0.00  0.00    +0.000 S 
ATOM      9  H   UNL     1       7.868   5.574  17.653  0.00  0.00    +0.000 HD
ENDROOT
BRANCH   2  10
ATOM     10  C   UNL     1       5.159   4.335  19.183  0.00  0.00    +0.000 C 
ATOM     11  C   UNL     1       4.024   4.935  19.575  0.00  0.00    +0.000 C 
BRANCH  11  12
ATOM     12  C   UNL     1       2.837   4.167  19.791  0.00  0.00    +0.000 A 
ATOM     13  C   UNL     1       1.889   3.695  18.890  0.00  0.00    +0.000 A 
ATOM     14  C   UNL     1       0.820   2.988  19.507  0.00  0.00    +0.000 A 
ATOM     15  C   UNL     1       0.980   2.913  20.869  0.00  0.00    +0.000 A 
ATOM     16  S   UNL     1       2.411   3.687  21.392  0.00  0.00    +0.000 S 
ENDBRANCH  11  12
ENDBRANCH   2  10
TORSDOF 2
ENDMDL
MODEL 8
REMARK VINA RESULT:      -5.7      3.801      4.599
REMARK  Name = 
REMARK  2 active torsions:
REMARK  status: ('A' for Active; 'I' for Inactive)
REMARK    1  A    between atoms: C_2  and  C_3
REMARK    2  A    between atoms: C_4  and  C_5
REMARK                            x       y       z     vdW  Elec       q    Type
REMARK                         _______ _______ _______ _____ _____    ______ ____
ROOT
ATOM      1  O   UNL     1       3.095   3.093  19.136  0.00  0.00    +0.000 OA
ATOM      2  C   UNL     1       3.484   3.932  18.324  0.00  0.00    +0.000 C 
ATOM      3  N   UNL     1       4.481   3.604  17.451  0.00  0.00    +0.000 N 
ATOM      4  C   UNL     1       5.117   4.431  16.568  0.00  0.00    +0.000 A 
ATOM      5  N   UNL     1       5.085   5.737  16.459  0.00  0.00    +0.000 NA
ATOM      6  N   UNL     1       5.820   6.193  15.386  0.00  0.00    +0.000 NA
ATOM      7  C   UNL     1       6.396   5.204  14.743  0.00  0.00    +0.000 A 
ATOM      8  S   UNL     1       6.107   3.649  15.415  0.00  0.00    +0.000 S 
ATOM      9  H   UNL     1       4.768   2.636  17.471  0.00  0.00    +0.000 HD
ENDROOT
BRANCH   2  10
ATOM     10  C   UNL     1       2.824   5.257  18.224  0.00  0.00    +0.000 C 
ATOM     11  C   UNL     1       2.958   6.204  19.165  0.00  0.00    +0.000 C 
BRANCH  11  12
ATOM     12  C   UNL     1       2.281   7.457  19.031  0.00  0.00    +0.000 A 
ATOM     13  C   UNL     1       2.096   8.270  17.919  0.00  0.00    +0.000 A 
ATOM     14  C   UNL     1       1.386   9.470  18.202  0.00  0.00    +0.000 A 
ATOM     15  C   UNL     1       1.023   9.544  19.525  0.00  0.00    +0.000 A 
ATOM     16  S   UNL     1       1.532   8.174  20.410  0.00  0.00    +0.000 S 
ENDBRANCH  11  12
ENDBRANCH   2  10
TORSDOF 2
ENDMDL
MODEL 9
REMARK VINA RESULT:      -5.6      3.347      3.930
REMARK  Name = 
REMARK  2 active torsions:
REMARK  status: ('A' for Active; 'I' for Inactive)
REMARK    1  A    between atoms: C_2  and  C_3
REMARK    2  A    between atoms: C_4  and  C_5
REMARK                            x       y       z     vdW  Elec       q    Type
REMARK                         _______ _______ _______ _____ _____    ______ ____
ROOT
ATOM      1  O   UNL     1       2.619   8.357  17.698  0.00  0.00    +0.000 OA
ATOM      2  C   UNL     1       3.305   7.339  17.791  0.00  0.00    +0.000 C 
ATOM      3  N   UNL     1       4.634   7.401  17.482  0.00  0.00    +0.000 N 
ATOM      4  C   UNL     1       5.520   6.362  17.414  0.00  0.00    +0.000 A 
ATOM      5  N   UNL     1       5.309   5.068  17.430  0.00  0.00    +0.000 NA
ATOM      6  N   UNL     1       6.481   4.345  17.406  0.00  0.00    +0.000 NA
ATOM      7  C   UNL     1       7.530   5.131  17.350  0.00  0.00    +0.000 A 
ATOM      8  S   UNL     1       7.164   6.809  17.294  0.00  0.00    +0.000 S 
ATOM      9  H   UNL     1       4.987   8.327  17.288  0.00  0.00    +0.000 HD
ENDROOT
BRANCH   2  10
ATOM     10  C   UNL     1       2.729   6.078  18.318  0.00  0.00    +0.000 C 
ATOM     11  C   UNL     1       2.651   5.812  19.630  0.00  0.00    +0.000 C 
BRANCH  11  12
ATOM     12  C   UNL     1       2.106   4.570  20.086  0.00  0.00    +0.000 A 
ATOM     13  C   UNL     1       2.053   4.020  21.362  0.00  0.00    +0.000 A 
ATOM     14  C   UNL     1       1.451   2.732  21.402  0.00  0.00    +0.000 A 
ATOM     15  C   UNL     1       1.034   2.327  20.156  0.00  0.00    +0.000 A 
ATOM     16  S   UNL     1       1.366   3.497  18.956  0.00  0.00    +0.000 S 
ENDBRANCH  11  12
ENDBRANCH   2  10
TORSDOF 2
ENDMDL
