MODEL 1
REMARK VINA RESULT:      -7.1      0.000      0.000
REMARK  Name = 
REMARK  5 active torsions:
REMARK  status: ('A' for Active; 'I' for Inactive)
REMARK    1  A    between atoms: C_1  and  O_2
REMARK    2  A    between atoms: O_2  and  C_3
REMARK    3  A    between atoms: C_12  and  O_13
REMARK    4  A    between atoms: O_13  and  C_14
REMARK    5  A    between atoms: N_20  and  O_21
REMARK                            x       y       z     vdW  Elec       q    Type
REMARK                         _______ _______ _______ _____ _____    ______ ____
ROOT
ATOM      1  C   UNL     1       5.899   6.029  16.485  0.00  0.00    +0.000 A 
ATOM      2  C   UNL     1       6.742   5.308  15.636  0.00  0.00    +0.000 A 
ATOM      3  C   UNL     1       6.602   3.937  15.525  0.00  0.00    +0.000 A 
ATOM      4  C   UNL     1       5.638   3.274  16.283  0.00  0.00    +0.000 A 
ATOM      5  C   UNL     1       4.779   3.954  17.164  0.00  0.00    +0.000 A 
ATOM      6  C   UNL     1       4.902   5.354  17.247  0.00  0.00    +0.000 A 
ATOM      7  C   UNL     1       3.950   6.137  18.082  0.00  0.00    +0.000 C 
ATOM      8  O   UNL     1       3.912   7.358  17.984  0.00  0.00    +0.000 OA
ATOM      9  C   UNL     1       2.988   5.446  18.978  0.00  0.00    +0.000 A 
ATOM     10  C   UNL     1       2.148   6.167  19.870  0.00  0.00    +0.000 A 
ATOM     11  C   UNL     1       1.212   5.481  20.655  0.00  0.00    +0.000 A 
ATOM     12  C   UNL     1       1.105   4.098  20.577  0.00  0.00    +0.000 A 
ATOM     13  C   UNL     1       1.940   3.394  19.717  0.00  0.00    +0.000 A 
ATOM     14  C   UNL     1       2.886   4.057  18.909  0.00  0.00    +0.000 A 
ATOM     15  C   UNL     1       3.755   3.231  18.003  0.00  0.00    +0.000 C 
ATOM     16  N   UNL     1       3.513   1.947  18.072  0.00  0.00    +0.000 NA
ENDROOT
BRANCH   1  18
ATOM     17  C   UNL     1       7.250   7.812  17.323  0.00  0.00    +0.000 C 
ATOM     18  O   UNL     1       6.068   7.380  16.659  0.00  0.00    +0.000 OA
ENDBRANCH   1  18
BRANCH  10  19
ATOM     19  O   UNL     1       2.304   7.526  19.937  0.00  0.00    +0.000 OA
ATOM     20  C   UNL     1       1.440   8.287  20.767  0.00  0.00    +0.000 C 
ENDBRANCH  10  19
BRANCH  16  21
ATOM     21  O   UNL     1       4.283   1.104  17.296  0.00  0.00    +0.000 OA
ATOM     22  H   UNL     1       4.214   1.509  16.410  0.00  0.00    +0.000 HD
ENDBRANCH  16  21
TORSDOF 3
ENDMDL
MODEL 2
REMARK VINA RESULT:      -6.8      0.475      4.875
REMARK  Name = 
REMARK  5 active torsions:
REMARK  status: ('A' for Active; 'I' for Inactive)
REMARK    1  A    between atoms: C_1  and  O_2
REMARK    2  A    between atoms: O_2  and  C_3
REMARK    3  A    between atoms: C_12  and  O_13
REMARK    4  A    between atoms: O_13  and  C_14
REMARK    5  A    between atoms: N_20  and  O_21
REMARK                            x       y       z     vdW  Elec       q    Type
REMARK                         _______ _______ _______ _____ _____    ______ ____
ROOT
ATOM      1  C   UNL     1       2.192   6.163  19.859  0.00  0.00    +0.000 A 
ATOM      2  C   UNL     1       1.189   5.524  20.591  0.00  0.00    +0.000 A 
ATOM      3  C   UNL     1       1.007   4.158  20.467  0.00  0.00    +0.000 A 
ATOM      4  C   UNL     1       1.808   3.428  19.590  0.00  0.00    +0.000 A 
ATOM      5  C   UNL     1       2.818   4.029  18.820  0.00  0.00    +0.000 A 
ATOM      6  C   UNL     1       3.022   5.414  18.976  0.00  0.00    +0.000 A 
ATOM      7  C   UNL     1       4.147   6.086  18.266  0.00  0.00    +0.000 C 
ATOM      8  O   UNL     1       4.463   7.230  18.568  0.00  0.00    +0.000 OA
ATOM      9  C   UNL     1       4.942   5.352  17.249  0.00  0.00    +0.000 A 
ATOM     10  C   UNL     1       5.943   5.999  16.475  0.00  0.00    +0.000 A 
ATOM     11  C   UNL     1       6.712   5.258  15.568  0.00  0.00    +0.000 A 
ATOM     12  C   UNL     1       6.496   3.895  15.410  0.00  0.00    +0.000 A 
ATOM     13  C   UNL     1       5.504   3.268  16.155  0.00  0.00    +0.000 A 
ATOM     14  C   UNL     1       4.719   3.986  17.081  0.00  0.00    +0.000 A 
ATOM     15  C   UNL     1       3.665   3.242  17.851  0.00  0.00    +0.000 C 
ATOM     16  N   UNL     1       3.606   1.967  17.563  0.00  0.00    +0.000 NA
ENDROOT
BRANCH   1  18
ATOM     17  C   UNL     1       1.442   8.248  20.750  0.00  0.00    +0.000 C 
ATOM     18  O   UNL     1       2.343   7.526  19.918  0.00  0.00    +0.000 OA
ENDBRANCH   1  18
BRANCH  10  19
ATOM     19  O   UNL     1       6.106   7.349  16.641  0.00  0.00    +0.000 OA
ATOM     20  C   UNL     1       7.297   7.840  17.237  0.00  0.00    +0.000 C 
ENDBRANCH  10  19
BRANCH  16  21
ATOM     21  O   UNL     1       2.647   1.206  18.201  0.00  0.00    +0.000 OA
ATOM     22  H   UNL     1       3.033   0.311  18.174  0.00  0.00    +0.000 HD
ENDBRANCH  16  21
TORSDOF 3
ENDMDL
MODEL 3
REMARK VINA RESULT:      -6.6      2.462      5.018
REMARK  Name = 
REMARK  5 active torsions:
REMARK  status: ('A' for Active; 'I' for Inactive)
REMARK    1  A    between atoms: C_1  and  O_2
REMARK    2  A    between atoms: O_2  and  C_3
REMARK    3  A    between atoms: C_12  and  O_13
REMARK    4  A    between atoms: O_13  and  C_14
REMARK    5  A    between atoms: N_20  and  O_21
REMARK                            x       y       z     vdW  Elec       q    Type
REMARK                         _______ _______ _______ _____ _____    ______ ____
ROOT
ATOM      1  C   UNL     1       1.428   8.315  19.863  0.00  0.00    +0.000 A 
ATOM      2  C   UNL     1       1.419   9.497  19.119  0.00  0.00    +0.000 A 
ATOM      3  C   UNL     1       2.136   9.576  17.939  0.00  0.00    +0.000 A 
ATOM      4  C   UNL     1       2.889   8.483  17.510  0.00  0.00    +0.000 A 
ATOM      5  C   UNL     1       2.943   7.279  18.233  0.00  0.00    +0.000 A 
ATOM      6  C   UNL     1       2.183   7.193  19.415  0.00  0.00    +0.000 A 
ATOM      7  C   UNL     1       2.117   5.908  20.166  0.00  0.00    +0.000 C 
ATOM      8  O   UNL     1       1.292   5.763  21.059  0.00  0.00    +0.000 OA
ATOM      9  C   UNL     1       2.992   4.768  19.788  0.00  0.00    +0.000 A 
ATOM     10  C   UNL     1       3.034   3.573  20.555  0.00  0.00    +0.000 A 
ATOM     11  C   UNL     1       3.827   2.498  20.132  0.00  0.00    +0.000 A 
ATOM     12  C   UNL     1       4.584   2.597  18.971  0.00  0.00    +0.000 A 
ATOM     13  C   UNL     1       4.555   3.773  18.232  0.00  0.00    +0.000 A 
ATOM     14  C   UNL     1       3.761   4.868  18.629  0.00  0.00    +0.000 A 
ATOM     15  C   UNL     1       3.779   6.109  17.781  0.00  0.00    +0.000 C 
ATOM     16  N   UNL     1       4.555   6.015  16.732  0.00  0.00    +0.000 NA
ENDROOT
BRANCH   1  18
ATOM     17  C   UNL     1       1.163   9.169  22.077  0.00  0.00    +0.000 C 
ATOM     18  O   UNL     1       0.778   8.242  21.069  0.00  0.00    +0.000 OA
ENDBRANCH   1  18
BRANCH  10  19
ATOM     19  O   UNL     1       2.294   3.527  21.708  0.00  0.00    +0.000 OA
ATOM     20  C   UNL     1       1.369   2.468  21.901  0.00  0.00    +0.000 C 
ENDBRANCH  10  19
BRANCH  16  21
ATOM     21  O   UNL     1       4.659   7.117  15.907  0.00  0.00    +0.000 OA
ATOM     22  H   UNL     1       5.259   7.702  16.408  0.00  0.00    +0.000 HD
ENDBRANCH  16  21
TORSDOF 3
ENDMDL
MODEL 4
REMARK VINA RESULT:      -6.5      2.558      4.727
REMARK  Name = 
REMARK  5 active torsions:
REMARK  status: ('A' for Active; 'I' for Inactive)
REMARK    1  A    between atoms: C_1  and  O_2
REMARK    2  A    between atoms: O_2  and  C_3
REMARK    3  A    between atoms: C_12  and  O_13
REMARK    4  A    between atoms: O_13  and  C_14
REMARK    5  A    between atoms: N_20  and  O_21
REMARK                            x       y       z     vdW  Elec       q    Type
REMARK                         _______ _______ _______ _____ _____    ______ ____
ROOT
ATOM      1  C   UNL     1       2.846   4.052  20.373  0.00  0.00    +0.000 A 
ATOM      2  C   UNL     1       3.642   2.999  19.913  0.00  0.00    +0.000 A 
ATOM      3  C   UNL     1       4.435   3.172  18.793  0.00  0.00    +0.000 A 
ATOM      4  C   UNL     1       4.417   4.388  18.110  0.00  0.00    +0.000 A 
ATOM      5  C   UNL     1       3.620   5.469  18.525  0.00  0.00    +0.000 A 
ATOM      6  C   UNL     1       2.842   5.299  19.686  0.00  0.00    +0.000 A 
ATOM      7  C   UNL     1       2.061   6.444  20.232  0.00  0.00    +0.000 C 
ATOM      8  O   UNL     1       1.566   6.368  21.350  0.00  0.00    +0.000 OA
ATOM      9  C   UNL     1       1.942   7.711  19.466  0.00  0.00    +0.000 A 
ATOM     10  C   UNL     1       1.111   8.775  19.907  0.00  0.00    +0.000 A 
ATOM     11  C   UNL     1       1.073   9.977  19.187  0.00  0.00    +0.000 A 
ATOM     12  C   UNL     1       1.835  10.131  18.035  0.00  0.00    +0.000 A 
ATOM     13  C   UNL     1       2.633   9.082  17.596  0.00  0.00    +0.000 A 
ATOM     14  C   UNL     1       2.697   7.864  18.303  0.00  0.00    +0.000 A 
ATOM     15  C   UNL     1       3.582   6.773  17.769  0.00  0.00    +0.000 C 
ATOM     16  N   UNL     1       4.215   7.102  16.673  0.00  0.00    +0.000 NA
ENDROOT
BRANCH   1  18
ATOM     17  C   UNL     1       1.462   2.576  21.642  0.00  0.00    +0.000 C 
ATOM     18  O   UNL     1       2.003   3.877  21.442  0.00  0.00    +0.000 OA
ENDBRANCH   1  18
BRANCH  10  19
ATOM     19  O   UNL     1       0.355   8.573  21.032  0.00  0.00    +0.000 OA
ATOM     20  C   UNL     1       0.114   9.657  21.915  0.00  0.00    +0.000 C 
ENDBRANCH  10  19
BRANCH  16  21
ATOM     21  O   UNL     1       5.031   6.152  16.091  0.00  0.00    +0.000 OA
ATOM     22  H   UNL     1       4.970   5.406  16.718  0.00  0.00    +0.000 HD
ENDBRANCH  16  21
TORSDOF 3
ENDMDL
MODEL 5
REMARK VINA RESULT:      -6.5      2.149      5.880
REMARK  Name = 
REMARK  5 active torsions:
REMARK  status: ('A' for Active; 'I' for Inactive)
REMARK    1  A    between atoms: C_1  and  O_2
REMARK    2  A    between atoms: O_2  and  C_3
REMARK    3  A    between atoms: C_12  and  O_13
REMARK    4  A    between atoms: O_13  and  C_14
REMARK    5  A    between atoms: N_20  and  O_21
REMARK                            x       y       z     vdW  Elec       q    Type
REMARK                         _______ _______ _______ _____ _____    ______ ____
ROOT
ATOM      1  C   UNL     1       3.316   2.426  20.128  0.00  0.00    +0.000 A 
ATOM      2  C   UNL     1       2.590   2.372  21.320  0.00  0.00    +0.000 A 
ATOM      3  C   UNL     1       1.968   3.509  21.801  0.00  0.00    +0.000 A 
ATOM      4  C   UNL     1       2.090   4.713  21.109  0.00  0.00    +0.000 A 
ATOM      5  C   UNL     1       2.825   4.821  19.916  0.00  0.00    +0.000 A 
ATOM      6  C   UNL     1       3.427   3.652  19.412  0.00  0.00    +0.000 A 
ATOM      7  C   UNL     1       4.127   3.682  18.097  0.00  0.00    +0.000 C 
ATOM      8  O   UNL     1       4.455   2.634  17.555  0.00  0.00    +0.000 OA
ATOM      9  C   UNL     1       4.362   4.971  17.398  0.00  0.00    +0.000 A 
ATOM     10  C   UNL     1       5.126   5.043  16.202  0.00  0.00    +0.000 A 
ATOM     11  C   UNL     1       5.274   6.270  15.540  0.00  0.00    +0.000 A 
ATOM     12  C   UNL     1       4.688   7.420  16.051  0.00  0.00    +0.000 A 
ATOM     13  C   UNL     1       3.955   7.351  17.230  0.00  0.00    +0.000 A 
ATOM     14  C   UNL     1       3.783   6.130  17.915  0.00  0.00    +0.000 A 
ATOM     15  C   UNL     1       2.979   6.130  19.184  0.00  0.00    +0.000 C 
ATOM     16  N   UNL     1       2.512   7.308  19.508  0.00  0.00    +0.000 NA
ENDROOT
BRANCH   1  18
ATOM     17  C   UNL     1       5.106   0.874  20.440  0.00  0.00    +0.000 C 
ATOM     18  O   UNL     1       3.996   1.324  19.671  0.00  0.00    +0.000 OA
ENDBRANCH   1  18
BRANCH  10  19
ATOM     19  O   UNL     1       5.711   3.891  15.747  0.00  0.00    +0.000 OA
ATOM     20  C   UNL     1       6.271   3.861  14.442  0.00  0.00    +0.000 C 
ENDBRANCH  10  19
BRANCH  16  21
ATOM     21  O   UNL     1       1.784   7.412  20.677  0.00  0.00    +0.000 OA
ATOM     22  H   UNL     1       0.862   7.371  20.358  0.00  0.00    +0.000 HD
ENDBRANCH  16  21
TORSDOF 3
ENDMDL
MODEL 6
REMARK VINA RESULT:      -6.4      2.175      3.416
REMARK  Name = 
REMARK  5 active torsions:
REMARK  status: ('A' for Active; 'I' for Inactive)
REMARK    1  A    between atoms: C_1  and  O_2
REMARK    2  A    between atoms: O_2  and  C_3
REMARK    3  A    between atoms: C_12  and  O_13
REMARK    4  A    between atoms: O_13  and  C_14
REMARK    5  A    between atoms: N_20  and  O_21
REMARK                            x       y       z     vdW  Elec       q    Type
REMARK                         _______ _______ _______ _____ _____    ______ ____
ROOT
ATOM      1  C   UNL     1       4.437   5.360  17.051  0.00  0.00    +0.000 A 
ATOM      2  C   UNL     1       4.893   4.041  17.118  0.00  0.00    +0.000 A 
ATOM      3  C   UNL     1       4.488   3.223  18.157  0.00  0.00    +0.000 A 
ATOM      4  C   UNL     1       3.647   3.726  19.149  0.00  0.00    +0.000 A 
ATOM      5  C   UNL     1       3.176   5.050  19.133  0.00  0.00    +0.000 A 
ATOM      6  C   UNL     1       3.563   5.868  18.054  0.00  0.00    +0.000 A 
ATOM      7  C   UNL     1       3.011   7.246  17.928  0.00  0.00    +0.000 C 
ATOM      8  O   UNL     1       3.167   7.874  16.889  0.00  0.00    +0.000 OA
ATOM      9  C   UNL     1       2.201   7.836  19.025  0.00  0.00    +0.000 A 
ATOM     10  C   UNL     1       1.759   9.186  18.982  0.00  0.00    +0.000 A 
ATOM     11  C   UNL     1       0.947   9.688  20.008  0.00  0.00    +0.000 A 
ATOM     12  C   UNL     1       0.580   8.878  21.075  0.00  0.00    +0.000 A 
ATOM     13  C   UNL     1       1.028   7.563  21.123  0.00  0.00    +0.000 A 
ATOM     14  C   UNL     1       1.840   7.028  20.102  0.00  0.00    +0.000 A 
ATOM     15  C   UNL     1       2.288   5.599  20.221  0.00  0.00    +0.000 C 
ATOM     16  N   UNL     1       1.847   4.999  21.297  0.00  0.00    +0.000 NA
ENDROOT
BRANCH   1  18
ATOM     17  C   UNL     1       5.689   5.644  15.036  0.00  0.00    +0.000 C 
ATOM     18  O   UNL     1       4.883   6.206  16.065  0.00  0.00    +0.000 OA
ENDBRANCH   1  18
BRANCH  10  19
ATOM     19  O   UNL     1       2.166   9.959  17.927  0.00  0.00    +0.000 OA
ATOM     20  C   UNL     1       2.189  11.372  18.064  0.00  0.00    +0.000 C 
ENDBRANCH  10  19
BRANCH  16  21
ATOM     21  O   UNL     1       2.231   3.690  21.508  0.00  0.00    +0.000 OA
ATOM     22  H   UNL     1       1.497   3.186  21.108  0.00  0.00    +0.000 HD
ENDBRANCH  16  21
TORSDOF 3
ENDMDL
MODEL 7
REMARK VINA RESULT:      -5.9      2.196      4.125
REMARK  Name = 
REMARK  5 active torsions:
REMARK  status: ('A' for Active; 'I' for Inactive)
REMARK    1  A    between atoms: C_1  and  O_2
REMARK    2  A    between atoms: O_2  and  C_3
REMARK    3  A    between atoms: C_12  and  O_13
REMARK    4  A    between atoms: O_13  and  C_14
REMARK    5  A    between atoms: N_20  and  O_21
REMARK                            x       y       z     vdW  Elec       q    Type
REMARK                         _______ _______ _______ _____ _____    ______ ____
ROOT
ATOM      1  C   UNL     1       5.558   5.328  16.665  0.00  0.00    +0.000 A 
ATOM      2  C   UNL     1       5.573   6.505  15.912  0.00  0.00    +0.000 A 
ATOM      3  C   UNL     1       4.739   7.553  16.253  0.00  0.00    +0.000 A 
ATOM      4  C   UNL     1       3.865   7.423  17.332  0.00  0.00    +0.000 A 
ATOM      5  C   UNL     1       3.802   6.253  18.108  0.00  0.00    +0.000 A 
ATOM      6  C   UNL     1       4.678   5.201  17.778  0.00  0.00    +0.000 A 
ATOM      7  C   UNL     1       4.731   3.980  18.629  0.00  0.00    +0.000 C 
ATOM      8  O   UNL     1       5.636   3.169  18.479  0.00  0.00    +0.000 OA
ATOM      9  C   UNL     1       3.738   3.775  19.715  0.00  0.00    +0.000 A 
ATOM     10  C   UNL     1       3.692   2.570  20.466  0.00  0.00    +0.000 A 
ATOM     11  C   UNL     1       2.780   2.439  21.522  0.00  0.00    +0.000 A 
ATOM     12  C   UNL     1       1.910   3.476  21.833  0.00  0.00    +0.000 A 
ATOM     13  C   UNL     1       1.945   4.647  21.085  0.00  0.00    +0.000 A 
ATOM     14  C   UNL     1       2.856   4.811  20.022  0.00  0.00    +0.000 A 
ATOM     15  C   UNL     1       2.837   6.104  19.257  0.00  0.00    +0.000 C 
ATOM     16  N   UNL     1       1.946   6.957  19.693  0.00  0.00    +0.000 NA
ENDROOT
BRANCH   1  18
ATOM     17  C   UNL     1       6.334   3.888  14.925  0.00  0.00    +0.000 C 
ATOM     18  O   UNL     1       6.330   4.253  16.300  0.00  0.00    +0.000 OA
ENDBRANCH   1  18
BRANCH  10  19
ATOM     19  O   UNL     1       4.548   1.561  20.110  0.00  0.00    +0.000 OA
ATOM     20  C   UNL     1       5.354   0.946  21.103  0.00  0.00    +0.000 C 
ENDBRANCH  10  19
BRANCH  16  21
ATOM     21  O   UNL     1       1.834   8.164  19.032  0.00  0.00    +0.000 OA
ATOM     22  H   UNL     1       2.598   8.147  18.425  0.00  0.00    +0.000 HD
ENDBRANCH  16  21
TORSDOF 3
ENDMDL
MODEL 8
REMARK VINA RESULT:      -5.8      8.056     10.840
REMARK  Name = 
REMARK  5 active torsions:
REMARK  status: ('A' for Active; 'I' for Inactive)
REMARK    1  A    between atoms: C_1  and  O_2
REMARK    2  A    between atoms: O_2  and  C_3
REMARK    3  A    between atoms: C_12  and  O_13
REMARK    4  A    between atoms: O_13  and  C_14
REMARK    5  A    between atoms: N_20  and  O_21
REMARK                            x       y       z     vdW  Elec       q    Type
REMARK                         _______ _______ _______ _____ _____    ______ ____
ROOT
ATOM      1  C   UNL     1      10.010  11.201  18.953  0.00  0.00    +0.000 A 
ATOM      2  C   UNL     1      10.671  11.408  17.741  0.00  0.00    +0.000 A 
ATOM      3  C   UNL     1      11.292  12.619  17.491  0.00  0.00    +0.000 A 
ATOM      4  C   UNL     1      11.232  13.638  18.440  0.00  0.00    +0.000 A 
ATOM      5  C   UNL     1      10.564  13.483  19.667  0.00  0.00    +0.000 A 
ATOM      6  C   UNL     1       9.963  12.236  19.930  0.00  0.00    +0.000 A 
ATOM      7  C   UNL     1       9.334  11.979  21.255  0.00  0.00    +0.000 C 
ATOM      8  O   UNL     1       9.012  10.839  21.568  0.00  0.00    +0.000 OA
ATOM      9  C   UNL     1       9.165  13.080  22.237  0.00  0.00    +0.000 A 
ATOM     10  C   UNL     1       8.466  12.890  23.459  0.00  0.00    +0.000 A 
ATOM     11  C   UNL     1       8.380  13.938  24.386  0.00  0.00    +0.000 A 
ATOM     12  C   UNL     1       8.964  15.169  24.112  0.00  0.00    +0.000 A 
ATOM     13  C   UNL     1       9.631  15.358  22.908  0.00  0.00    +0.000 A 
ATOM     14  C   UNL     1       9.741  14.320  21.960  0.00  0.00    +0.000 A 
ATOM     15  C   UNL     1      10.477  14.596  20.680  0.00  0.00    +0.000 C 
ATOM     16  N   UNL     1      10.951  15.813  20.600  0.00  0.00    +0.000 NA
ENDROOT
BRANCH   1  18
ATOM     17  C   UNL     1       8.456   9.565  18.170  0.00  0.00    +0.000 C 
ATOM     18  O   UNL     1       9.331  10.031  19.190  0.00  0.00    +0.000 OA
ENDBRANCH   1  18
BRANCH  10  19
ATOM     19  O   UNL     1       7.881  11.671  23.679  0.00  0.00    +0.000 OA
ATOM     20  C   UNL     1       6.924  11.532  24.718  0.00  0.00    +0.000 C 
ENDBRANCH  10  19
BRANCH  16  21
ATOM     21  O   UNL     1      11.619  16.169  19.445  0.00  0.00    +0.000 OA
ATOM     22  H   UNL     1      12.002  15.321  19.150  0.00  0.00    +0.000 HD
ENDBRANCH  16  21
TORSDOF 3
ENDMDL
MODEL 9
REMARK VINA RESULT:      -5.7      8.498     11.130
REMARK  Name = 
REMARK  5 active torsions:
REMARK  status: ('A' for Active; 'I' for Inactive)
REMARK    1  A    between atoms: C_1  and  O_2
REMARK    2  A    between atoms: O_2  and  C_3
REMARK    3  A    between atoms: C_12  and  O_13
REMARK    4  A    between atoms: O_13  and  C_14
REMARK    5  A    between atoms: N_20  and  O_21
REMARK                            x       y       z     vdW  Elec       q    Type
REMARK                         _______ _______ _______ _____ _____    ______ ____
ROOT
ATOM      1  C   UNL     1      10.383  11.985  18.980  0.00  0.00    +0.000 A 
ATOM      2  C   UNL     1      11.417  11.659  18.099  0.00  0.00    +0.000 A 
ATOM      3  C   UNL     1      11.854  12.588  17.173  0.00  0.00    +0.000 A 
ATOM      4  C   UNL     1      11.242  13.839  17.104  0.00  0.00    +0.000 A 
ATOM      5  C   UNL     1      10.188  14.207  17.957  0.00  0.00    +0.000 A 
ATOM      6  C   UNL     1       9.770  13.269  18.921  0.00  0.00    +0.000 A 
ATOM      7  C   UNL     1       8.731  13.641  19.921  0.00  0.00    +0.000 C 
ATOM      8  O   UNL     1       8.526  12.918  20.888  0.00  0.00    +0.000 OA
ATOM      9  C   UNL     1       7.993  14.925  19.800  0.00  0.00    +0.000 A 
ATOM     10  C   UNL     1       6.919  15.253  20.670  0.00  0.00    +0.000 A 
ATOM     11  C   UNL     1       6.287  16.500  20.561  0.00  0.00    +0.000 A 
ATOM     12  C   UNL     1       6.697  17.414  19.598  0.00  0.00    +0.000 A 
ATOM     13  C   UNL     1       7.736  17.083  18.737  0.00  0.00    +0.000 A 
ATOM     14  C   UNL     1       8.395  15.840  18.827  0.00  0.00    +0.000 A 
ATOM     15  C   UNL     1       9.510  15.550  17.862  0.00  0.00    +0.000 C 
ATOM     16  N   UNL     1       9.747  16.529  17.027  0.00  0.00    +0.000 NA
ENDROOT
BRANCH   1  18
ATOM     17  C   UNL     1       9.179   9.949  19.312  0.00  0.00    +0.000 C 
ATOM     18  O   UNL     1       9.892  11.052  19.859  0.00  0.00    +0.000 OA
ENDBRANCH   1  18
BRANCH  10  19
ATOM     19  O   UNL     1       6.528  14.313  21.586  0.00  0.00    +0.000 OA
ATOM     20  C   UNL     1       5.319  14.500  22.306  0.00  0.00    +0.000 C 
ENDBRANCH  10  19
BRANCH  16  21
ATOM     21  O   UNL     1      10.736  16.343  16.082  0.00  0.00    +0.000 OA
ATOM     22  H   UNL     1      11.188  17.208  16.073  0.00  0.00    +0.000 HD
ENDBRANCH  16  21
TORSDOF 3
ENDMDL
