MODEL 1
REMARK VINA RESULT:      -6.7      0.000      0.000
REMARK  Name = 
REMARK  5 active torsions:
REMARK  status: ('A' for Active; 'I' for Inactive)
REMARK    1  A    between atoms: C_1  and  O_2
REMARK    2  A    between atoms: O_2  and  C_3
REMARK    3  A    between atoms: C_3  and  C_5
REMARK    4  A    between atoms: C_18  and  C_19
REMARK    5  A    between atoms: C_23  and  C_24
REMARK                            x       y       z     vdW  Elec       q    Type
REMARK                         _______ _______ _______ _____ _____    ______ ____
ROOT
ATOM      1  C   UNL     1       1.445  10.647  19.702  0.00  0.00    +0.000 C 
ATOM      2  C   UNL     1       0.546  10.426  20.939  0.00  0.00    +0.000 C 
ATOM      3  C   UNL     1       0.426   8.907  21.130  0.00  0.00    +0.000 C 
ATOM      4  C   UNL     1       1.490   8.332  20.201  0.00  0.00    +0.000 C 
ATOM      5  C   UNL     1       1.410   6.850  19.812  0.00  0.00    +0.000 C 
ATOM      6  C   UNL     1       1.427   5.923  21.039  0.00  0.00    +0.000 C 
ATOM      7  C   UNL     1       1.430   4.444  20.646  0.00  0.00    +0.000 C 
ATOM      8  C   UNL     1       2.566   4.144  19.670  0.00  0.00    +0.000 C 
ATOM      9  N   UNL     1       2.667   2.735  19.341  0.00  0.00    +0.000 N 
ATOM     10  C   UNL     1       3.606   2.302  18.443  0.00  0.00    +0.000 C 
ATOM     11  O   UNL     1       3.931   1.126  18.344  0.00  0.00    +0.000 OA
ATOM     12  C   UNL     1       4.213   3.346  17.577  0.00  0.00    +0.000 C 
ATOM     13  C   UNL     1       3.707   4.592  17.521  0.00  0.00    +0.000 C 
ATOM     14  C   UNL     1       2.513   5.015  18.373  0.00  0.00    +0.000 C 
ATOM     15  C   UNL     1       1.243   4.717  17.536  0.00  0.00    +0.000 C 
ATOM     16  C   UNL     1       2.581   6.513  18.824  0.00  0.00    +0.000 C 
ATOM     17  C   UNL     1       2.688   7.527  17.652  0.00  0.00    +0.000 C 
ATOM     18  C   UNL     1       2.659   8.991  18.113  0.00  0.00    +0.000 C 
ATOM     19  C   UNL     1       1.420   9.276  18.973  0.00  0.00    +0.000 C 
ATOM     20  C   UNL     1       0.138   9.053  18.126  0.00  0.00    +0.000 C 
ATOM     21  H   UNL     1       2.355   2.025  19.991  0.00  0.00    +0.000 HD
ENDROOT
BRANCH   1  22
ATOM     22  C   UNL     1       1.067  11.897  18.908  0.00  0.00    +0.000 C 
ATOM     23  O   UNL     1       1.808  12.469  18.132  0.00  0.00    +0.000 OA
BRANCH  22  25
ATOM     24  C   UNL     1      -1.152  12.412  18.231  0.00  0.00    +0.000 C 
ATOM     25  O   UNL     1      -0.171  12.346  19.273  0.00  0.00    +0.000 OA
ENDBRANCH  22  25
ENDBRANCH   1  22
TORSDOF 2
ENDMDL
MODEL 2
REMARK VINA RESULT:      -6.7      0.537      1.033
REMARK  Name = 
REMARK  5 active torsions:
REMARK  status: ('A' for Active; 'I' for Inactive)
REMARK    1  A    between atoms: C_1  and  O_2
REMARK    2  A    between atoms: O_2  and  C_3
REMARK    3  A    between atoms: C_3  and  C_5
REMARK    4  A    between atoms: C_18  and  C_19
REMARK    5  A    between atoms: C_23  and  C_24
REMARK                            x       y       z     vdW  Elec       q    Type
REMARK                         _______ _______ _______ _____ _____    ______ ____
ROOT
ATOM      1  C   UNL     1       1.481  10.692  19.558  0.00  0.00    +0.000 C 
ATOM      2  C   UNL     1       0.580  10.503  20.799  0.00  0.00    +0.000 C 
ATOM      3  C   UNL     1       0.457   8.990  21.029  0.00  0.00    +0.000 C 
ATOM      4  C   UNL     1       1.521   8.390  20.116  0.00  0.00    +0.000 C 
ATOM      5  C   UNL     1       1.439   6.898  19.764  0.00  0.00    +0.000 C 
ATOM      6  C   UNL     1       1.453   6.003  21.014  0.00  0.00    +0.000 C 
ATOM      7  C   UNL     1       1.454   4.514  20.659  0.00  0.00    +0.000 C 
ATOM      8  C   UNL     1       2.591   4.187  19.692  0.00  0.00    +0.000 C 
ATOM      9  N   UNL     1       2.690   2.770  19.399  0.00  0.00    +0.000 N 
ATOM     10  C   UNL     1       3.629   2.314  18.513  0.00  0.00    +0.000 C 
ATOM     11  O   UNL     1       3.952   1.135  18.444  0.00  0.00    +0.000 OA
ATOM     12  C   UNL     1       4.239   3.334  17.621  0.00  0.00    +0.000 C 
ATOM     13  C   UNL     1       3.735   4.579  17.534  0.00  0.00    +0.000 C 
ATOM     14  C   UNL     1       2.541   5.025  18.374  0.00  0.00    +0.000 C 
ATOM     15  C   UNL     1       1.271   4.708  17.543  0.00  0.00    +0.000 C 
ATOM     16  C   UNL     1       2.611   6.535  18.787  0.00  0.00    +0.000 C 
ATOM     17  C   UNL     1       2.721   7.518  17.589  0.00  0.00    +0.000 C 
ATOM     18  C   UNL     1       2.694   8.994  18.013  0.00  0.00    +0.000 C 
ATOM     19  C   UNL     1       1.455   9.302  18.864  0.00  0.00    +0.000 C 
ATOM     20  C   UNL     1       0.174   9.060  18.022  0.00  0.00    +0.000 C 
ATOM     21  H   UNL     1       2.375   2.078  20.066  0.00  0.00    +0.000 HD
ENDROOT
BRANCH   1  22
ATOM     22  C   UNL     1       1.106  11.922  18.732  0.00  0.00    +0.000 C 
ATOM     23  O   UNL     1      -0.031  12.322  18.574  0.00  0.00    +0.000 OA
BRANCH  22  25
ATOM     24  C   UNL     1       2.414  13.848  18.259  0.00  0.00    +0.000 C 
ATOM     25  O   UNL     1       2.205  12.439  18.108  0.00  0.00    +0.000 OA
ENDBRANCH  22  25
ENDBRANCH   1  22
TORSDOF 2
ENDMDL
MODEL 3
REMARK VINA RESULT:      -6.7      1.217      1.566
REMARK  Name = 
REMARK  5 active torsions:
REMARK  status: ('A' for Active; 'I' for Inactive)
REMARK    1  A    between atoms: C_1  and  O_2
REMARK    2  A    between atoms: O_2  and  C_3
REMARK    3  A    between atoms: C_3  and  C_5
REMARK    4  A    between atoms: C_18  and  C_19
REMARK    5  A    between atoms: C_23  and  C_24
REMARK                            x       y       z     vdW  Elec       q    Type
REMARK                         _______ _______ _______ _____ _____    ______ ____
ROOT
ATOM      1  C   UNL     1       0.540  11.494  19.410  0.00  0.00    +0.000 C 
ATOM      2  C   UNL     1      -0.398  11.180  20.596  0.00  0.00    +0.000 C 
ATOM      3  C   UNL     1      -0.227   9.687  20.910  0.00  0.00    +0.000 C 
ATOM      4  C   UNL     1       1.006   9.280  20.110  0.00  0.00    +0.000 C 
ATOM      5  C   UNL     1       1.258   7.789  19.846  0.00  0.00    +0.000 C 
ATOM      6  C   UNL     1       1.356   6.975  21.147  0.00  0.00    +0.000 C 
ATOM      7  C   UNL     1       1.689   5.504  20.886  0.00  0.00    +0.000 C 
ATOM      8  C   UNL     1       2.941   5.377  20.020  0.00  0.00    +0.000 C 
ATOM      9  N   UNL     1       3.350   4.000  19.822  0.00  0.00    +0.000 N 
ATOM     10  C   UNL     1       4.431   3.708  19.032  0.00  0.00    +0.000 C 
ATOM     11  O   UNL     1       4.992   2.621  19.058  0.00  0.00    +0.000 OA
ATOM     12  C   UNL     1       4.887   4.791  18.122  0.00  0.00    +0.000 C 
ATOM     13  C   UNL     1       4.148   5.898  17.925  0.00  0.00    +0.000 C 
ATOM     14  C   UNL     1       2.826   6.124  18.652  0.00  0.00    +0.000 C 
ATOM     15  C   UNL     1       1.717   5.512  17.758  0.00  0.00    +0.000 C 
ATOM     16  C   UNL     1       2.553   7.633  18.975  0.00  0.00    +0.000 C 
ATOM     17  C   UNL     1       2.555   8.561  17.729  0.00  0.00    +0.000 C 
ATOM     18  C   UNL     1       2.193  10.017  18.059  0.00  0.00    +0.000 C 
ATOM     19  C   UNL     1       0.854  10.099  18.803  0.00  0.00    +0.000 C 
ATOM     20  C   UNL     1      -0.280   9.557  17.892  0.00  0.00    +0.000 C 
ATOM     21  H   UNL     1       3.132   3.289  20.508  0.00  0.00    +0.000 HD
ENDROOT
BRANCH   1  22
ATOM     22  C   UNL     1      -0.011  12.580  18.486  0.00  0.00    +0.000 C 
ATOM     23  O   UNL     1      -1.157  12.619  18.081  0.00  0.00    +0.000 OA
BRANCH  22  25
ATOM     24  C   UNL     1       2.023  13.672  19.044  0.00  0.00    +0.000 C 
ATOM     25  O   UNL     1       0.983  13.429  18.090  0.00  0.00    +0.000 OA
ENDBRANCH  22  25
ENDBRANCH   1  22
TORSDOF 2
ENDMDL
MODEL 4
REMARK VINA RESULT:      -6.4      4.535      6.648
REMARK  Name = 
REMARK  5 active torsions:
REMARK  status: ('A' for Active; 'I' for Inactive)
REMARK    1  A    between atoms: C_1  and  O_2
REMARK    2  A    between atoms: O_2  and  C_3
REMARK    3  A    between atoms: C_3  and  C_5
REMARK    4  A    between atoms: C_18  and  C_19
REMARK    5  A    between atoms: C_23  and  C_24
REMARK                            x       y       z     vdW  Elec       q    Type
REMARK                         _______ _______ _______ _____ _____    ______ ____
ROOT
ATOM      1  C   UNL     1       1.431   4.266  19.311  0.00  0.00    +0.000 C 
ATOM      2  C   UNL     1       1.716   5.489  20.210  0.00  0.00    +0.000 C 
ATOM      3  C   UNL     1       3.027   6.111  19.706  0.00  0.00    +0.000 C 
ATOM      4  C   UNL     1       3.274   5.417  18.370  0.00  0.00    +0.000 C 
ATOM      5  C   UNL     1       4.680   5.474  17.756  0.00  0.00    +0.000 C 
ATOM      6  C   UNL     1       5.163   6.917  17.538  0.00  0.00    +0.000 C 
ATOM      7  C   UNL     1       6.530   6.971  16.851  0.00  0.00    +0.000 C 
ATOM      8  C   UNL     1       6.521   6.155  15.559  0.00  0.00    +0.000 C 
ATOM      9  N   UNL     1       7.767   6.253  14.824  0.00  0.00    +0.000 N 
ATOM     10  C   UNL     1       7.941   5.544  13.665  0.00  0.00    +0.000 C 
ATOM     11  O   UNL     1       8.830   5.800  12.863  0.00  0.00    +0.000 OA
ATOM     12  C   UNL     1       6.988   4.428  13.431  0.00  0.00    +0.000 C 
ATOM     13  C   UNL     1       6.159   4.000  14.400  0.00  0.00    +0.000 C 
ATOM     14  C   UNL     1       6.119   4.660  15.775  0.00  0.00    +0.000 C 
ATOM     15  C   UNL     1       7.152   3.912  16.657  0.00  0.00    +0.000 C 
ATOM     16  C   UNL     1       4.690   4.658  16.417  0.00  0.00    +0.000 C 
ATOM     17  C   UNL     1       4.062   3.245  16.569  0.00  0.00    +0.000 C 
ATOM     18  C   UNL     1       2.703   3.260  17.283  0.00  0.00    +0.000 C 
ATOM     19  C   UNL     1       2.800   3.966  18.642  0.00  0.00    +0.000 C 
ATOM     20  C   UNL     1       3.777   3.187  19.564  0.00  0.00    +0.000 C 
ATOM     21  H   UNL     1       8.355   7.072  14.903  0.00  0.00    +0.000 HD
ENDROOT
BRANCH   1  22
ATOM     22  C   UNL     1       0.724   3.133  20.055  0.00  0.00    +0.000 C 
ATOM     23  O   UNL     1       0.038   2.284  19.521  0.00  0.00    +0.000 OA
BRANCH  22  25
ATOM     24  C   UNL     1       1.643   2.258  22.063  0.00  0.00    +0.000 C 
ATOM     25  O   UNL     1       0.875   3.272  21.405  0.00  0.00    +0.000 OA
ENDBRANCH  22  25
ENDBRANCH   1  22
TORSDOF 2
ENDMDL
MODEL 5
REMARK VINA RESULT:      -6.3      9.106     11.346
REMARK  Name = 
REMARK  5 active torsions:
REMARK  status: ('A' for Active; 'I' for Inactive)
REMARK    1  A    between atoms: C_1  and  O_2
REMARK    2  A    between atoms: O_2  and  C_3
REMARK    3  A    between atoms: C_3  and  C_5
REMARK    4  A    between atoms: C_18  and  C_19
REMARK    5  A    between atoms: C_23  and  C_24
REMARK                            x       y       z     vdW  Elec       q    Type
REMARK                         _______ _______ _______ _____ _____    ______ ____
ROOT
ATOM      1  C   UNL     1      11.550  13.223  19.950  0.00  0.00    +0.000 C 
ATOM      2  C   UNL     1      11.784  14.749  20.012  0.00  0.00    +0.000 C 
ATOM      3  C   UNL     1      10.742  15.315  20.988  0.00  0.00    +0.000 C 
ATOM      4  C   UNL     1      10.166  14.079  21.670  0.00  0.00    +0.000 C 
ATOM      5  C   UNL     1       8.827  14.200  22.412  0.00  0.00    +0.000 C 
ATOM      6  C   UNL     1       8.869  15.267  23.518  0.00  0.00    +0.000 C 
ATOM      7  C   UNL     1       7.561  15.330  24.311  0.00  0.00    +0.000 C 
ATOM      8  C   UNL     1       7.184  13.949  24.845  0.00  0.00    +0.000 C 
ATOM      9  N   UNL     1       6.000  13.974  25.682  0.00  0.00    +0.000 N 
ATOM     10  C   UNL     1       5.500  12.810  26.204  0.00  0.00    +0.000 C 
ATOM     11  O   UNL     1       4.700  12.794  27.130  0.00  0.00    +0.000 OA
ATOM     12  C   UNL     1       5.978  11.552  25.574  0.00  0.00    +0.000 C 
ATOM     13  C   UNL     1       6.673  11.565  24.423  0.00  0.00    +0.000 C 
ATOM     14  C   UNL     1       7.048  12.868  23.723  0.00  0.00    +0.000 C 
ATOM     15  C   UNL     1       5.888  13.198  22.749  0.00  0.00    +0.000 C 
ATOM     16  C   UNL     1       8.429  12.796  22.987  0.00  0.00    +0.000 C 
ATOM     17  C   UNL     1       8.527  11.663  21.928  0.00  0.00    +0.000 C 
ATOM     18  C   UNL     1       9.855  11.670  21.156  0.00  0.00    +0.000 C 
ATOM     19  C   UNL     1      10.117  13.041  20.519  0.00  0.00    +0.000 C 
ATOM     20  C   UNL     1       9.001  13.355  19.485  0.00  0.00    +0.000 C 
ATOM     21  H   UNL     1       5.746  14.806  26.199  0.00  0.00    +0.000 HD
ENDROOT
BRANCH   1  22
ATOM     22  C   UNL     1      11.867  12.628  18.578  0.00  0.00    +0.000 C 
ATOM     23  O   UNL     1      11.922  11.437  18.342  0.00  0.00    +0.000 OA
BRANCH  22  25
ATOM     24  C   UNL     1      11.479  13.593  16.442  0.00  0.00    +0.000 C 
ATOM     25  O   UNL     1      12.188  13.612  17.686  0.00  0.00    +0.000 OA
ENDBRANCH  22  25
ENDBRANCH   1  22
TORSDOF 2
ENDMDL
MODEL 6
REMARK VINA RESULT:      -6.2      9.517     11.340
REMARK  Name = 
REMARK  5 active torsions:
REMARK  status: ('A' for Active; 'I' for Inactive)
REMARK    1  A    between atoms: C_1  and  O_2
REMARK    2  A    between atoms: O_2  and  C_3
REMARK    3  A    between atoms: C_3  and  C_5
REMARK    4  A    between atoms: C_18  and  C_19
REMARK    5  A    between atoms: C_23  and  C_24
REMARK                            x       y       z     vdW  Elec       q    Type
REMARK                         _______ _______ _______ _____ _____    ______ ____
ROOT
ATOM      1  C   UNL     1      10.337  13.075  18.073  0.00  0.00    +0.000 C 
ATOM      2  C   UNL     1      10.904  11.681  18.421  0.00  0.00    +0.000 C 
ATOM      3  C   UNL     1      10.453  11.366  19.854  0.00  0.00    +0.000 C 
ATOM      4  C   UNL     1       9.407  12.435  20.154  0.00  0.00    +0.000 C 
ATOM      5  C   UNL     1       9.018  12.700  21.616  0.00  0.00    +0.000 C 
ATOM      6  C   UNL     1       8.492  11.437  22.317  0.00  0.00    +0.000 C 
ATOM      7  C   UNL     1       8.028  11.721  23.748  0.00  0.00    +0.000 C 
ATOM      8  C   UNL     1       7.019  12.868  23.774  0.00  0.00    +0.000 C 
ATOM      9  N   UNL     1       6.480  13.113  25.098  0.00  0.00    +0.000 N 
ATOM     10  C   UNL     1       5.595  14.138  25.303  0.00  0.00    +0.000 C 
ATOM     11  O   UNL     1       4.896  14.215  26.305  0.00  0.00    +0.000 OA
ATOM     12  C   UNL     1       5.532  15.171  24.237  0.00  0.00    +0.000 C 
ATOM     13  C   UNL     1       6.446  15.217  23.250  0.00  0.00    +0.000 C 
ATOM     14  C   UNL     1       7.569  14.190  23.145  0.00  0.00    +0.000 C 
ATOM     15  C   UNL     1       8.764  14.754  23.956  0.00  0.00    +0.000 C 
ATOM     16  C   UNL     1       7.966  13.863  21.665  0.00  0.00    +0.000 C 
ATOM     17  C   UNL     1       8.399  15.101  20.834  0.00  0.00    +0.000 C 
ATOM     18  C   UNL     1       8.872  14.744  19.417  0.00  0.00    +0.000 C 
ATOM     19  C   UNL     1       9.987  13.691  19.455  0.00  0.00    +0.000 C 
ATOM     20  C   UNL     1      11.221  14.268  20.201  0.00  0.00    +0.000 C 
ATOM     21  H   UNL     1       6.422  12.369  25.781  0.00  0.00    +0.000 HD
ENDROOT
BRANCH   1  22
ATOM     22  C   UNL     1      11.246  13.869  17.134  0.00  0.00    +0.000 C 
ATOM     23  O   UNL     1      12.332  13.488  16.744  0.00  0.00    +0.000 OA
BRANCH  22  25
ATOM     24  C   UNL     1      11.620  16.213  17.034  0.00  0.00    +0.000 C 
ATOM     25  O   UNL     1      10.722  15.107  16.887  0.00  0.00    +0.000 OA
ENDBRANCH  22  25
ENDBRANCH   1  22
TORSDOF 2
ENDMDL
MODEL 7
REMARK VINA RESULT:      -6.2      1.669      2.249
REMARK  Name = 
REMARK  5 active torsions:
REMARK  status: ('A' for Active; 'I' for Inactive)
REMARK    1  A    between atoms: C_1  and  O_2
REMARK    2  A    between atoms: O_2  and  C_3
REMARK    3  A    between atoms: C_3  and  C_5
REMARK    4  A    between atoms: C_18  and  C_19
REMARK    5  A    between atoms: C_23  and  C_24
REMARK                            x       y       z     vdW  Elec       q    Type
REMARK                         _______ _______ _______ _____ _____    ______ ____
ROOT
ATOM      1  C   UNL     1      -0.084  11.961  20.333  0.00  0.00    +0.000 C 
ATOM      2  C   UNL     1      -0.785  11.349  21.567  0.00  0.00    +0.000 C 
ATOM      3  C   UNL     1      -0.410   9.860  21.594  0.00  0.00    +0.000 C 
ATOM      4  C   UNL     1       0.717   9.744  20.573  0.00  0.00    +0.000 C 
ATOM      5  C   UNL     1       1.080   8.357  20.025  0.00  0.00    +0.000 C 
ATOM      6  C   UNL     1       1.467   7.373  21.141  0.00  0.00    +0.000 C 
ATOM      7  C   UNL     1       1.908   6.015  20.588  0.00  0.00    +0.000 C 
ATOM      8  C   UNL     1       3.014   6.186  19.548  0.00  0.00    +0.000 C 
ATOM      9  N   UNL     1       3.529   4.921  19.062  0.00  0.00    +0.000 N 
ATOM     10  C   UNL     1       4.495   4.897  18.092  0.00  0.00    +0.000 C 
ATOM     11  O   UNL     1       5.165   3.900  17.853  0.00  0.00    +0.000 OA
ATOM     12  C   UNL     1       4.686   6.156  17.327  0.00  0.00    +0.000 C 
ATOM     13  C   UNL     1       3.813   7.175  17.426  0.00  0.00    +0.000 C 
ATOM     14  C   UNL     1       2.606   7.113  18.357  0.00  0.00    +0.000 C 
ATOM     15  C   UNL     1       1.440   6.507  17.534  0.00  0.00    +0.000 C 
ATOM     16  C   UNL     1       2.230   8.506  18.969  0.00  0.00    +0.000 C 
ATOM     17  C   UNL     1       1.937   9.607  17.912  0.00  0.00    +0.000 C 
ATOM     18  C   UNL     1       1.481  10.935  18.533  0.00  0.00    +0.000 C 
ATOM     19  C   UNL     1       0.275  10.728  19.459  0.00  0.00    +0.000 C 
ATOM     20  C   UNL     1      -0.926  10.189  18.635  0.00  0.00    +0.000 C 
ATOM     21  H   UNL     1       3.498   4.090  19.640  0.00  0.00    +0.000 HD
ENDROOT
BRANCH   1  22
ATOM     22  C   UNL     1      -0.886  13.094  19.695  0.00  0.00    +0.000 C 
ATOM     23  O   UNL     1      -0.478  13.802  18.795  0.00  0.00    +0.000 OA
BRANCH  22  25
ATOM     24  C   UNL     1      -2.358  14.609  20.783  0.00  0.00    +0.000 C 
ATOM     25  O   UNL     1      -2.073  13.274  20.348  0.00  0.00    +0.000 OA
ENDBRANCH  22  25
ENDBRANCH   1  22
TORSDOF 2
ENDMDL
MODEL 8
REMARK VINA RESULT:      -6.1      2.661      7.290
REMARK  Name = 
REMARK  5 active torsions:
REMARK  status: ('A' for Active; 'I' for Inactive)
REMARK    1  A    between atoms: C_1  and  O_2
REMARK    2  A    between atoms: O_2  and  C_3
REMARK    3  A    between atoms: C_3  and  C_5
REMARK    4  A    between atoms: C_18  and  C_19
REMARK    5  A    between atoms: C_23  and  C_24
REMARK                            x       y       z     vdW  Elec       q    Type
REMARK                         _______ _______ _______ _____ _____    ______ ____
ROOT
ATOM      1  C   UNL     1       4.309   5.368  18.245  0.00  0.00    +0.000 C 
ATOM      2  C   UNL     1       4.470   6.118  16.904  0.00  0.00    +0.000 C 
ATOM      3  C   UNL     1       3.560   7.353  16.976  0.00  0.00    +0.000 C 
ATOM      4  C   UNL     1       3.157   7.428  18.446  0.00  0.00    +0.000 C 
ATOM      5  C   UNL     1       1.942   8.280  18.837  0.00  0.00    +0.000 C 
ATOM      6  C   UNL     1       2.095   9.748  18.402  0.00  0.00    +0.000 C 
ATOM      7  C   UNL     1       0.920  10.613  18.865  0.00  0.00    +0.000 C 
ATOM      8  C   UNL     1       0.699  10.468  20.370  0.00  0.00    +0.000 C 
ATOM      9  N   UNL     1      -0.345  11.341  20.871  0.00  0.00    +0.000 N 
ATOM     10  C   UNL     1      -0.700  11.302  22.193  0.00  0.00    +0.000 C 
ATOM     11  O   UNL     1      -1.349  12.192  22.728  0.00  0.00    +0.000 OA
ATOM     12  C   UNL     1      -0.259  10.105  22.955  0.00  0.00    +0.000 C 
ATOM     13  C   UNL     1       0.254   9.028  22.331  0.00  0.00    +0.000 C 
ATOM     14  C   UNL     1       0.451   8.991  20.819  0.00  0.00    +0.000 C 
ATOM     15  C   UNL     1      -0.858   8.422  20.214  0.00  0.00    +0.000 C 
ATOM     16  C   UNL     1       1.707   8.163  20.383  0.00  0.00    +0.000 C 
ATOM     17  C   UNL     1       1.703   6.691  20.880  0.00  0.00    +0.000 C 
ATOM     18  C   UNL     1       2.896   5.874  20.363  0.00  0.00    +0.000 C 
ATOM     19  C   UNL     1       2.988   5.936  18.833  0.00  0.00    +0.000 C 
ATOM     20  C   UNL     1       1.715   5.303  18.210  0.00  0.00    +0.000 C 
ATOM     21  H   UNL     1      -0.560  12.214  20.408  0.00  0.00    +0.000 HD
ENDROOT
BRANCH   1  22
ATOM     22  C   UNL     1       4.445   3.853  18.099  0.00  0.00    +0.000 C 
ATOM     23  O   UNL     1       4.051   3.217  17.140  0.00  0.00    +0.000 OA
BRANCH  22  25
ATOM     24  C   UNL     1       4.110   2.394  19.943  0.00  0.00    +0.000 C 
ATOM     25  O   UNL     1       4.963   3.301  19.236  0.00  0.00    +0.000 OA
ENDBRANCH  22  25
ENDBRANCH   1  22
TORSDOF 2
ENDMDL
MODEL 9
REMARK VINA RESULT:      -6.1      9.331     10.544
REMARK  Name = 
REMARK  5 active torsions:
REMARK  status: ('A' for Active; 'I' for Inactive)
REMARK    1  A    between atoms: C_1  and  O_2
REMARK    2  A    between atoms: O_2  and  C_3
REMARK    3  A    between atoms: C_3  and  C_5
REMARK    4  A    between atoms: C_18  and  C_19
REMARK    5  A    between atoms: C_23  and  C_24
REMARK                            x       y       z     vdW  Elec       q    Type
REMARK                         _______ _______ _______ _____ _____    ______ ____
ROOT
ATOM      1  C   UNL     1       5.993  12.987  23.861  0.00  0.00    +0.000 C 
ATOM      2  C   UNL     1       5.259  14.318  23.585  0.00  0.00    +0.000 C 
ATOM      3  C   UNL     1       5.964  14.971  22.387  0.00  0.00    +0.000 C 
ATOM      4  C   UNL     1       6.861  13.866  21.840  0.00  0.00    +0.000 C 
ATOM      5  C   UNL     1       8.014  14.246  20.900  0.00  0.00    +0.000 C 
ATOM      6  C   UNL     1       7.524  14.999  19.652  0.00  0.00    +0.000 C 
ATOM      7  C   UNL     1       8.664  15.305  18.677  0.00  0.00    +0.000 C 
ATOM      8  C   UNL     1       9.435  14.033  18.328  0.00  0.00    +0.000 C 
ATOM      9  N   UNL     1      10.467  14.257  17.334  0.00  0.00    +0.000 N 
ATOM     10  C   UNL     1      11.281  13.227  16.942  0.00  0.00    +0.000 C 
ATOM     11  O   UNL     1      11.959  13.274  15.924  0.00  0.00    +0.000 OA
ATOM     12  C   UNL     1      11.307  12.038  17.832  0.00  0.00    +0.000 C 
ATOM     13  C   UNL     1      10.747  12.066  19.055  0.00  0.00    +0.000 C 
ATOM     14  C   UNL     1      10.018  13.300  19.579  0.00  0.00    +0.000 C 
ATOM     15  C   UNL     1      11.080  14.167  20.306  0.00  0.00    +0.000 C 
ATOM     16  C   UNL     1       8.809  12.951  20.511  0.00  0.00    +0.000 C 
ATOM     17  C   UNL     1       9.185  12.083  21.744  0.00  0.00    +0.000 C 
ATOM     18  C   UNL     1       8.002  11.832  22.691  0.00  0.00    +0.000 C 
ATOM     19  C   UNL     1       7.352  13.152  23.126  0.00  0.00    +0.000 C 
ATOM     20  C   UNL     1       8.381  14.001  23.919  0.00  0.00    +0.000 C 
ATOM     21  H   UNL     1      10.383  15.003  16.655  0.00  0.00    +0.000 HD
ENDROOT
BRANCH   1  22
ATOM     22  C   UNL     1       6.011  12.615  25.343  0.00  0.00    +0.000 C 
ATOM     23  O   UNL     1       6.606  11.660  25.804  0.00  0.00    +0.000 OA
BRANCH  22  25
ATOM     24  C   UNL     1       4.802  12.965  27.358  0.00  0.00    +0.000 C 
ATOM     25  O   UNL     1       5.180  13.431  26.057  0.00  0.00    +0.000 OA
ENDBRANCH  22  25
ENDBRANCH   1  22
TORSDOF 2
ENDMDL
