MODEL 1
REMARK VINA RESULT:      -7.7      0.000      0.000
REMARK  Name = 
REMARK  8 active torsions:
REMARK  status: ('A' for Active; 'I' for Inactive)
REMARK    1  A    between atoms: C_1  and  C_2
REMARK    2  A    between atoms: C_2  and  C_3
REMARK    3  A    between atoms: C_3  and  C_4
REMARK    4  A    between atoms: C_4  and  C_5
REMARK    5  A    between atoms: C_5  and  N_6
REMARK    6  A    between atoms: C_8  and  C_9
REMARK    7  A    between atoms: C_9  and  C_11
REMARK    8  A    between atoms: C_11  and  C_12
REMARK                            x       y       z     vdW  Elec       q    Type
REMARK                         _______ _______ _______ _____ _____    ______ ____
ROOT
ATOM      1  N   UNL     1       4.772   5.223  17.268  0.00  0.00    +0.000 N 
ATOM      2  C   UNL     1       4.432   6.496  17.660  0.00  0.00    +0.000 A 
ATOM      3  C   UNL     1       3.158   6.458  18.198  0.00  0.00    +0.000 A 
ATOM      4  C   UNL     1       2.741   5.092  18.171  0.00  0.00    +0.000 A 
ATOM      5  C   UNL     1       1.564   4.429  18.575  0.00  0.00    +0.000 A 
ATOM      6  C   UNL     1       1.422   3.061  18.381  0.00  0.00    +0.000 A 
ATOM      7  C   UNL     1       2.433   2.340  17.770  0.00  0.00    +0.000 A 
ATOM      8  C   UNL     1       3.617   2.963  17.354  0.00  0.00    +0.000 A 
ATOM      9  C   UNL     1       3.754   4.343  17.570  0.00  0.00    +0.000 A 
ENDROOT
BRANCH   3  10
ATOM     10  C   UNL     1       2.380   7.617  18.660  0.00  0.00    +0.000 C 
ATOM     11  O   UNL     1       1.982   7.687  19.809  0.00  0.00    +0.000 OA
BRANCH  10  12
ATOM     12  C   UNL     1       2.088   8.729  17.652  0.00  0.00    +0.000 C 
BRANCH  12  13
ATOM     13  C   UNL     1       1.098   9.782  18.108  0.00  0.00    +0.000 A 
ATOM     14  C   UNL     1      -0.275   9.597  17.876  0.00  0.00    +0.000 A 
ATOM     15  C   UNL     1      -1.204  10.559  18.287  0.00  0.00    +0.000 A 
ATOM     16  C   UNL     1      -0.771  11.723  18.919  0.00  0.00    +0.000 A 
ATOM     17  C   UNL     1       0.588  11.920  19.125  0.00  0.00    +0.000 A 
ATOM     18  F   UNL     1       1.007  13.035  19.737  0.00  0.00    +0.000 F 
ATOM     19  C   UNL     1       1.519  10.975  18.716  0.00  0.00    +0.000 A 
ENDBRANCH  12  13
ENDBRANCH  10  12
ENDBRANCH   3  10
BRANCH   1  20
ATOM     20  C   UNL     1       6.015   4.882  16.592  0.00  0.00    +0.000 C 
BRANCH  20  21
ATOM     21  C   UNL     1       6.005   5.315  15.128  0.00  0.00    +0.000 C 
BRANCH  21  22
ATOM     22  C   UNL     1       5.402   4.234  14.235  0.00  0.00    +0.000 C 
BRANCH  22  24
ATOM     23  C   UNL     1       5.694   3.092  12.016  0.00  0.00    +0.000 C 
ATOM     24  C   UNL     1       6.400   3.778  13.174  0.00  0.00    +0.000 C 
ENDBRANCH  22  24
ENDBRANCH  21  22
ENDBRANCH  20  21
ENDBRANCH   1  20
TORSDOF 7
ENDMDL
MODEL 2
REMARK VINA RESULT:      -7.7      3.152      5.408
REMARK  Name = 
REMARK  8 active torsions:
REMARK  status: ('A' for Active; 'I' for Inactive)
REMARK    1  A    between atoms: C_1  and  C_2
REMARK    2  A    between atoms: C_2  and  C_3
REMARK    3  A    between atoms: C_3  and  C_4
REMARK    4  A    between atoms: C_4  and  C_5
REMARK    5  A    between atoms: C_5  and  N_6
REMARK    6  A    between atoms: C_8  and  C_9
REMARK    7  A    between atoms: C_9  and  C_11
REMARK    8  A    between atoms: C_11  and  C_12
REMARK                            x       y       z     vdW  Elec       q    Type
REMARK                         _______ _______ _______ _____ _____    ______ ____
ROOT
ATOM      1  N   UNL     1       7.089   6.008  18.054  0.00  0.00    +0.000 N 
ATOM      2  C   UNL     1       6.345   5.425  19.052  0.00  0.00    +0.000 A 
ATOM      3  C   UNL     1       5.542   4.454  18.481  0.00  0.00    +0.000 A 
ATOM      4  C   UNL     1       5.861   4.423  17.089  0.00  0.00    +0.000 A 
ATOM      5  C   UNL     1       5.389   3.657  16.003  0.00  0.00    +0.000 A 
ATOM      6  C   UNL     1       5.867   3.883  14.719  0.00  0.00    +0.000 A 
ATOM      7  C   UNL     1       6.800   4.879  14.494  0.00  0.00    +0.000 A 
ATOM      8  C   UNL     1       7.292   5.662  15.546  0.00  0.00    +0.000 A 
ATOM      9  C   UNL     1       6.813   5.412  16.842  0.00  0.00    +0.000 A 
ENDROOT
BRANCH   3  10
ATOM     10  C   UNL     1       4.529   3.650  19.181  0.00  0.00    +0.000 C 
ATOM     11  O   UNL     1       4.853   2.767  19.954  0.00  0.00    +0.000 OA
BRANCH  10  12
ATOM     12  C   UNL     1       3.057   3.960  18.906  0.00  0.00    +0.000 C 
BRANCH  12  13
ATOM     13  C   UNL     1       2.658   5.415  19.045  0.00  0.00    +0.000 A 
ATOM     14  C   UNL     1       2.831   6.295  17.964  0.00  0.00    +0.000 A 
ATOM     15  C   UNL     1       2.471   7.642  18.075  0.00  0.00    +0.000 A 
ATOM     16  C   UNL     1       1.950   8.129  19.272  0.00  0.00    +0.000 A 
ATOM     17  C   UNL     1       1.802   7.267  20.351  0.00  0.00    +0.000 A 
ATOM     18  F   UNL     1       1.296   7.730  21.501  0.00  0.00    +0.000 F 
ATOM     19  C   UNL     1       2.162   5.929  20.254  0.00  0.00    +0.000 A 
ENDBRANCH  12  13
ENDBRANCH  10  12
ENDBRANCH   3  10
BRANCH   1  20
ATOM     20  C   UNL     1       8.002   7.124  18.262  0.00  0.00    +0.000 C 
BRANCH  20  21
ATOM     21  C   UNL     1       7.431   8.433  17.722  0.00  0.00    +0.000 C 
BRANCH  21  22
ATOM     22  C   UNL     1       8.472   9.548  17.760  0.00  0.00    +0.000 C 
BRANCH  22  24
ATOM     23  C   UNL     1       9.387  11.149  19.467  0.00  0.00    +0.000 C 
ATOM     24  C   UNL     1       9.070   9.696  19.157  0.00  0.00    +0.000 C 
ENDBRANCH  22  24
ENDBRANCH  21  22
ENDBRANCH  20  21
ENDBRANCH   1  20
TORSDOF 7
ENDMDL
MODEL 3
REMARK VINA RESULT:      -7.7      3.427      6.821
REMARK  Name = 
REMARK  8 active torsions:
REMARK  status: ('A' for Active; 'I' for Inactive)
REMARK    1  A    between atoms: C_1  and  C_2
REMARK    2  A    between atoms: C_2  and  C_3
REMARK    3  A    between atoms: C_3  and  C_4
REMARK    4  A    between atoms: C_4  and  C_5
REMARK    5  A    between atoms: C_5  and  N_6
REMARK    6  A    between atoms: C_8  and  C_9
REMARK    7  A    between atoms: C_9  and  C_11
REMARK    8  A    between atoms: C_11  and  C_12
REMARK                            x       y       z     vdW  Elec       q    Type
REMARK                         _______ _______ _______ _____ _____    ______ ____
ROOT
ATOM      1  N   UNL     1       3.549   3.633  18.092  0.00  0.00    +0.000 N 
ATOM      2  C   UNL     1       4.406   3.293  17.072  0.00  0.00    +0.000 A 
ATOM      3  C   UNL     1       4.747   4.448  16.390  0.00  0.00    +0.000 A 
ATOM      4  C   UNL     1       4.103   5.530  17.066  0.00  0.00    +0.000 A 
ATOM      5  C   UNL     1       4.069   6.923  16.853  0.00  0.00    +0.000 A 
ATOM      6  C   UNL     1       3.302   7.744  17.671  0.00  0.00    +0.000 A 
ATOM      7  C   UNL     1       2.549   7.193  18.692  0.00  0.00    +0.000 A 
ATOM      8  C   UNL     1       2.556   5.814  18.935  0.00  0.00    +0.000 A 
ATOM      9  C   UNL     1       3.347   4.997  18.111  0.00  0.00    +0.000 A 
ENDROOT
BRANCH   3  10
ATOM     10  C   UNL     1       5.575   4.523  15.178  0.00  0.00    +0.000 C 
ATOM     11  O   UNL     1       5.094   4.323  14.077  0.00  0.00    +0.000 OA
BRANCH  10  12
ATOM     12  C   UNL     1       7.057   4.859  15.345  0.00  0.00    +0.000 C 
BRANCH  12  13
ATOM     13  C   UNL     1       7.430   5.543  16.645  0.00  0.00    +0.000 A 
ATOM     14  C   UNL     1       7.656   4.774  17.799  0.00  0.00    +0.000 A 
ATOM     15  C   UNL     1       7.998   5.387  19.009  0.00  0.00    +0.000 A 
ATOM     16  C   UNL     1       8.102   6.775  19.084  0.00  0.00    +0.000 A 
ATOM     17  C   UNL     1       7.853   7.539  17.951  0.00  0.00    +0.000 A 
ATOM     18  F   UNL     1       7.957   8.872  18.017  0.00  0.00    +0.000 F 
ATOM     19  C   UNL     1       7.506   6.941  16.746  0.00  0.00    +0.000 A 
ENDBRANCH  12  13
ENDBRANCH  10  12
ENDBRANCH   3  10
BRANCH   1  20
ATOM     20  C   UNL     1       2.920   2.670  18.985  0.00  0.00    +0.000 C 
BRANCH  20  21
ATOM     21  C   UNL     1       1.490   2.349  18.559  0.00  0.00    +0.000 C 
BRANCH  21  22
ATOM     22  C   UNL     1       0.487   2.759  19.634  0.00  0.00    +0.000 C 
BRANCH  22  24
ATOM     23  C   UNL     1       1.422   2.494  21.951  0.00  0.00    +0.000 C 
ATOM     24  C   UNL     1       1.185   3.456  20.800  0.00  0.00    +0.000 C 
ENDBRANCH  22  24
ENDBRANCH  21  22
ENDBRANCH  20  21
ENDBRANCH   1  20
TORSDOF 7
ENDMDL
MODEL 4
REMARK VINA RESULT:      -7.7      2.867      4.426
REMARK  Name = 
REMARK  8 active torsions:
REMARK  status: ('A' for Active; 'I' for Inactive)
REMARK    1  A    between atoms: C_1  and  C_2
REMARK    2  A    between atoms: C_2  and  C_3
REMARK    3  A    between atoms: C_3  and  C_4
REMARK    4  A    between atoms: C_4  and  C_5
REMARK    5  A    between atoms: C_5  and  N_6
REMARK    6  A    between atoms: C_8  and  C_9
REMARK    7  A    between atoms: C_9  and  C_11
REMARK    8  A    between atoms: C_11  and  C_12
REMARK                            x       y       z     vdW  Elec       q    Type
REMARK                         _______ _______ _______ _____ _____    ______ ____
ROOT
ATOM      1  N   UNL     1       5.835   4.512  15.598  0.00  0.00    +0.000 N 
ATOM      2  C   UNL     1       4.720   3.738  15.814  0.00  0.00    +0.000 A 
ATOM      3  C   UNL     1       4.489   3.680  17.177  0.00  0.00    +0.000 A 
ATOM      4  C   UNL     1       5.483   4.499  17.796  0.00  0.00    +0.000 A 
ATOM      5  C   UNL     1       5.765   4.834  19.136  0.00  0.00    +0.000 A 
ATOM      6  C   UNL     1       6.852   5.641  19.448  0.00  0.00    +0.000 A 
ATOM      7  C   UNL     1       7.680   6.106  18.442  0.00  0.00    +0.000 A 
ATOM      8  C   UNL     1       7.433   5.794  17.099  0.00  0.00    +0.000 A 
ATOM      9  C   UNL     1       6.322   4.991  16.796  0.00  0.00    +0.000 A 
ENDROOT
BRANCH   3  10
ATOM     10  C   UNL     1       3.447   2.887  17.844  0.00  0.00    +0.000 C 
ATOM     11  O   UNL     1       3.669   1.751  18.223  0.00  0.00    +0.000 OA
BRANCH  10  12
ATOM     12  C   UNL     1       2.077   3.534  18.047  0.00  0.00    +0.000 C 
BRANCH  12  13
ATOM     13  C   UNL     1       2.091   4.914  18.675  0.00  0.00    +0.000 A 
ATOM     14  C   UNL     1       1.808   5.062  20.043  0.00  0.00    +0.000 A 
ATOM     15  C   UNL     1       1.813   6.327  20.640  0.00  0.00    +0.000 A 
ATOM     16  C   UNL     1       2.086   7.459  19.874  0.00  0.00    +0.000 A 
ATOM     17  C   UNL     1       2.341   7.318  18.516  0.00  0.00    +0.000 A 
ATOM     18  F   UNL     1       2.609   8.402  17.778  0.00  0.00    +0.000 F 
ATOM     19  C   UNL     1       2.331   6.067  17.912  0.00  0.00    +0.000 A 
ENDBRANCH  12  13
ENDBRANCH  10  12
ENDBRANCH   3  10
BRANCH   1  20
ATOM     20  C   UNL     1       6.427   4.744  14.288  0.00  0.00    +0.000 C 
BRANCH  20  21
ATOM     21  C   UNL     1       6.187   3.571  13.340  0.00  0.00    +0.000 C 
BRANCH  21  22
ATOM     22  C   UNL     1       4.906   3.765  12.534  0.00  0.00    +0.000 C 
BRANCH  22  24
ATOM     23  C   UNL     1       5.845   1.699  11.454  0.00  0.00    +0.000 C 
ATOM     24  C   UNL     1       4.899   2.877  11.291  0.00  0.00    +0.000 C 
ENDBRANCH  22  24
ENDBRANCH  21  22
ENDBRANCH  20  21
ENDBRANCH   1  20
TORSDOF 7
ENDMDL
MODEL 5
REMARK VINA RESULT:      -7.7      3.303      7.349
REMARK  Name = 
REMARK  8 active torsions:
REMARK  status: ('A' for Active; 'I' for Inactive)
REMARK    1  A    between atoms: C_1  and  C_2
REMARK    2  A    between atoms: C_2  and  C_3
REMARK    3  A    between atoms: C_3  and  C_4
REMARK    4  A    between atoms: C_4  and  C_5
REMARK    5  A    between atoms: C_5  and  N_6
REMARK    6  A    between atoms: C_8  and  C_9
REMARK    7  A    between atoms: C_9  and  C_11
REMARK    8  A    between atoms: C_11  and  C_12
REMARK                            x       y       z     vdW  Elec       q    Type
REMARK                         _______ _______ _______ _____ _____    ______ ____
ROOT
ATOM      1  N   UNL     1       3.159   5.329  19.819  0.00  0.00    +0.000 N 
ATOM      2  C   UNL     1       4.019   4.924  18.826  0.00  0.00    +0.000 A 
ATOM      3  C   UNL     1       4.023   5.891  17.837  0.00  0.00    +0.000 A 
ATOM      4  C   UNL     1       3.166   6.942  18.286  0.00  0.00    +0.000 A 
ATOM      5  C   UNL     1       2.773   8.177  17.730  0.00  0.00    +0.000 A 
ATOM      6  C   UNL     1       1.870   8.995  18.396  0.00  0.00    +0.000 A 
ATOM      7  C   UNL     1       1.333   8.592  19.606  0.00  0.00    +0.000 A 
ATOM      8  C   UNL     1       1.698   7.373  20.190  0.00  0.00    +0.000 A 
ATOM      9  C   UNL     1       2.624   6.562  19.514  0.00  0.00    +0.000 A 
ENDROOT
BRANCH   3  10
ATOM     10  C   UNL     1       4.741   5.814  16.556  0.00  0.00    +0.000 C 
ATOM     11  O   UNL     1       4.873   6.798  15.851  0.00  0.00    +0.000 OA
BRANCH  10  12
ATOM     12  C   UNL     1       5.316   4.459  16.140  0.00  0.00    +0.000 C 
BRANCH  12  13
ATOM     13  C   UNL     1       5.948   4.412  14.763  0.00  0.00    +0.000 A 
ATOM     14  C   UNL     1       5.361   3.637  13.750  0.00  0.00    +0.000 A 
ATOM     15  C   UNL     1       5.932   3.578  12.474  0.00  0.00    +0.000 A 
ATOM     16  C   UNL     1       7.105   4.279  12.202  0.00  0.00    +0.000 A 
ATOM     17  C   UNL     1       7.703   5.025  13.209  0.00  0.00    +0.000 A 
ATOM     18  F   UNL     1       8.827   5.704  12.950  0.00  0.00    +0.000 F 
ATOM     19  C   UNL     1       7.148   5.084  14.482  0.00  0.00    +0.000 A 
ENDBRANCH  12  13
ENDBRANCH  10  12
ENDBRANCH   3  10
BRANCH   1  20
ATOM     20  C   UNL     1       2.840   4.533  20.997  0.00  0.00    +0.000 C 
BRANCH  20  21
ATOM     21  C   UNL     1       2.406   3.117  20.626  0.00  0.00    +0.000 C 
BRANCH  21  22
ATOM     22  C   UNL     1       0.937   3.079  20.213  0.00  0.00    +0.000 C 
BRANCH  22  24
ATOM     23  C   UNL     1       2.039   2.072  18.192  0.00  0.00    +0.000 C 
ATOM     24  C   UNL     1       0.791   2.752  18.729  0.00  0.00    +0.000 C 
ENDBRANCH  22  24
ENDBRANCH  21  22
ENDBRANCH  20  21
ENDBRANCH   1  20
TORSDOF 7
ENDMDL
MODEL 6
REMARK VINA RESULT:      -7.7      3.097      5.203
REMARK  Name = 
REMARK  8 active torsions:
REMARK  status: ('A' for Active; 'I' for Inactive)
REMARK    1  A    between atoms: C_1  and  C_2
REMARK    2  A    between atoms: C_2  and  C_3
REMARK    3  A    between atoms: C_3  and  C_4
REMARK    4  A    between atoms: C_4  and  C_5
REMARK    5  A    between atoms: C_5  and  N_6
REMARK    6  A    between atoms: C_8  and  C_9
REMARK    7  A    between atoms: C_9  and  C_11
REMARK    8  A    between atoms: C_11  and  C_12
REMARK                            x       y       z     vdW  Elec       q    Type
REMARK                         _______ _______ _______ _____ _____    ______ ____
ROOT
ATOM      1  N   UNL     1       7.037   5.675  18.316  0.00  0.00    +0.000 N 
ATOM      2  C   UNL     1       6.146   5.181  19.239  0.00  0.00    +0.000 A 
ATOM      3  C   UNL     1       5.239   4.373  18.576  0.00  0.00    +0.000 A 
ATOM      4  C   UNL     1       5.639   4.346  17.204  0.00  0.00    +0.000 A 
ATOM      5  C   UNL     1       5.124   3.709  16.057  0.00  0.00    +0.000 A 
ATOM      6  C   UNL     1       5.714   3.906  14.815  0.00  0.00    +0.000 A 
ATOM      7  C   UNL     1       6.806   4.747  14.694  0.00  0.00    +0.000 A 
ATOM      8  C   UNL     1       7.346   5.398  15.810  0.00  0.00    +0.000 A 
ATOM      9  C   UNL     1       6.749   5.179  17.062  0.00  0.00    +0.000 A 
ENDROOT
BRANCH   3  10
ATOM     10  C   UNL     1       4.068   3.716  19.175  0.00  0.00    +0.000 C 
ATOM     11  O   UNL     1       4.200   2.812  19.981  0.00  0.00    +0.000 OA
BRANCH  10  12
ATOM     12  C   UNL     1       2.682   4.205  18.755  0.00  0.00    +0.000 C 
BRANCH  12  13
ATOM     13  C   UNL     1       2.387   5.664  19.042  0.00  0.00    +0.000 A 
ATOM     14  C   UNL     1       1.964   6.052  20.324  0.00  0.00    +0.000 A 
ATOM     15  C   UNL     1       1.685   7.394  20.608  0.00  0.00    +0.000 A 
ATOM     16  C   UNL     1       1.809   8.359  19.610  0.00  0.00    +0.000 A 
ATOM     17  C   UNL     1       2.201   7.974  18.335  0.00  0.00    +0.000 A 
ATOM     18  F   UNL     1       2.327   8.898  17.375  0.00  0.00    +0.000 F 
ATOM     19  C   UNL     1       2.475   6.643  18.041  0.00  0.00    +0.000 A 
ENDBRANCH  12  13
ENDBRANCH  10  12
ENDBRANCH   3  10
BRANCH   1  20
ATOM     20  C   UNL     1       8.098   6.620  18.631  0.00  0.00    +0.000 C 
BRANCH  20  21
ATOM     21  C   UNL     1       7.852   7.985  17.992  0.00  0.00    +0.000 C 
BRANCH  21  22
ATOM     22  C   UNL     1       8.688   9.070  18.666  0.00  0.00    +0.000 C 
BRANCH  22  24
ATOM     23  C   UNL     1       9.414  11.474  18.577  0.00  0.00    +0.000 C 
ATOM     24  C   UNL     1       8.647  10.371  17.867  0.00  0.00    +0.000 C 
ENDBRANCH  22  24
ENDBRANCH  21  22
ENDBRANCH  20  21
ENDBRANCH   1  20
TORSDOF 7
ENDMDL
MODEL 7
REMARK VINA RESULT:      -7.7      3.498      4.960
REMARK  Name = 
REMARK  8 active torsions:
REMARK  status: ('A' for Active; 'I' for Inactive)
REMARK    1  A    between atoms: C_1  and  C_2
REMARK    2  A    between atoms: C_2  and  C_3
REMARK    3  A    between atoms: C_3  and  C_4
REMARK    4  A    between atoms: C_4  and  C_5
REMARK    5  A    between atoms: C_5  and  N_6
REMARK    6  A    between atoms: C_8  and  C_9
REMARK    7  A    between atoms: C_9  and  C_11
REMARK    8  A    between atoms: C_11  and  C_12
REMARK                            x       y       z     vdW  Elec       q    Type
REMARK                         _______ _______ _______ _____ _____    ______ ____
ROOT
ATOM      1  N   UNL     1       6.024   5.641  15.603  0.00  0.00    +0.000 N 
ATOM      2  C   UNL     1       4.859   6.361  15.727  0.00  0.00    +0.000 A 
ATOM      3  C   UNL     1       4.620   6.568  17.074  0.00  0.00    +0.000 A 
ATOM      4  C   UNL     1       5.719   5.990  17.780  0.00  0.00    +0.000 A 
ATOM      5  C   UNL     1       6.044   5.883  19.148  0.00  0.00    +0.000 A 
ATOM      6  C   UNL     1       7.190   5.210  19.551  0.00  0.00    +0.000 A 
ATOM      7  C   UNL     1       8.014   4.621  18.608  0.00  0.00    +0.000 A 
ATOM      8  C   UNL     1       7.725   4.705  17.241  0.00  0.00    +0.000 A 
ATOM      9  C   UNL     1       6.571   5.402  16.846  0.00  0.00    +0.000 A 
ENDROOT
BRANCH   3  10
ATOM     10  C   UNL     1       3.434   7.219  17.650  0.00  0.00    +0.000 C 
ATOM     11  O   UNL     1       2.840   8.092  17.043  0.00  0.00    +0.000 OA
BRANCH  10  12
ATOM     12  C   UNL     1       2.973   6.765  19.036  0.00  0.00    +0.000 C 
BRANCH  12  13
ATOM     13  C   UNL     1       2.283   5.416  19.085  0.00  0.00    +0.000 A 
ATOM     14  C   UNL     1       1.968   4.748  17.891  0.00  0.00    +0.000 A 
ATOM     15  C   UNL     1       1.329   3.503  17.917  0.00  0.00    +0.000 A 
ATOM     16  C   UNL     1       0.983   2.921  19.135  0.00  0.00    +0.000 A 
ATOM     17  C   UNL     1       1.270   3.592  20.316  0.00  0.00    +0.000 A 
ATOM     18  F   UNL     1       0.944   3.034  21.489  0.00  0.00    +0.000 F 
ATOM     19  C   UNL     1       1.898   4.831  20.302  0.00  0.00    +0.000 A 
ENDBRANCH  12  13
ENDBRANCH  10  12
ENDBRANCH   3  10
BRANCH   1  20
ATOM     20  C   UNL     1       6.562   5.172  14.334  0.00  0.00    +0.000 C 
BRANCH  20  21
ATOM     21  C   UNL     1       5.848   3.915  13.844  0.00  0.00    +0.000 C 
BRANCH  21  22
ATOM     22  C   UNL     1       6.285   3.547  12.428  0.00  0.00    +0.000 C 
BRANCH  22  24
ATOM     23  C   UNL     1       4.089   3.265  11.240  0.00  0.00    +0.000 C 
ATOM     24  C   UNL     1       5.313   2.555  11.793  0.00  0.00    +0.000 C 
ENDBRANCH  22  24
ENDBRANCH  21  22
ENDBRANCH  20  21
ENDBRANCH   1  20
TORSDOF 7
ENDMDL
MODEL 8
REMARK VINA RESULT:      -7.7      3.271      7.792
REMARK  Name = 
REMARK  8 active torsions:
REMARK  status: ('A' for Active; 'I' for Inactive)
REMARK    1  A    between atoms: C_1  and  C_2
REMARK    2  A    between atoms: C_2  and  C_3
REMARK    3  A    between atoms: C_3  and  C_4
REMARK    4  A    between atoms: C_4  and  C_5
REMARK    5  A    between atoms: C_5  and  N_6
REMARK    6  A    between atoms: C_8  and  C_9
REMARK    7  A    between atoms: C_9  and  C_11
REMARK    8  A    between atoms: C_11  and  C_12
REMARK                            x       y       z     vdW  Elec       q    Type
REMARK                         _______ _______ _______ _____ _____    ______ ____
ROOT
ATOM      1  N   UNL     1       2.961   6.791  18.024  0.00  0.00    +0.000 N 
ATOM      2  C   UNL     1       4.188   7.147  17.519  0.00  0.00    +0.000 A 
ATOM      3  C   UNL     1       4.844   5.995  17.122  0.00  0.00    +0.000 A 
ATOM      4  C   UNL     1       3.945   4.909  17.354  0.00  0.00    +0.000 A 
ATOM      5  C   UNL     1       4.034   3.517  17.153  0.00  0.00    +0.000 A 
ATOM      6  C   UNL     1       2.987   2.682  17.522  0.00  0.00    +0.000 A 
ATOM      7  C   UNL     1       1.852   3.213  18.109  0.00  0.00    +0.000 A 
ATOM      8  C   UNL     1       1.726   4.591  18.325  0.00  0.00    +0.000 A 
ATOM      9  C   UNL     1       2.785   5.426  17.933  0.00  0.00    +0.000 A 
ENDROOT
BRANCH   3  10
ATOM     10  C   UNL     1       6.219   5.917  16.606  0.00  0.00    +0.000 C 
ATOM     11  O   UNL     1       6.940   6.899  16.592  0.00  0.00    +0.000 OA
BRANCH  10  12
ATOM     12  C   UNL     1       6.712   4.566  16.090  0.00  0.00    +0.000 C 
BRANCH  12  13
ATOM     13  C   UNL     1       6.782   4.427  14.582  0.00  0.00    +0.000 A 
ATOM     14  C   UNL     1       7.675   5.223  13.847  0.00  0.00    +0.000 A 
ATOM     15  C   UNL     1       7.751   5.112  12.454  0.00  0.00    +0.000 A 
ATOM     16  C   UNL     1       6.924   4.216  11.780  0.00  0.00    +0.000 A 
ATOM     17  C   UNL     1       6.020   3.447  12.501  0.00  0.00    +0.000 A 
ATOM     18  F   UNL     1       5.228   2.581  11.858  0.00  0.00    +0.000 F 
ATOM     19  C   UNL     1       5.932   3.555  13.884  0.00  0.00    +0.000 A 
ENDBRANCH  12  13
ENDBRANCH  10  12
ENDBRANCH   3  10
BRANCH   1  20
ATOM     20  C   UNL     1       2.013   7.731  18.606  0.00  0.00    +0.000 C 
BRANCH  20  21
ATOM     21  C   UNL     1       1.967   9.045  17.829  0.00  0.00    +0.000 C 
BRANCH  21  22
ATOM     22  C   UNL     1       0.713   9.845  18.171  0.00  0.00    +0.000 C 
BRANCH  22  24
ATOM     23  C   UNL     1      -0.421  10.072  20.402  0.00  0.00    +0.000 C 
ATOM     24  C   UNL     1       0.802  10.434  19.577  0.00  0.00    +0.000 C 
ENDBRANCH  22  24
ENDBRANCH  21  22
ENDBRANCH  20  21
ENDBRANCH   1  20
TORSDOF 7
ENDMDL
MODEL 9
REMARK VINA RESULT:      -7.7      0.805      1.259
REMARK  Name = 
REMARK  8 active torsions:
REMARK  status: ('A' for Active; 'I' for Inactive)
REMARK    1  A    between atoms: C_1  and  C_2
REMARK    2  A    between atoms: C_2  and  C_3
REMARK    3  A    between atoms: C_3  and  C_4
REMARK    4  A    between atoms: C_4  and  C_5
REMARK    5  A    between atoms: C_5  and  N_6
REMARK    6  A    between atoms: C_8  and  C_9
REMARK    7  A    between atoms: C_9  and  C_11
REMARK    8  A    between atoms: C_11  and  C_12
REMARK                            x       y       z     vdW  Elec       q    Type
REMARK                         _______ _______ _______ _____ _____    ______ ____
ROOT
ATOM      1  N   UNL     1       4.727   5.334  17.142  0.00  0.00    +0.000 N 
ATOM      2  C   UNL     1       4.365   6.594  17.553  0.00  0.00    +0.000 A 
ATOM      3  C   UNL     1       3.112   6.517  18.136  0.00  0.00    +0.000 A 
ATOM      4  C   UNL     1       2.735   5.139  18.117  0.00  0.00    +0.000 A 
ATOM      5  C   UNL     1       1.593   4.440  18.559  0.00  0.00    +0.000 A 
ATOM      6  C   UNL     1       1.485   3.069  18.363  0.00  0.00    +0.000 A 
ATOM      7  C   UNL     1       2.493   2.381  17.713  0.00  0.00    +0.000 A 
ATOM      8  C   UNL     1       3.643   3.040  17.258  0.00  0.00    +0.000 A 
ATOM      9  C   UNL     1       3.747   4.423  17.476  0.00  0.00    +0.000 A 
ENDROOT
BRANCH   3  10
ATOM     10  C   UNL     1       2.318   7.650  18.632  0.00  0.00    +0.000 C 
ATOM     11  O   UNL     1       2.135   7.813  19.825  0.00  0.00    +0.000 OA
BRANCH  10  12
ATOM     12  C   UNL     1       1.732   8.616  17.602  0.00  0.00    +0.000 C 
BRANCH  12  13
ATOM     13  C   UNL     1       1.247   9.943  18.151  0.00  0.00    +0.000 A 
ATOM     14  C   UNL     1       2.134  11.029  18.240  0.00  0.00    +0.000 A 
ATOM     15  C   UNL     1       1.705  12.260  18.748  0.00  0.00    +0.000 A 
ATOM     16  C   UNL     1       0.392  12.416  19.187  0.00  0.00    +0.000 A 
ATOM     17  C   UNL     1      -0.479  11.336  19.125  0.00  0.00    +0.000 A 
ATOM     18  F   UNL     1      -1.743  11.483  19.541  0.00  0.00    +0.000 F 
ATOM     19  C   UNL     1      -0.062  10.107  18.629  0.00  0.00    +0.000 A 
ENDBRANCH  12  13
ENDBRANCH  10  12
ENDBRANCH   3  10
BRANCH   1  20
ATOM     20  C   UNL     1       5.955   5.032  16.421  0.00  0.00    +0.000 C 
BRANCH  20  21
ATOM     21  C   UNL     1       5.746   5.056  14.908  0.00  0.00    +0.000 C 
BRANCH  21  22
ATOM     22  C   UNL     1       6.133   3.722  14.276  0.00  0.00    +0.000 C 
BRANCH  22  24
ATOM     23  C   UNL     1       5.179   3.225  12.005  0.00  0.00    +0.000 C 
ATOM     24  C   UNL     1       6.327   3.864  12.768  0.00  0.00    +0.000 C 
ENDBRANCH  22  24
ENDBRANCH  21  22
ENDBRANCH  20  21
ENDBRANCH   1  20
TORSDOF 7
ENDMDL
