MODEL 1
REMARK VINA RESULT:      -8.5      0.000      0.000
REMARK  Name = 
REMARK  7 active torsions:
REMARK  status: ('A' for Active; 'I' for Inactive)
REMARK    1  A    between atoms: C_1  and  N_2
REMARK    2  A    between atoms: N_2  and  C_3
REMARK    3  A    between atoms: N_2  and  C_4
REMARK    4  A    between atoms: C_4  and  C_5
REMARK    5  A    between atoms: C_5  and  N_6
REMARK    6  A    between atoms: C_15  and  C_16
REMARK    7  A    between atoms: C_20  and  N_21
REMARK                            x       y       z     vdW  Elec       q    Type
REMARK                         _______ _______ _______ _____ _____    ______ ____
ROOT
ATOM      1  N   UNL     1       4.273   5.542  17.132  0.00  0.00    +0.000 N 
ATOM      2  C   UNL     1       4.046   4.253  17.613  0.00  0.00    +0.000 C 
ATOM      3  O   UNL     1       4.606   3.249  17.179  0.00  0.00    +0.000 OA
ATOM      4  C   UNL     1       3.109   4.112  18.749  0.00  0.00    +0.000 A 
ATOM      5  C   UNL     1       2.824   2.837  19.256  0.00  0.00    +0.000 A 
ATOM      6  C   UNL     1       1.987   2.698  20.359  0.00  0.00    +0.000 A 
ATOM      7  C   UNL     1       1.434   3.832  20.955  0.00  0.00    +0.000 A 
ATOM      8  C   UNL     1       1.696   5.114  20.447  0.00  0.00    +0.000 A 
ATOM      9  C   UNL     1       1.139   6.264  21.037  0.00  0.00    +0.000 A 
ATOM     10  C   UNL     1       1.365   7.557  20.526  0.00  0.00    +0.000 A 
ATOM     11  C   UNL     1       2.206   7.658  19.405  0.00  0.00    +0.000 A 
ATOM     12  C   UNL     1       2.800   6.528  18.825  0.00  0.00    +0.000 A 
ATOM     13  C   UNL     1       2.543   5.253  19.325  0.00  0.00    +0.000 A 
ATOM     14  C   UNL     1       3.729   6.701  17.685  0.00  0.00    +0.000 C 
ATOM     15  O   UNL     1       4.005   7.841  17.318  0.00  0.00    +0.000 OA
ENDROOT
BRANCH  10  16
ATOM     16  C   UNL     1       0.739   8.759  21.129  0.00  0.00    +0.000 A 
ATOM     17  C   UNL     1       0.133   8.715  22.398  0.00  0.00    +0.000 A 
ATOM     18  C   UNL     1      -0.443   9.852  22.970  0.00  0.00    +0.000 A 
ATOM     19  C   UNL     1      -0.430  11.061  22.280  0.00  0.00    +0.000 A 
ATOM     20  C   UNL     1       0.197  11.159  21.041  0.00  0.00    +0.000 A 
ATOM     21  C   UNL     1       0.734  10.001  20.462  0.00  0.00    +0.000 A 
BRANCH  20  22
ATOM     22  N   UNL     1       0.091  12.337  20.288  0.00  0.00    +0.000 N 
ATOM     23  H   UNL     1      -0.379  13.092  20.777  0.00  0.00    +0.000 HD
ATOM     24  H   UNL     1       0.966  12.636  19.868  0.00  0.00    +0.000 HD
ENDBRANCH  20  22
ENDBRANCH  10  16
BRANCH   1  25
ATOM     25  C   UNL     1       5.242   5.690  16.046  0.00  0.00    +0.000 C 
BRANCH  25  26
ATOM     26  C   UNL     1       6.714   5.745  16.512  0.00  0.00    +0.000 C 
BRANCH  26  28
ATOM     27  C   UNL     1       7.718   5.611  18.726  0.00  0.00    +0.000 C 
ATOM     28  N   UNL     1       6.948   6.439  17.796  0.00  0.00    +0.000 NA
ATOM     29  C   UNL     1       7.657   7.698  17.549  0.00  0.00    +0.000 C 
ENDBRANCH  26  28
ENDBRANCH  25  26
ENDBRANCH   1  25
TORSDOF 5
ENDMDL
MODEL 2
REMARK VINA RESULT:      -8.2      0.950      1.329
REMARK  Name = 
REMARK  7 active torsions:
REMARK  status: ('A' for Active; 'I' for Inactive)
REMARK    1  A    between atoms: C_1  and  N_2
REMARK    2  A    between atoms: N_2  and  C_3
REMARK    3  A    between atoms: N_2  and  C_4
REMARK    4  A    between atoms: C_4  and  C_5
REMARK    5  A    between atoms: C_5  and  N_6
REMARK    6  A    between atoms: C_15  and  C_16
REMARK    7  A    between atoms: C_20  and  N_21
REMARK                            x       y       z     vdW  Elec       q    Type
REMARK                         _______ _______ _______ _____ _____    ______ ____
ROOT
ATOM      1  N   UNL     1       4.339   4.964  17.010  0.00  0.00    +0.000 N 
ATOM      2  C   UNL     1       4.092   3.758  17.665  0.00  0.00    +0.000 C 
ATOM      3  O   UNL     1       4.616   2.689  17.358  0.00  0.00    +0.000 OA
ATOM      4  C   UNL     1       3.181   3.797  18.830  0.00  0.00    +0.000 A 
ATOM      5  C   UNL     1       2.878   2.611  19.511  0.00  0.00    +0.000 A 
ATOM      6  C   UNL     1       2.066   2.646  20.641  0.00  0.00    +0.000 A 
ATOM      7  C   UNL     1       1.557   3.864  21.090  0.00  0.00    +0.000 A 
ATOM      8  C   UNL     1       1.839   5.058  20.408  0.00  0.00    +0.000 A 
ATOM      9  C   UNL     1       1.326   6.293  20.850  0.00  0.00    +0.000 A 
ATOM     10  C   UNL     1       1.571   7.498  20.163  0.00  0.00    +0.000 A 
ATOM     11  C   UNL     1       2.385   7.424  19.021  0.00  0.00    +0.000 A 
ATOM     12  C   UNL     1       2.935   6.210  18.586  0.00  0.00    +0.000 A 
ATOM     13  C   UNL     1       2.659   5.021  19.259  0.00  0.00    +0.000 A 
ATOM     14  C   UNL     1       3.838   6.201  17.412  0.00  0.00    +0.000 C 
ATOM     15  O   UNL     1       4.134   7.273  16.889  0.00  0.00    +0.000 OA
ENDROOT
BRANCH  10  16
ATOM     16  C   UNL     1       0.990   8.788  20.612  0.00  0.00    +0.000 A 
ATOM     17  C   UNL     1       1.160   9.970  19.868  0.00  0.00    +0.000 A 
ATOM     18  C   UNL     1       0.600  11.180  20.285  0.00  0.00    +0.000 A 
ATOM     19  C   UNL     1      -0.141  11.235  21.462  0.00  0.00    +0.000 A 
ATOM     20  C   UNL     1      -0.369  10.080  22.206  0.00  0.00    +0.000 A 
ATOM     21  C   UNL     1       0.233   8.883  21.797  0.00  0.00    +0.000 A 
BRANCH  20  22
ATOM     22  N   UNL     1      -0.995  10.160  23.458  0.00  0.00    +0.000 N 
ATOM     23  H   UNL     1      -2.007  10.103  23.411  0.00  0.00    +0.000 HD
ATOM     24  H   UNL     1      -0.606   9.530  24.152  0.00  0.00    +0.000 HD
ENDBRANCH  20  22
ENDBRANCH  10  16
BRANCH   1  25
ATOM     25  C   UNL     1       5.283   4.937  15.893  0.00  0.00    +0.000 C 
BRANCH  25  26
ATOM     26  C   UNL     1       6.763   5.096  16.308  0.00  0.00    +0.000 C 
BRANCH  26  28
ATOM     27  C   UNL     1       7.853   4.953  18.480  0.00  0.00    +0.000 C 
ATOM     28  N   UNL     1       6.989   5.755  17.612  0.00  0.00    +0.000 NA
ATOM     29  C   UNL     1       7.589   7.074  17.395  0.00  0.00    +0.000 C 
ENDBRANCH  26  28
ENDBRANCH  25  26
ENDBRANCH   1  25
TORSDOF 5
ENDMDL
MODEL 3
REMARK VINA RESULT:      -8.1      1.630      2.324
REMARK  Name = 
REMARK  7 active torsions:
REMARK  status: ('A' for Active; 'I' for Inactive)
REMARK    1  A    between atoms: C_1  and  N_2
REMARK    2  A    between atoms: N_2  and  C_3
REMARK    3  A    between atoms: N_2  and  C_4
REMARK    4  A    between atoms: C_4  and  C_5
REMARK    5  A    between atoms: C_5  and  N_6
REMARK    6  A    between atoms: C_15  and  C_16
REMARK    7  A    between atoms: C_20  and  N_21
REMARK                            x       y       z     vdW  Elec       q    Type
REMARK                         _______ _______ _______ _____ _____    ______ ____
ROOT
ATOM      1  N   UNL     1       4.593   4.873  17.157  0.00  0.00    +0.000 N 
ATOM      2  C   UNL     1       4.180   3.645  17.674  0.00  0.00    +0.000 C 
ATOM      3  O   UNL     1       4.671   2.565  17.352  0.00  0.00    +0.000 OA
ATOM      4  C   UNL     1       3.123   3.669  18.708  0.00  0.00    +0.000 A 
ATOM      5  C   UNL     1       2.653   2.463  19.244  0.00  0.00    +0.000 A 
ATOM      6  C   UNL     1       1.698   2.477  20.256  0.00  0.00    +0.000 A 
ATOM      7  C   UNL     1       1.213   3.695  20.733  0.00  0.00    +0.000 A 
ATOM      8  C   UNL     1       1.662   4.910  20.193  0.00  0.00    +0.000 A 
ATOM      9  C   UNL     1       1.175   6.145  20.663  0.00  0.00    +0.000 A 
ATOM     10  C   UNL     1       1.589   7.375  20.115  0.00  0.00    +0.000 A 
ATOM     11  C   UNL     1       2.545   7.322  19.087  0.00  0.00    +0.000 A 
ATOM     12  C   UNL     1       3.070   6.104  18.631  0.00  0.00    +0.000 A 
ATOM     13  C   UNL     1       2.628   4.895  19.163  0.00  0.00    +0.000 A 
ATOM     14  C   UNL     1       4.123   6.112  17.590  0.00  0.00    +0.000 C 
ATOM     15  O   UNL     1       4.556   7.194  17.198  0.00  0.00    +0.000 OA
ENDROOT
BRANCH  10  16
ATOM     16  C   UNL     1       1.038   8.669  20.587  0.00  0.00    +0.000 A 
ATOM     17  C   UNL     1       1.223   9.858  19.857  0.00  0.00    +0.000 A 
ATOM     18  C   UNL     1       0.691  11.072  20.297  0.00  0.00    +0.000 A 
ATOM     19  C   UNL     1      -0.038  11.125  21.482  0.00  0.00    +0.000 A 
ATOM     20  C   UNL     1      -0.282   9.965  22.212  0.00  0.00    +0.000 A 
ATOM     21  C   UNL     1       0.294   8.762  21.781  0.00  0.00    +0.000 A 
BRANCH  20  22
ATOM     22  N   UNL     1      -0.894  10.039  23.471  0.00  0.00    +0.000 N 
ATOM     23  H   UNL     1      -0.800  10.946  23.916  0.00  0.00    +0.000 HD
ATOM     24  H   UNL     1      -1.851   9.701  23.482  0.00  0.00    +0.000 HD
ENDBRANCH  20  22
ENDBRANCH  10  16
BRANCH   1  25
ATOM     25  C   UNL     1       5.677   4.855  16.175  0.00  0.00    +0.000 C 
BRANCH  25  26
ATOM     26  C   UNL     1       5.245   4.406  14.761  0.00  0.00    +0.000 C 
BRANCH  26  28
ATOM     27  C   UNL     1       5.825   3.463  12.594  0.00  0.00    +0.000 C 
ATOM     28  N   UNL     1       6.328   3.884  13.902  0.00  0.00    +0.000 NA
ATOM     29  C   UNL     1       7.356   4.915  13.731  0.00  0.00    +0.000 C 
ENDBRANCH  26  28
ENDBRANCH  25  26
ENDBRANCH   1  25
TORSDOF 5
ENDMDL
MODEL 4
REMARK VINA RESULT:      -8.0      1.359      1.923
REMARK  Name = 
REMARK  7 active torsions:
REMARK  status: ('A' for Active; 'I' for Inactive)
REMARK    1  A    between atoms: C_1  and  N_2
REMARK    2  A    between atoms: N_2  and  C_3
REMARK    3  A    between atoms: N_2  and  C_4
REMARK    4  A    between atoms: C_4  and  C_5
REMARK    5  A    between atoms: C_5  and  N_6
REMARK    6  A    between atoms: C_15  and  C_16
REMARK    7  A    between atoms: C_20  and  N_21
REMARK                            x       y       z     vdW  Elec       q    Type
REMARK                         _______ _______ _______ _____ _____    ______ ____
ROOT
ATOM      1  N   UNL     1       4.583   4.970  17.271  0.00  0.00    +0.000 N 
ATOM      2  C   UNL     1       4.157   3.725  17.730  0.00  0.00    +0.000 C 
ATOM      3  O   UNL     1       4.647   2.655  17.372  0.00  0.00    +0.000 OA
ATOM      4  C   UNL     1       3.084   3.711  18.749  0.00  0.00    +0.000 A 
ATOM      5  C   UNL     1       2.600   2.487  19.228  0.00  0.00    +0.000 A 
ATOM      6  C   UNL     1       1.630   2.465  20.225  0.00  0.00    +0.000 A 
ATOM      7  C   UNL     1       1.143   3.665  20.743  0.00  0.00    +0.000 A 
ATOM      8  C   UNL     1       1.606   4.899  20.260  0.00  0.00    +0.000 A 
ATOM      9  C   UNL     1       1.117   6.117  20.773  0.00  0.00    +0.000 A 
ATOM     10  C   UNL     1       1.546   7.365  20.282  0.00  0.00    +0.000 A 
ATOM     11  C   UNL     1       2.517   7.349  19.267  0.00  0.00    +0.000 A 
ATOM     12  C   UNL     1       3.043   6.148  18.770  0.00  0.00    +0.000 A 
ATOM     13  C   UNL     1       2.587   4.920  19.245  0.00  0.00    +0.000 A 
ATOM     14  C   UNL     1       4.112   6.193  17.746  0.00  0.00    +0.000 C 
ATOM     15  O   UNL     1       4.556   7.287  17.406  0.00  0.00    +0.000 OA
ENDROOT
BRANCH  10  16
ATOM     16  C   UNL     1       0.993   8.642  20.798  0.00  0.00    +0.000 A 
ATOM     17  C   UNL     1       0.470   8.744  22.100  0.00  0.00    +0.000 A 
ATOM     18  C   UNL     1      -0.037   9.951  22.589  0.00  0.00    +0.000 A 
ATOM     19  C   UNL     1      -0.034  11.085  21.781  0.00  0.00    +0.000 A 
ATOM     20  C   UNL     1       0.514  11.039  20.502  0.00  0.00    +0.000 A 
ATOM     21  C   UNL     1       0.980   9.811  20.011  0.00  0.00    +0.000 A 
BRANCH  20  22
ATOM     22  N   UNL     1       0.392  12.139  19.641  0.00  0.00    +0.000 N 
ATOM     23  H   UNL     1       0.670  11.940  18.686  0.00  0.00    +0.000 HD
ATOM     24  H   UNL     1      -0.509  12.602  19.692  0.00  0.00    +0.000 HD
ENDBRANCH  20  22
ENDBRANCH  10  16
BRANCH   1  25
ATOM     25  C   UNL     1       5.682   4.986  16.305  0.00  0.00    +0.000 C 
BRANCH  25  26
ATOM     26  C   UNL     1       5.253   4.692  14.850  0.00  0.00    +0.000 C 
BRANCH  26  28
ATOM     27  C   UNL     1       5.692   3.510  12.768  0.00  0.00    +0.000 C 
ATOM     28  N   UNL     1       6.269   4.020  14.013  0.00  0.00    +0.000 NA
ATOM     29  C   UNL     1       7.351   4.961  13.710  0.00  0.00    +0.000 C 
ENDBRANCH  26  28
ENDBRANCH  25  26
ENDBRANCH   1  25
TORSDOF 5
ENDMDL
MODEL 5
REMARK VINA RESULT:      -8.0      2.428      7.589
REMARK  Name = 
REMARK  7 active torsions:
REMARK  status: ('A' for Active; 'I' for Inactive)
REMARK    1  A    between atoms: C_1  and  N_2
REMARK    2  A    between atoms: N_2  and  C_3
REMARK    3  A    between atoms: N_2  and  C_4
REMARK    4  A    between atoms: C_4  and  C_5
REMARK    5  A    between atoms: C_5  and  N_6
REMARK    6  A    between atoms: C_15  and  C_16
REMARK    7  A    between atoms: C_20  and  N_21
REMARK                            x       y       z     vdW  Elec       q    Type
REMARK                         _______ _______ _______ _____ _____    ______ ____
ROOT
ATOM      1  N   UNL     1       2.586   6.940  19.235  0.00  0.00    +0.000 N 
ATOM      2  C   UNL     1       2.166   5.778  19.881  0.00  0.00    +0.000 C 
ATOM      3  O   UNL     1       1.410   5.765  20.850  0.00  0.00    +0.000 OA
ATOM      4  C   UNL     1       2.628   4.489  19.320  0.00  0.00    +0.000 A 
ATOM      5  C   UNL     1       2.256   3.291  19.943  0.00  0.00    +0.000 A 
ATOM      6  C   UNL     1       2.640   2.072  19.391  0.00  0.00    +0.000 A 
ATOM      7  C   UNL     1       3.394   2.051  18.218  0.00  0.00    +0.000 A 
ATOM      8  C   UNL     1       3.788   3.244  17.593  0.00  0.00    +0.000 A 
ATOM      9  C   UNL     1       4.554   3.234  16.411  0.00  0.00    +0.000 A 
ATOM     10  C   UNL     1       4.985   4.418  15.784  0.00  0.00    +0.000 A 
ATOM     11  C   UNL     1       4.590   5.630  16.375  0.00  0.00    +0.000 A 
ATOM     12  C   UNL     1       3.796   5.661  17.530  0.00  0.00    +0.000 A 
ATOM     13  C   UNL     1       3.402   4.480  18.156  0.00  0.00    +0.000 A 
ATOM     14  C   UNL     1       3.354   6.967  18.073  0.00  0.00    +0.000 C 
ATOM     15  O   UNL     1       3.644   7.989  17.455  0.00  0.00    +0.000 OA
ENDROOT
BRANCH  10  16
ATOM     16  C   UNL     1       5.829   4.397  14.563  0.00  0.00    +0.000 A 
ATOM     17  C   UNL     1       5.505   3.587  13.459  0.00  0.00    +0.000 A 
ATOM     18  C   UNL     1       6.293   3.580  12.306  0.00  0.00    +0.000 A 
ATOM     19  C   UNL     1       7.428   4.383  12.232  0.00  0.00    +0.000 A 
ATOM     20  C   UNL     1       7.761   5.231  13.285  0.00  0.00    +0.000 A 
ATOM     21  C   UNL     1       6.985   5.196  14.452  0.00  0.00    +0.000 A 
BRANCH  20  22
ATOM     22  N   UNL     1       8.974   5.933  13.269  0.00  0.00    +0.000 N 
ATOM     23  H   UNL     1       9.088   6.567  14.054  0.00  0.00    +0.000 HD
ATOM     24  H   UNL     1       9.788   5.343  13.131  0.00  0.00    +0.000 HD
ENDBRANCH  20  22
ENDBRANCH  10  16
BRANCH   1  25
ATOM     25  C   UNL     1       2.085   8.212  19.755  0.00  0.00    +0.000 C 
BRANCH  25  26
ATOM     26  C   UNL     1       1.040   8.901  18.849  0.00  0.00    +0.000 C 
BRANCH  26  28
ATOM     27  C   UNL     1      -0.704  10.576  18.569  0.00  0.00    +0.000 C 
ATOM     28  N   UNL     1       0.356  10.069  19.442  0.00  0.00    +0.000 NA
ATOM     29  C   UNL     1      -0.208   9.696  20.743  0.00  0.00    +0.000 C 
ENDBRANCH  26  28
ENDBRANCH  25  26
ENDBRANCH   1  25
TORSDOF 5
ENDMDL
MODEL 6
REMARK VINA RESULT:      -8.0      1.244      1.526
REMARK  Name = 
REMARK  7 active torsions:
REMARK  status: ('A' for Active; 'I' for Inactive)
REMARK    1  A    between atoms: C_1  and  N_2
REMARK    2  A    between atoms: N_2  and  C_3
REMARK    3  A    between atoms: N_2  and  C_4
REMARK    4  A    between atoms: C_4  and  C_5
REMARK    5  A    between atoms: C_5  and  N_6
REMARK    6  A    between atoms: C_15  and  C_16
REMARK    7  A    between atoms: C_20  and  N_21
REMARK                            x       y       z     vdW  Elec       q    Type
REMARK                         _______ _______ _______ _____ _____    ______ ____
ROOT
ATOM      1  N   UNL     1       4.211   4.215  17.108  0.00  0.00    +0.000 N 
ATOM      2  C   UNL     1       3.803   3.105  17.847  0.00  0.00    +0.000 C 
ATOM      3  O   UNL     1       4.201   1.960  17.643  0.00  0.00    +0.000 OA
ATOM      4  C   UNL     1       2.875   3.347  18.973  0.00  0.00    +0.000 A 
ATOM      5  C   UNL     1       2.414   2.265  19.734  0.00  0.00    +0.000 A 
ATOM      6  C   UNL     1       1.584   2.488  20.829  0.00  0.00    +0.000 A 
ATOM      7  C   UNL     1       1.215   3.791  21.163  0.00  0.00    +0.000 A 
ATOM      8  C   UNL     1       1.656   4.884  20.400  0.00  0.00    +0.000 A 
ATOM      9  C   UNL     1       1.286   6.203  20.726  0.00  0.00    +0.000 A 
ATOM     10  C   UNL     1       1.693   7.310  19.956  0.00  0.00    +0.000 A 
ATOM     11  C   UNL     1       2.520   7.046  18.852  0.00  0.00    +0.000 A 
ATOM     12  C   UNL     1       2.929   5.744  18.533  0.00  0.00    +0.000 A 
ATOM     13  C   UNL     1       2.495   4.656  19.287  0.00  0.00    +0.000 A 
ATOM     14  C   UNL     1       3.854   5.532  17.395  0.00  0.00    +0.000 C 
ATOM     15  O   UNL     1       4.290   6.514  16.800  0.00  0.00    +0.000 OA
ENDROOT
BRANCH  10  16
ATOM     16  C   UNL     1       1.262   8.692  20.282  0.00  0.00    +0.000 A 
ATOM     17  C   UNL     1       0.936   9.069  21.598  0.00  0.00    +0.000 A 
ATOM     18  C   UNL     1       0.545  10.375  21.905  0.00  0.00    +0.000 A 
ATOM     19  C   UNL     1       0.467  11.334  20.898  0.00  0.00    +0.000 A 
ATOM     20  C   UNL     1       0.822  11.013  19.590  0.00  0.00    +0.000 A 
ATOM     21  C   UNL     1       1.172   9.690  19.291  0.00  0.00    +0.000 A 
BRANCH  20  22
ATOM     22  N   UNL     1       0.613  11.936  18.556  0.00  0.00    +0.000 N 
ATOM     23  H   UNL     1       1.471  12.269  18.128  0.00  0.00    +0.000 HD
ATOM     24  H   UNL     1      -0.068  11.633  17.867  0.00  0.00    +0.000 HD
ENDBRANCH  20  22
ENDBRANCH  10  16
BRANCH   1  25
ATOM     25  C   UNL     1       5.172   3.985  16.030  0.00  0.00    +0.000 C 
BRANCH  25  26
ATOM     26  C   UNL     1       6.650   4.011  16.481  0.00  0.00    +0.000 C 
BRANCH  26  28
ATOM     27  C   UNL     1       7.111   5.210  14.413  0.00  0.00    +0.000 C 
ATOM     28  N   UNL     1       7.500   5.018  15.811  0.00  0.00    +0.000 NA
ATOM     29  C   UNL     1       7.408   6.291  16.531  0.00  0.00    +0.000 C 
ENDBRANCH  26  28
ENDBRANCH  25  26
ENDBRANCH   1  25
TORSDOF 5
ENDMDL
MODEL 7
REMARK VINA RESULT:      -7.9      1.300      1.775
REMARK  Name = 
REMARK  7 active torsions:
REMARK  status: ('A' for Active; 'I' for Inactive)
REMARK    1  A    between atoms: C_1  and  N_2
REMARK    2  A    between atoms: N_2  and  C_3
REMARK    3  A    between atoms: N_2  and  C_4
REMARK    4  A    between atoms: C_4  and  C_5
REMARK    5  A    between atoms: C_5  and  N_6
REMARK    6  A    between atoms: C_15  and  C_16
REMARK    7  A    between atoms: C_20  and  N_21
REMARK                            x       y       z     vdW  Elec       q    Type
REMARK                         _______ _______ _______ _____ _____    ______ ____
ROOT
ATOM      1  N   UNL     1       4.113   4.403  17.120  0.00  0.00    +0.000 N 
ATOM      2  C   UNL     1       3.764   3.238  17.802  0.00  0.00    +0.000 C 
ATOM      3  O   UNL     1       4.197   2.122  17.522  0.00  0.00    +0.000 OA
ATOM      4  C   UNL     1       2.855   3.380  18.961  0.00  0.00    +0.000 A 
ATOM      5  C   UNL     1       2.452   2.240  19.667  0.00  0.00    +0.000 A 
ATOM      6  C   UNL     1       1.642   2.368  20.791  0.00  0.00    +0.000 A 
ATOM      7  C   UNL     1       1.235   3.635  21.210  0.00  0.00    +0.000 A 
ATOM      8  C   UNL     1       1.618   4.786  20.502  0.00  0.00    +0.000 A 
ATOM      9  C   UNL     1       1.209   6.069  20.912  0.00  0.00    +0.000 A 
ATOM     10  C   UNL     1       1.556   7.233  20.199  0.00  0.00    +0.000 A 
ATOM     11  C   UNL     1       2.365   7.064  19.063  0.00  0.00    +0.000 A 
ATOM     12  C   UNL     1       2.813   5.799  18.660  0.00  0.00    +0.000 A 
ATOM     13  C   UNL     1       2.436   4.653  19.358  0.00  0.00    +0.000 A 
ATOM     14  C   UNL     1       3.716   5.687  17.491  0.00  0.00    +0.000 C 
ATOM     15  O   UNL     1       4.102   6.718  16.945  0.00  0.00    +0.000 OA
ENDROOT
BRANCH  10  16
ATOM     16  C   UNL     1       1.084   8.577  20.616  0.00  0.00    +0.000 A 
ATOM     17  C   UNL     1       1.364   9.724  19.851  0.00  0.00    +0.000 A 
ATOM     18  C   UNL     1       0.906  10.986  20.237  0.00  0.00    +0.000 A 
ATOM     19  C   UNL     1       0.158  11.129  21.403  0.00  0.00    +0.000 A 
ATOM     20  C   UNL     1      -0.178  10.014  22.166  0.00  0.00    +0.000 A 
ATOM     21  C   UNL     1       0.324   8.761  21.788  0.00  0.00    +0.000 A 
BRANCH  20  22
ATOM     22  N   UNL     1      -0.809  10.173  23.407  0.00  0.00    +0.000 N 
ATOM     23  H   UNL     1      -0.746   9.353  24.003  0.00  0.00    +0.000 HD
ATOM     24  H   UNL     1      -0.549  11.024  23.895  0.00  0.00    +0.000 HD
ENDBRANCH  20  22
ENDBRANCH  10  16
BRANCH   1  25
ATOM     25  C   UNL     1       5.055   4.271  16.009  0.00  0.00    +0.000 C 
BRANCH  25  26
ATOM     26  C   UNL     1       6.528   4.097  16.443  0.00  0.00    +0.000 C 
BRANCH  26  28
ATOM     27  C   UNL     1       7.243   5.276  14.437  0.00  0.00    +0.000 C 
ATOM     28  N   UNL     1       7.478   5.072  15.867  0.00  0.00    +0.000 NA
ATOM     29  C   UNL     1       7.360   6.348  16.577  0.00  0.00    +0.000 C 
ENDBRANCH  26  28
ENDBRANCH  25  26
ENDBRANCH   1  25
TORSDOF 5
ENDMDL
MODEL 8
REMARK VINA RESULT:      -7.7      2.381      7.553
REMARK  Name = 
REMARK  7 active torsions:
REMARK  status: ('A' for Active; 'I' for Inactive)
REMARK    1  A    between atoms: C_1  and  N_2
REMARK    2  A    between atoms: N_2  and  C_3
REMARK    3  A    between atoms: N_2  and  C_4
REMARK    4  A    between atoms: C_4  and  C_5
REMARK    5  A    between atoms: C_5  and  N_6
REMARK    6  A    between atoms: C_15  and  C_16
REMARK    7  A    between atoms: C_20  and  N_21
REMARK                            x       y       z     vdW  Elec       q    Type
REMARK                         _______ _______ _______ _____ _____    ______ ____
ROOT
ATOM      1  N   UNL     1       2.404   7.018  19.266  0.00  0.00    +0.000 N 
ATOM      2  C   UNL     1       2.116   5.874  20.009  0.00  0.00    +0.000 C 
ATOM      3  O   UNL     1       1.382   5.863  20.995  0.00  0.00    +0.000 OA
ATOM      4  C   UNL     1       2.696   4.598  19.538  0.00  0.00    +0.000 A 
ATOM      5  C   UNL     1       2.458   3.421  20.260  0.00  0.00    +0.000 A 
ATOM      6  C   UNL     1       2.954   2.207  19.795  0.00  0.00    +0.000 A 
ATOM      7  C   UNL     1       3.686   2.168  18.608  0.00  0.00    +0.000 A 
ATOM      8  C   UNL     1       3.946   3.341  17.882  0.00  0.00    +0.000 A 
ATOM      9  C   UNL     1       4.688   3.314  16.686  0.00  0.00    +0.000 A 
ATOM     10  C   UNL     1       4.986   4.482  15.959  0.00  0.00    +0.000 A 
ATOM     11  C   UNL     1       4.480   5.691  16.464  0.00  0.00    +0.000 A 
ATOM     12  C   UNL     1       3.707   5.734  17.634  0.00  0.00    +0.000 A 
ATOM     13  C   UNL     1       3.446   4.573  18.358  0.00  0.00    +0.000 A 
ATOM     14  C   UNL     1       3.146   7.028  18.085  0.00  0.00    +0.000 C 
ATOM     15  O   UNL     1       3.319   8.022  17.383  0.00  0.00    +0.000 OA
ENDROOT
BRANCH  10  16
ATOM     16  C   UNL     1       5.806   4.449  14.722  0.00  0.00    +0.000 A 
ATOM     17  C   UNL     1       5.457   3.632  13.630  0.00  0.00    +0.000 A 
ATOM     18  C   UNL     1       6.222   3.614  12.462  0.00  0.00    +0.000 A 
ATOM     19  C   UNL     1       7.359   4.410  12.361  0.00  0.00    +0.000 A 
ATOM     20  C   UNL     1       7.716   5.265  13.401  0.00  0.00    +0.000 A 
ATOM     21  C   UNL     1       6.962   5.242  14.583  0.00  0.00    +0.000 A 
BRANCH  20  22
ATOM     22  N   UNL     1       8.932   5.961  13.357  0.00  0.00    +0.000 N 
ATOM     23  H   UNL     1       9.213   6.230  12.420  0.00  0.00    +0.000 HD
ATOM     24  H   UNL     1       8.986   6.734  14.012  0.00  0.00    +0.000 HD
ENDBRANCH  20  22
ENDBRANCH  10  16
BRANCH   1  25
ATOM     25  C   UNL     1       1.786   8.271  19.699  0.00  0.00    +0.000 C 
BRANCH  25  26
ATOM     26  C   UNL     1       1.452   8.326  21.207  0.00  0.00    +0.000 C 
BRANCH  26  28
ATOM     27  C   UNL     1       0.137   9.489  22.892  0.00  0.00    +0.000 C 
ATOM     28  N   UNL     1       0.140   8.916  21.545  0.00  0.00    +0.000 NA
ATOM     29  C   UNL     1      -0.198   9.950  20.564  0.00  0.00    +0.000 C 
ENDBRANCH  26  28
ENDBRANCH  25  26
ENDBRANCH   1  25
TORSDOF 5
ENDMDL
MODEL 9
REMARK VINA RESULT:      -7.7      2.045      2.721
REMARK  Name = 
REMARK  7 active torsions:
REMARK  status: ('A' for Active; 'I' for Inactive)
REMARK    1  A    between atoms: C_1  and  N_2
REMARK    2  A    between atoms: N_2  and  C_3
REMARK    3  A    between atoms: N_2  and  C_4
REMARK    4  A    between atoms: C_4  and  C_5
REMARK    5  A    between atoms: C_5  and  N_6
REMARK    6  A    between atoms: C_15  and  C_16
REMARK    7  A    between atoms: C_20  and  N_21
REMARK                            x       y       z     vdW  Elec       q    Type
REMARK                         _______ _______ _______ _____ _____    ______ ____
ROOT
ATOM      1  N   UNL     1       4.708   4.412  16.841  0.00  0.00    +0.000 N 
ATOM      2  C   UNL     1       4.164   3.417  17.652  0.00  0.00    +0.000 C 
ATOM      3  O   UNL     1       4.517   2.240  17.626  0.00  0.00    +0.000 OA
ATOM      4  C   UNL     1       3.135   3.832  18.631  0.00  0.00    +0.000 A 
ATOM      5  C   UNL     1       2.536   2.869  19.454  0.00  0.00    +0.000 A 
ATOM      6  C   UNL     1       1.608   3.257  20.415  0.00  0.00    +0.000 A 
ATOM      7  C   UNL     1       1.278   4.605  20.555  0.00  0.00    +0.000 A 
ATOM      8  C   UNL     1       1.857   5.578  19.726  0.00  0.00    +0.000 A 
ATOM      9  C   UNL     1       1.528   6.941  19.854  0.00  0.00    +0.000 A 
ATOM     10  C   UNL     1       2.075   7.930  19.013  0.00  0.00    +0.000 A 
ATOM     11  C   UNL     1       2.999   7.501  18.047  0.00  0.00    +0.000 A 
ATOM     12  C   UNL     1       3.368   6.154  17.928  0.00  0.00    +0.000 A 
ATOM     13  C   UNL     1       2.796   5.183  18.748  0.00  0.00    +0.000 A 
ATOM     14  C   UNL     1       4.396   5.767  16.933  0.00  0.00    +0.000 C 
ATOM     15  O   UNL     1       4.947   6.652  16.282  0.00  0.00    +0.000 OA
ENDROOT
BRANCH  10  16
ATOM     16  C   UNL     1       1.688   9.358  19.128  0.00  0.00    +0.000 A 
ATOM     17  C   UNL     1       0.810   9.804  20.133  0.00  0.00    +0.000 A 
ATOM     18  C   UNL     1       0.459  11.151  20.248  0.00  0.00    +0.000 A 
ATOM     19  C   UNL     1       0.979  12.085  19.355  0.00  0.00    +0.000 A 
ATOM     20  C   UNL     1       1.885  11.693  18.373  0.00  0.00    +0.000 A 
ATOM     21  C   UNL     1       2.194  10.332  18.244  0.00  0.00    +0.000 A 
BRANCH  20  22
ATOM     22  N   UNL     1       2.299  12.604  17.391  0.00  0.00    +0.000 N 
ATOM     23  H   UNL     1       1.564  13.231  17.082  0.00  0.00    +0.000 HD
ATOM     24  H   UNL     1       3.154  13.098  17.624  0.00  0.00    +0.000 HD
ENDBRANCH  20  22
ENDBRANCH  10  16
BRANCH   1  25
ATOM     25  C   UNL     1       5.765   4.013  15.912  0.00  0.00    +0.000 C 
BRANCH  25  26
ATOM     26  C   UNL     1       5.460   4.330  14.430  0.00  0.00    +0.000 C 
BRANCH  26  28
ATOM     27  C   UNL     1       5.806   3.292  12.256  0.00  0.00    +0.000 C 
ATOM     28  N   UNL     1       6.451   3.827  13.456  0.00  0.00    +0.000 NA
ATOM     29  C   UNL     1       7.366   4.911  13.087  0.00  0.00    +0.000 C 
ENDBRANCH  26  28
ENDBRANCH  25  26
ENDBRANCH   1  25
TORSDOF 5
ENDMDL
