MODEL 1
REMARK VINA RESULT:      -6.9      0.000      0.000
REMARK  Name = 
REMARK  11 active torsions:
REMARK  status: ('A' for Active; 'I' for Inactive)
REMARK    1  A    between atoms: C_1  and  C_2
REMARK    2  A    between atoms: C_2  and  O_3
REMARK    3  A    between atoms: O_3  and  C_4
REMARK    4  A    between atoms: C_4  and  C_6
REMARK    5  A    between atoms: C_6  and  C_7
REMARK    6  A    between atoms: C_6  and  C_9
REMARK    7  A    between atoms: C_7  and  C_8
REMARK    8  A    between atoms: C_9  and  C_10
REMARK    9  A    between atoms: N_11  and  N_12
REMARK   10  A    between atoms: C_13  and  C_15
REMARK   11  A    between atoms: C_19  and  C_20
REMARK                            x       y       z     vdW  Elec       q    Type
REMARK                         _______ _______ _______ _____ _____    ______ ____
ROOT
ATOM      1  C   UNL     1       4.232   4.458  18.644  0.00  0.00    +0.000 C 
ATOM      2  C   UNL     1       4.294   4.456  20.159  0.00  0.00    +0.000 C 
ATOM      3  N   UNL     1       5.312   4.005  18.079  0.00  0.00    +0.000 NA
ENDROOT
BRANCH   3   4
ATOM      4  N   UNL     1       5.469   3.989  16.731  0.00  0.00    +0.000 N 
ATOM      5  C   UNL     1       6.705   4.360  16.209  0.00  0.00    +0.000 C 
ATOM      6  O   UNL     1       7.672   4.727  16.863  0.00  0.00    +0.000 OA
ATOM      7  H   UNL     1       4.682   3.844  16.119  0.00  0.00    +0.000 HD
BRANCH   5   8
ATOM      8  C   UNL     1       6.785   4.366  14.723  0.00  0.00    +0.000 A 
ATOM      9  C   UNL     1       7.774   5.148  14.118  0.00  0.00    +0.000 A 
ATOM     10  C   UNL     1       7.870   5.198  12.728  0.00  0.00    +0.000 A 
ATOM     11  C   UNL     1       6.986   4.461  11.940  0.00  0.00    +0.000 A 
ATOM     12  C   UNL     1       6.006   3.655  12.535  0.00  0.00    +0.000 A 
ATOM     13  C   UNL     1       5.070   2.832  11.698  0.00  0.00    +0.000 C 
ATOM     14  C   UNL     1       5.915   3.605  13.932  0.00  0.00    +0.000 A 
ENDBRANCH   5   8
ENDBRANCH   3   4
BRANCH   1  15
ATOM     15  C   UNL     1       3.046   5.073  17.910  0.00  0.00    +0.000 C 
BRANCH  15  16
ATOM     16  C   UNL     1       1.870   4.155  17.636  0.00  0.00    +0.000 C 
ATOM     17  O   UNL     1       0.865   4.445  17.006  0.00  0.00    +0.000 OA
BRANCH  16  18
ATOM     18  O   UNL     1       2.036   2.977  18.310  0.00  0.00    +0.000 OA
BRANCH  18  20
ATOM     19  C   UNL     1       1.133   2.990  20.529  0.00  0.00    +0.000 C 
ATOM     20  C   UNL     1       0.902   2.565  19.089  0.00  0.00    +0.000 C 
ENDBRANCH  18  20
ENDBRANCH  16  18
ENDBRANCH  15  16
BRANCH  15  21
ATOM     21  C   UNL     1       2.621   6.399  18.558  0.00  0.00    +0.000 C 
ATOM     22  C   UNL     1       2.845   7.623  17.680  0.00  0.00    +0.000 C 
ENDBRANCH  15  21
ENDBRANCH   1  15
TORSDOF 7
ENDMDL
MODEL 2
REMARK VINA RESULT:      -6.9      3.059      7.144
REMARK  Name = 
REMARK  11 active torsions:
REMARK  status: ('A' for Active; 'I' for Inactive)
REMARK    1  A    between atoms: C_1  and  C_2
REMARK    2  A    between atoms: C_2  and  O_3
REMARK    3  A    between atoms: O_3  and  C_4
REMARK    4  A    between atoms: C_4  and  C_6
REMARK    5  A    between atoms: C_6  and  C_7
REMARK    6  A    between atoms: C_6  and  C_9
REMARK    7  A    between atoms: C_7  and  C_8
REMARK    8  A    between atoms: C_9  and  C_10
REMARK    9  A    between atoms: N_11  and  N_12
REMARK   10  A    between atoms: C_13  and  C_15
REMARK   11  A    between atoms: C_19  and  C_20
REMARK                            x       y       z     vdW  Elec       q    Type
REMARK                         _______ _______ _______ _____ _____    ______ ____
ROOT
ATOM      1  C   UNL     1       4.046   5.336  17.276  0.00  0.00    +0.000 C 
ATOM      2  C   UNL     1       5.076   5.031  16.206  0.00  0.00    +0.000 C 
ATOM      3  N   UNL     1       3.916   6.605  17.527  0.00  0.00    +0.000 NA
ENDROOT
BRANCH   3   4
ATOM      4  N   UNL     1       3.089   7.069  18.498  0.00  0.00    +0.000 N 
ATOM      5  C   UNL     1       2.344   8.215  18.235  0.00  0.00    +0.000 C 
ATOM      6  O   UNL     1       2.385   8.867  17.200  0.00  0.00    +0.000 OA
ATOM      7  H   UNL     1       3.110   6.679  19.426  0.00  0.00    +0.000 HD
BRANCH   5   8
ATOM      8  C   UNL     1       1.500   8.691  19.363  0.00  0.00    +0.000 A 
ATOM      9  C   UNL     1       1.594   8.022  20.587  0.00  0.00    +0.000 A 
ATOM     10  C   UNL     1       0.805   8.422  21.664  0.00  0.00    +0.000 A 
ATOM     11  C   UNL     1      -0.071   9.499  21.524  0.00  0.00    +0.000 A 
ATOM     12  C   UNL     1      -0.157  10.193  20.311  0.00  0.00    +0.000 A 
ATOM     13  C   UNL     1      -1.072  11.373  20.159  0.00  0.00    +0.000 C 
ATOM     14  C   UNL     1       0.640   9.789  19.232  0.00  0.00    +0.000 A 
ENDBRANCH   5   8
ENDBRANCH   3   4
BRANCH   1  15
ATOM     15  C   UNL     1       3.360   4.212  18.045  0.00  0.00    +0.000 C 
BRANCH  15  16
ATOM     16  C   UNL     1       1.851   4.299  18.166  0.00  0.00    +0.000 C 
ATOM     17  O   UNL     1       1.049   4.193  17.250  0.00  0.00    +0.000 OA
BRANCH  16  18
ATOM     18  O   UNL     1       1.508   4.646  19.444  0.00  0.00    +0.000 OA
BRANCH  18  20
ATOM     19  C   UNL     1       1.779   3.310  21.413  0.00  0.00    +0.000 C 
ATOM     20  C   UNL     1       0.897   3.596  20.210  0.00  0.00    +0.000 C 
ENDBRANCH  18  20
ENDBRANCH  16  18
ENDBRANCH  15  16
BRANCH  15  21
ATOM     21  C   UNL     1       3.835   2.836  17.555  0.00  0.00    +0.000 C 
ATOM     22  C   UNL     1       3.472   1.685  18.481  0.00  0.00    +0.000 C 
ENDBRANCH  15  21
ENDBRANCH   1  15
TORSDOF 7
ENDMDL
MODEL 3
REMARK VINA RESULT:      -6.5      2.559      6.904
REMARK  Name = 
REMARK  11 active torsions:
REMARK  status: ('A' for Active; 'I' for Inactive)
REMARK    1  A    between atoms: C_1  and  C_2
REMARK    2  A    between atoms: C_2  and  O_3
REMARK    3  A    between atoms: O_3  and  C_4
REMARK    4  A    between atoms: C_4  and  C_6
REMARK    5  A    between atoms: C_6  and  C_7
REMARK    6  A    between atoms: C_6  and  C_9
REMARK    7  A    between atoms: C_7  and  C_8
REMARK    8  A    between atoms: C_9  and  C_10
REMARK    9  A    between atoms: N_11  and  N_12
REMARK   10  A    between atoms: C_13  and  C_15
REMARK   11  A    between atoms: C_19  and  C_20
REMARK                            x       y       z     vdW  Elec       q    Type
REMARK                         _______ _______ _______ _____ _____    ______ ____
ROOT
ATOM      1  C   UNL     1       6.468   5.016  15.544  0.00  0.00    +0.000 C 
ATOM      2  C   UNL     1       7.064   4.707  14.184  0.00  0.00    +0.000 C 
ATOM      3  N   UNL     1       5.198   4.750  15.628  0.00  0.00    +0.000 NA
ENDROOT
BRANCH   3   4
ATOM      4  N   UNL     1       4.475   5.019  16.745  0.00  0.00    +0.000 N 
ATOM      5  C   UNL     1       4.003   3.947  17.496  0.00  0.00    +0.000 C 
ATOM      6  O   UNL     1       4.163   2.764  17.225  0.00  0.00    +0.000 OA
ATOM      7  H   UNL     1       4.174   5.957  16.953  0.00  0.00    +0.000 HD
BRANCH   5   8
ATOM      8  C   UNL     1       3.177   4.319  18.676  0.00  0.00    +0.000 A 
ATOM      9  C   UNL     1       2.883   5.671  18.877  0.00  0.00    +0.000 A 
ATOM     10  C   UNL     1       2.130   6.065  19.982  0.00  0.00    +0.000 A 
ATOM     11  C   UNL     1       1.661   5.108  20.883  0.00  0.00    +0.000 A 
ATOM     12  C   UNL     1       1.928   3.749  20.680  0.00  0.00    +0.000 A 
ATOM     13  C   UNL     1       1.400   2.708  21.624  0.00  0.00    +0.000 C 
ATOM     14  C   UNL     1       2.682   3.357  19.566  0.00  0.00    +0.000 A 
ENDBRANCH   5   8
ENDBRANCH   3   4
BRANCH   1  15
ATOM     15  C   UNL     1       7.297   5.700  16.625  0.00  0.00    +0.000 C 
BRANCH  15  16
ATOM     16  C   UNL     1       6.882   7.110  17.004  0.00  0.00    +0.000 C 
ATOM     17  O   UNL     1       5.760   7.580  16.899  0.00  0.00    +0.000 OA
BRANCH  16  18
ATOM     18  O   UNL     1       7.983   7.834  17.365  0.00  0.00    +0.000 OA
BRANCH  18  20
ATOM     19  C   UNL     1       8.915   9.708  18.532  0.00  0.00    +0.000 C 
ATOM     20  C   UNL     1       7.709   9.185  17.771  0.00  0.00    +0.000 C 
ENDBRANCH  18  20
ENDBRANCH  16  18
ENDBRANCH  15  16
BRANCH  15  21
ATOM     21  C   UNL     1       7.472   4.788  17.848  0.00  0.00    +0.000 C 
ATOM     22  C   UNL     1       7.012   5.407  19.159  0.00  0.00    +0.000 C 
ENDBRANCH  15  21
ENDBRANCH   1  15
TORSDOF 7
ENDMDL
MODEL 4
REMARK VINA RESULT:      -6.5      3.056      7.131
REMARK  Name = 
REMARK  11 active torsions:
REMARK  status: ('A' for Active; 'I' for Inactive)
REMARK    1  A    between atoms: C_1  and  C_2
REMARK    2  A    between atoms: C_2  and  O_3
REMARK    3  A    between atoms: O_3  and  C_4
REMARK    4  A    between atoms: C_4  and  C_6
REMARK    5  A    between atoms: C_6  and  C_7
REMARK    6  A    between atoms: C_6  and  C_9
REMARK    7  A    between atoms: C_7  and  C_8
REMARK    8  A    between atoms: C_9  and  C_10
REMARK    9  A    between atoms: N_11  and  N_12
REMARK   10  A    between atoms: C_13  and  C_15
REMARK   11  A    between atoms: C_19  and  C_20
REMARK                            x       y       z     vdW  Elec       q    Type
REMARK                         _______ _______ _______ _____ _____    ______ ____
ROOT
ATOM      1  C   UNL     1       5.472   6.239  16.906  0.00  0.00    +0.000 C 
ATOM      2  C   UNL     1       6.035   5.420  15.761  0.00  0.00    +0.000 C 
ATOM      3  N   UNL     1       4.304   6.752  16.652  0.00  0.00    +0.000 NA
ENDROOT
BRANCH   3   4
ATOM      4  N   UNL     1       3.668   7.568  17.530  0.00  0.00    +0.000 N 
ATOM      5  C   UNL     1       2.570   7.062  18.221  0.00  0.00    +0.000 C 
ATOM      6  O   UNL     1       2.105   5.938  18.090  0.00  0.00    +0.000 OA
ATOM      7  H   UNL     1       3.894   8.548  17.584  0.00  0.00    +0.000 HD
BRANCH   5   8
ATOM      8  C   UNL     1       1.894   8.029  19.126  0.00  0.00    +0.000 A 
ATOM      9  C   UNL     1       1.759   7.690  20.475  0.00  0.00    +0.000 A 
ATOM     10  C   UNL     1       1.113   8.559  21.353  0.00  0.00    +0.000 A 
ATOM     11  C   UNL     1       0.610   9.774  20.887  0.00  0.00    +0.000 A 
ATOM     12  C   UNL     1       0.760  10.137  19.543  0.00  0.00    +0.000 A 
ATOM     13  C   UNL     1       0.252  11.456  19.037  0.00  0.00    +0.000 C 
ATOM     14  C   UNL     1       1.413   9.262  18.665  0.00  0.00    +0.000 A 
ENDBRANCH   5   8
ENDBRANCH   3   4
BRANCH   1  15
ATOM     15  C   UNL     1       6.300   6.512  18.155  0.00  0.00    +0.000 C 
BRANCH  15  16
ATOM     16  C   UNL     1       6.215   5.479  19.263  0.00  0.00    +0.000 C 
ATOM     17  O   UNL     1       7.145   5.084  19.949  0.00  0.00    +0.000 OA
BRANCH  16  18
ATOM     18  O   UNL     1       4.957   4.946  19.303  0.00  0.00    +0.000 OA
BRANCH  18  20
ATOM     19  C   UNL     1       3.851   3.083  18.280  0.00  0.00    +0.000 C 
ATOM     20  C   UNL     1       4.909   3.511  19.282  0.00  0.00    +0.000 C 
ENDBRANCH  18  20
ENDBRANCH  16  18
ENDBRANCH  15  16
BRANCH  15  21
ATOM     21  C   UNL     1       7.749   6.869  17.791  0.00  0.00    +0.000 C 
ATOM     22  C   UNL     1       8.064   8.356  17.870  0.00  0.00    +0.000 C 
ENDBRANCH  15  21
ENDBRANCH   1  15
TORSDOF 7
ENDMDL
MODEL 5
REMARK VINA RESULT:      -6.4      2.343      4.319
REMARK  Name = 
REMARK  11 active torsions:
REMARK  status: ('A' for Active; 'I' for Inactive)
REMARK    1  A    between atoms: C_1  and  C_2
REMARK    2  A    between atoms: C_2  and  O_3
REMARK    3  A    between atoms: O_3  and  C_4
REMARK    4  A    between atoms: C_4  and  C_6
REMARK    5  A    between atoms: C_6  and  C_7
REMARK    6  A    between atoms: C_6  and  C_9
REMARK    7  A    between atoms: C_7  and  C_8
REMARK    8  A    between atoms: C_9  and  C_10
REMARK    9  A    between atoms: N_11  and  N_12
REMARK   10  A    between atoms: C_13  and  C_15
REMARK   11  A    between atoms: C_19  and  C_20
REMARK                            x       y       z     vdW  Elec       q    Type
REMARK                         _______ _______ _______ _____ _____    ______ ____
ROOT
ATOM      1  C   UNL     1       1.362   3.712  19.042  0.00  0.00    +0.000 C 
ATOM      2  C   UNL     1       0.120   2.924  19.412  0.00  0.00    +0.000 C 
ATOM      3  N   UNL     1       1.652   3.660  17.776  0.00  0.00    +0.000 NA
ENDROOT
BRANCH   3   4
ATOM      4  N   UNL     1       2.763   4.251  17.265  0.00  0.00    +0.000 N 
ATOM      5  C   UNL     1       3.947   3.520  17.249  0.00  0.00    +0.000 C 
ATOM      6  O   UNL     1       4.088   2.384  17.681  0.00  0.00    +0.000 OA
ATOM      7  H   UNL     1       2.766   5.230  17.028  0.00  0.00    +0.000 HD
BRANCH   5   8
ATOM      8  C   UNL     1       5.131   4.251  16.721  0.00  0.00    +0.000 A 
ATOM      9  C   UNL     1       5.608   3.909  15.452  0.00  0.00    +0.000 A 
ATOM     10  C   UNL     1       6.727   4.555  14.930  0.00  0.00    +0.000 A 
ATOM     11  C   UNL     1       7.367   5.550  15.669  0.00  0.00    +0.000 A 
ATOM     12  C   UNL     1       6.885   5.919  16.932  0.00  0.00    +0.000 A 
ATOM     13  C   UNL     1       7.545   7.011  17.723  0.00  0.00    +0.000 C 
ATOM     14  C   UNL     1       5.757   5.269  17.451  0.00  0.00    +0.000 A 
ENDBRANCH   5   8
ENDBRANCH   3   4
BRANCH   1  15
ATOM     15  C   UNL     1       2.223   4.367  20.116  0.00  0.00    +0.000 C 
BRANCH  15  16
ATOM     16  C   UNL     1       2.120   5.875  20.239  0.00  0.00    +0.000 C 
ATOM     17  O   UNL     1       1.361   6.486  20.976  0.00  0.00    +0.000 OA
BRANCH  16  18
ATOM     18  O   UNL     1       2.918   6.471  19.302  0.00  0.00    +0.000 OA
BRANCH  18  20
ATOM     19  C   UNL     1       3.158   7.982  17.459  0.00  0.00    +0.000 C 
ATOM     20  C   UNL     1       2.374   7.667  18.721  0.00  0.00    +0.000 C 
ENDBRANCH  18  20
ENDBRANCH  16  18
ENDBRANCH  15  16
BRANCH  15  21
ATOM     21  C   UNL     1       2.062   3.652  21.466  0.00  0.00    +0.000 C 
ATOM     22  C   UNL     1       2.875   2.373  21.596  0.00  0.00    +0.000 C 
ENDBRANCH  15  21
ENDBRANCH   1  15
TORSDOF 7
ENDMDL
MODEL 6
REMARK VINA RESULT:      -6.4      3.374      7.425
REMARK  Name = 
REMARK  11 active torsions:
REMARK  status: ('A' for Active; 'I' for Inactive)
REMARK    1  A    between atoms: C_1  and  C_2
REMARK    2  A    between atoms: C_2  and  O_3
REMARK    3  A    between atoms: O_3  and  C_4
REMARK    4  A    between atoms: C_4  and  C_6
REMARK    5  A    between atoms: C_6  and  C_7
REMARK    6  A    between atoms: C_6  and  C_9
REMARK    7  A    between atoms: C_7  and  C_8
REMARK    8  A    between atoms: C_9  and  C_10
REMARK    9  A    between atoms: N_11  and  N_12
REMARK   10  A    between atoms: C_13  and  C_15
REMARK   11  A    between atoms: C_19  and  C_20
REMARK                            x       y       z     vdW  Elec       q    Type
REMARK                         _______ _______ _______ _____ _____    ______ ____
ROOT
ATOM      1  C   UNL     1       4.631   6.225  17.283  0.00  0.00    +0.000 C 
ATOM      2  C   UNL     1       5.408   6.074  15.990  0.00  0.00    +0.000 C 
ATOM      3  N   UNL     1       3.731   7.162  17.243  0.00  0.00    +0.000 NA
ENDROOT
BRANCH   3   4
ATOM      4  N   UNL     1       2.978   7.489  18.324  0.00  0.00    +0.000 N 
ATOM      5  C   UNL     1       2.155   8.608  18.238  0.00  0.00    +0.000 C 
ATOM      6  O   UNL     1       2.063   9.350  17.270  0.00  0.00    +0.000 OA
ATOM      7  H   UNL     1       3.109   7.020  19.206  0.00  0.00    +0.000 HD
BRANCH   5   8
ATOM      8  C   UNL     1       1.401   8.932  19.479  0.00  0.00    +0.000 A 
ATOM      9  C   UNL     1       1.554   8.091  20.584  0.00  0.00    +0.000 A 
ATOM     10  C   UNL     1       0.849   8.346  21.760  0.00  0.00    +0.000 A 
ATOM     11  C   UNL     1      -0.002   9.449  21.836  0.00  0.00    +0.000 A 
ATOM     12  C   UNL     1      -0.145  10.314  20.744  0.00  0.00    +0.000 A 
ATOM     13  C   UNL     1      -1.033  11.522  20.826  0.00  0.00    +0.000 C 
ATOM     14  C   UNL     1       0.568  10.055  19.566  0.00  0.00    +0.000 A 
ENDBRANCH   5   8
ENDBRANCH   3   4
BRANCH   1  15
ATOM     15  C   UNL     1       5.008   5.421  18.522  0.00  0.00    +0.000 C 
BRANCH  15  16
ATOM     16  C   UNL     1       4.047   4.320  18.932  0.00  0.00    +0.000 C 
ATOM     17  O   UNL     1       4.083   3.159  18.556  0.00  0.00    +0.000 OA
BRANCH  16  18
ATOM     18  O   UNL     1       3.041   4.845  19.694  0.00  0.00    +0.000 OA
BRANCH  18  20
ATOM     19  C   UNL     1       1.110   3.726  20.566  0.00  0.00    +0.000 C 
ATOM     20  C   UNL     1       1.723   4.392  19.347  0.00  0.00    +0.000 C 
ENDBRANCH  18  20
ENDBRANCH  16  18
ENDBRANCH  15  16
BRANCH  15  21
ATOM     21  C   UNL     1       6.463   4.935  18.445  0.00  0.00    +0.000 C 
ATOM     22  C   UNL     1       7.466   5.863  19.114  0.00  0.00    +0.000 C 
ENDBRANCH  15  21
ENDBRANCH   1  15
TORSDOF 7
ENDMDL
MODEL 7
REMARK VINA RESULT:      -6.4      3.232      7.300
REMARK  Name = 
REMARK  11 active torsions:
REMARK  status: ('A' for Active; 'I' for Inactive)
REMARK    1  A    between atoms: C_1  and  C_2
REMARK    2  A    between atoms: C_2  and  O_3
REMARK    3  A    between atoms: O_3  and  C_4
REMARK    4  A    between atoms: C_4  and  C_6
REMARK    5  A    between atoms: C_6  and  C_7
REMARK    6  A    between atoms: C_6  and  C_9
REMARK    7  A    between atoms: C_7  and  C_8
REMARK    8  A    between atoms: C_9  and  C_10
REMARK    9  A    between atoms: N_11  and  N_12
REMARK   10  A    between atoms: C_13  and  C_15
REMARK   11  A    between atoms: C_19  and  C_20
REMARK                            x       y       z     vdW  Elec       q    Type
REMARK                         _______ _______ _______ _____ _____    ______ ____
ROOT
ATOM      1  C   UNL     1       4.086   5.763  17.343  0.00  0.00    +0.000 C 
ATOM      2  C   UNL     1       4.991   5.522  16.150  0.00  0.00    +0.000 C 
ATOM      3  N   UNL     1       3.639   6.981  17.420  0.00  0.00    +0.000 NA
ENDROOT
BRANCH   3   4
ATOM      4  N   UNL     1       2.867   7.404  18.452  0.00  0.00    +0.000 N 
ATOM      5  C   UNL     1       2.095   8.549  18.271  0.00  0.00    +0.000 C 
ATOM      6  O   UNL     1       2.066   9.233  17.257  0.00  0.00    +0.000 OA
ATOM      7  H   UNL     1       2.948   6.986  19.365  0.00  0.00    +0.000 HD
BRANCH   5   8
ATOM      8  C   UNL     1       1.316   8.979  19.462  0.00  0.00    +0.000 A 
ATOM      9  C   UNL     1       1.468   8.254  20.648  0.00  0.00    +0.000 A 
ATOM     10  C   UNL     1       0.740   8.611  21.783  0.00  0.00    +0.000 A 
ATOM     11  C   UNL     1      -0.133   9.699  21.737  0.00  0.00    +0.000 A 
ATOM     12  C   UNL     1      -0.277  10.447  20.562  0.00  0.00    +0.000 A 
ATOM     13  C   UNL     1      -1.188  11.638  20.511  0.00  0.00    +0.000 C 
ATOM     14  C   UNL     1       0.460  10.087  19.426  0.00  0.00    +0.000 A 
ENDBRANCH   5   8
ENDBRANCH   3   4
BRANCH   1  15
ATOM     15  C   UNL     1       3.869   4.679  18.393  0.00  0.00    +0.000 C 
BRANCH  15  16
ATOM     16  C   UNL     1       2.923   3.554  18.018  0.00  0.00    +0.000 C 
ATOM     17  O   UNL     1       2.173   3.538  17.055  0.00  0.00    +0.000 OA
BRANCH  16  18
ATOM     18  O   UNL     1       2.933   2.596  18.994  0.00  0.00    +0.000 OA
BRANCH  18  20
ATOM     19  C   UNL     1       1.145   3.222  20.461  0.00  0.00    +0.000 C 
ATOM     20  C   UNL     1       1.634   2.193  19.456  0.00  0.00    +0.000 C 
ENDBRANCH  18  20
ENDBRANCH  16  18
ENDBRANCH  15  16
BRANCH  15  21
ATOM     21  C   UNL     1       5.209   4.166  18.943  0.00  0.00    +0.000 C 
ATOM     22  C   UNL     1       6.180   5.265  19.346  0.00  0.00    +0.000 C 
ENDBRANCH  15  21
ENDBRANCH   1  15
TORSDOF 7
ENDMDL
MODEL 8
REMARK VINA RESULT:      -6.3      1.377      1.919
REMARK  Name = 
REMARK  11 active torsions:
REMARK  status: ('A' for Active; 'I' for Inactive)
REMARK    1  A    between atoms: C_1  and  C_2
REMARK    2  A    between atoms: C_2  and  O_3
REMARK    3  A    between atoms: O_3  and  C_4
REMARK    4  A    between atoms: C_4  and  C_6
REMARK    5  A    between atoms: C_6  and  C_7
REMARK    6  A    between atoms: C_6  and  C_9
REMARK    7  A    between atoms: C_7  and  C_8
REMARK    8  A    between atoms: C_9  and  C_10
REMARK    9  A    between atoms: N_11  and  N_12
REMARK   10  A    between atoms: C_13  and  C_15
REMARK   11  A    between atoms: C_19  and  C_20
REMARK                            x       y       z     vdW  Elec       q    Type
REMARK                         _______ _______ _______ _____ _____    ______ ____
ROOT
ATOM      1  C   UNL     1       5.476   4.707  17.725  0.00  0.00    +0.000 C 
ATOM      2  C   UNL     1       5.966   5.368  18.998  0.00  0.00    +0.000 C 
ATOM      3  N   UNL     1       6.435   4.272  16.962  0.00  0.00    +0.000 NA
ENDROOT
BRANCH   3   4
ATOM      4  N   UNL     1       6.196   3.708  15.751  0.00  0.00    +0.000 N 
ATOM      5  C   UNL     1       6.512   4.442  14.611  0.00  0.00    +0.000 C 
ATOM      6  O   UNL     1       6.972   5.575  14.600  0.00  0.00    +0.000 OA
ATOM      7  H   UNL     1       5.683   2.845  15.674  0.00  0.00    +0.000 HD
BRANCH   5   8
ATOM      8  C   UNL     1       6.174   3.780  13.322  0.00  0.00    +0.000 A 
ATOM      9  C   UNL     1       7.195   3.125  12.628  0.00  0.00    +0.000 A 
ATOM     10  C   UNL     1       6.926   2.510  11.406  0.00  0.00    +0.000 A 
ATOM     11  C   UNL     1       5.634   2.539  10.881  0.00  0.00    +0.000 A 
ATOM     12  C   UNL     1       4.596   3.171  11.578  0.00  0.00    +0.000 A 
ATOM     13  C   UNL     1       3.196   3.180  11.038  0.00  0.00    +0.000 C 
ATOM     14  C   UNL     1       4.871   3.785  12.807  0.00  0.00    +0.000 A 
ENDBRANCH   5   8
ENDBRANCH   3   4
BRANCH   1  15
ATOM     15  C   UNL     1       3.996   4.707  17.362  0.00  0.00    +0.000 C 
BRANCH  15  16
ATOM     16  C   UNL     1       3.249   3.403  17.569  0.00  0.00    +0.000 C 
ATOM     17  O   UNL     1       3.748   2.290  17.618  0.00  0.00    +0.000 OA
BRANCH  16  18
ATOM     18  O   UNL     1       1.901   3.635  17.566  0.00  0.00    +0.000 OA
BRANCH  18  20
ATOM     19  C   UNL     1       1.022   3.626  19.794  0.00  0.00    +0.000 C 
ATOM     20  C   UNL     1       1.151   2.843  18.499  0.00  0.00    +0.000 C 
ENDBRANCH  18  20
ENDBRANCH  16  18
ENDBRANCH  15  16
BRANCH  15  21
ATOM     21  C   UNL     1       3.272   5.908  17.990  0.00  0.00    +0.000 C 
ATOM     22  C   UNL     1       3.608   7.245  17.347  0.00  0.00    +0.000 C 
ENDBRANCH  15  21
ENDBRANCH   1  15
TORSDOF 7
ENDMDL
MODEL 9
REMARK VINA RESULT:      -6.3      2.014      3.695
REMARK  Name = 
REMARK  11 active torsions:
REMARK  status: ('A' for Active; 'I' for Inactive)
REMARK    1  A    between atoms: C_1  and  C_2
REMARK    2  A    between atoms: C_2  and  O_3
REMARK    3  A    between atoms: O_3  and  C_4
REMARK    4  A    between atoms: C_4  and  C_6
REMARK    5  A    between atoms: C_6  and  C_7
REMARK    6  A    between atoms: C_6  and  C_9
REMARK    7  A    between atoms: C_7  and  C_8
REMARK    8  A    between atoms: C_9  and  C_10
REMARK    9  A    between atoms: N_11  and  N_12
REMARK   10  A    between atoms: C_13  and  C_15
REMARK   11  A    between atoms: C_19  and  C_20
REMARK                            x       y       z     vdW  Elec       q    Type
REMARK                         _______ _______ _______ _____ _____    ______ ____
ROOT
ATOM      1  C   UNL     1       2.468   3.205  20.581  0.00  0.00    +0.000 C 
ATOM      2  C   UNL     1       2.094   2.641  21.938  0.00  0.00    +0.000 C 
ATOM      3  N   UNL     1       3.658   2.861  20.184  0.00  0.00    +0.000 NA
ENDROOT
BRANCH   3   4
ATOM      4  N   UNL     1       4.193   3.319  19.024  0.00  0.00    +0.000 N 
ATOM      5  C   UNL     1       5.360   4.075  19.092  0.00  0.00    +0.000 C 
ATOM      6  O   UNL     1       5.944   4.389  20.120  0.00  0.00    +0.000 OA
ATOM      7  H   UNL     1       3.694   3.232  18.154  0.00  0.00    +0.000 HD
BRANCH   5   8
ATOM      8  C   UNL     1       5.857   4.584  17.786  0.00  0.00    +0.000 A 
ATOM      9  C   UNL     1       6.795   5.621  17.795  0.00  0.00    +0.000 A 
ATOM     10  C   UNL     1       7.271   6.142  16.592  0.00  0.00    +0.000 A 
ATOM     11  C   UNL     1       6.820   5.621  15.379  0.00  0.00    +0.000 A 
ATOM     12  C   UNL     1       5.899   4.566  15.357  0.00  0.00    +0.000 A 
ATOM     13  C   UNL     1       5.431   3.976  14.059  0.00  0.00    +0.000 C 
ATOM     14  C   UNL     1       5.425   4.044  16.568  0.00  0.00    +0.000 A 
ENDBRANCH   5   8
ENDBRANCH   3   4
BRANCH   1  15
ATOM     15  C   UNL     1       1.550   4.186  19.861  0.00  0.00    +0.000 C 
BRANCH  15  16
ATOM     16  C   UNL     1       2.012   5.630  19.809  0.00  0.00    +0.000 C 
ATOM     17  O   UNL     1       1.865   6.463  20.689  0.00  0.00    +0.000 OA
BRANCH  16  18
ATOM     18  O   UNL     1       2.512   5.911  18.567  0.00  0.00    +0.000 OA
BRANCH  18  20
ATOM     19  C   UNL     1       3.746   7.548  17.327  0.00  0.00    +0.000 C 
ATOM     20  C   UNL     1       2.553   7.308  18.237  0.00  0.00    +0.000 C 
ENDBRANCH  18  20
ENDBRANCH  16  18
ENDBRANCH  15  16
BRANCH  15  21
ATOM     21  C   UNL     1       1.137   3.648  18.483  0.00  0.00    +0.000 C 
ATOM     22  C   UNL     1       0.665   2.201  18.494  0.00  0.00    +0.000 C 
ENDBRANCH  15  21
ENDBRANCH   1  15
TORSDOF 7
ENDMDL
