MODEL 1
REMARK VINA RESULT:      -8.7      0.000      0.000
REMARK  Name = 
REMARK  6 active torsions:
REMARK  status: ('A' for Active; 'I' for Inactive)
REMARK    1  A    between atoms: C_1  and  C_2
REMARK    2  A    between atoms: C_4  and  N_5
REMARK    3  A    between atoms: N_5  and  S_6
REMARK    4  A    between atoms: S_6  and  C_9
REMARK    5  A    between atoms: C_17  and  C_19
REMARK    6  A    between atoms: C_26  and  C_27
REMARK                            x       y       z     vdW  Elec       q    Type
REMARK                         _______ _______ _______ _____ _____    ______ ____
ROOT
ATOM      1  C   UNL     1       5.256   4.769  17.963  0.00  0.00    +0.000 A 
ATOM      2  C   UNL     1       4.537   3.619  17.593  0.00  0.00    +0.000 A 
ATOM      3  C   UNL     1       3.465   3.163  18.419  0.00  0.00    +0.000 A 
ATOM      4  C   UNL     1       3.002   4.001  19.440  0.00  0.00    +0.000 A 
ATOM      5  C   UNL     1       3.746   5.162  19.630  0.00  0.00    +0.000 A 
ATOM      6  C   UNL     1       5.043   5.317  19.203  0.00  0.00    +0.000 A 
ATOM      7  C   UNL     1       2.943   6.404  19.369  0.00  0.00    +0.000 C 
ATOM      8  N   UNL     1       1.820   6.589  20.210  0.00  0.00    +0.000 N 
ATOM      9  C   UNL     1       1.499   7.950  20.291  0.00  0.00    +0.000 C 
ATOM     10  O   UNL     1       2.111   8.765  19.567  0.00  0.00    +0.000 OA
ATOM     11  C   UNL     1       1.225   5.363  20.813  0.00  0.00    +0.000 C 
ATOM     12  C   UNL     1       1.667   3.964  20.164  0.00  0.00    +0.000 C 
ENDROOT
BRANCH   9  13
ATOM     13  C   UNL     1       0.505   8.515  21.290  0.00  0.00    +0.000 C 
ATOM     14  F   UNL     1      -0.555   7.709  21.539  0.00  0.00    +0.000 F 
ATOM     15  F   UNL     1       1.097   8.774  22.490  0.00  0.00    +0.000 F 
ATOM     16  F   UNL     1       0.003   9.708  20.857  0.00  0.00    +0.000 F 
ENDBRANCH   9  13
BRANCH   1  17
ATOM     17  S   UNL     1       6.133   5.857  16.817  0.00  0.00    +0.000 S 
ATOM     18  O   UNL     1       6.971   6.719  17.623  0.00  0.00    +0.000 OA
ATOM     19  O   UNL     1       5.143   6.353  15.885  0.00  0.00    +0.000 OA
BRANCH  17  20
ATOM     20  N   UNL     1       7.166   4.731  16.016  0.00  0.00    +0.000 N 
ATOM     21  H   UNL     1       8.117   5.064  16.188  0.00  0.00    +0.000 HD
BRANCH  20  25
ATOM     22  C   UNL     1       5.523   2.590  11.837  0.00  0.00    +0.000 C 
ATOM     23  C   UNL     1       6.309   3.601  12.619  0.00  0.00    +0.000 A 
ATOM     24  C   UNL     1       6.274   3.649  14.001  0.00  0.00    +0.000 A 
ATOM     25  C   UNL     1       7.037   4.634  14.590  0.00  0.00    +0.000 A 
ATOM     26  N   UNL     1       7.792   5.510  13.914  0.00  0.00    +0.000 NA
ATOM     27  C   UNL     1       7.749   5.395  12.566  0.00  0.00    +0.000 A 
ATOM     28  C   UNL     1       8.543   6.346  11.725  0.00  0.00    +0.000 C 
ATOM     29  N   UNL     1       7.035   4.472  11.894  0.00  0.00    +0.000 NA
ENDBRANCH  20  25
ENDBRANCH  17  20
ENDBRANCH   1  17
TORSDOF 4
ENDMDL
MODEL 2
REMARK VINA RESULT:      -8.4      2.398      3.800
REMARK  Name = 
REMARK  6 active torsions:
REMARK  status: ('A' for Active; 'I' for Inactive)
REMARK    1  A    between atoms: C_1  and  C_2
REMARK    2  A    between atoms: C_4  and  N_5
REMARK    3  A    between atoms: N_5  and  S_6
REMARK    4  A    between atoms: S_6  and  C_9
REMARK    5  A    between atoms: C_17  and  C_19
REMARK    6  A    between atoms: C_26  and  C_27
REMARK                            x       y       z     vdW  Elec       q    Type
REMARK                         _______ _______ _______ _____ _____    ______ ____
ROOT
ATOM      1  C   UNL     1       3.168   4.031  19.477  0.00  0.00    +0.000 A 
ATOM      2  C   UNL     1       1.985   3.563  20.075  0.00  0.00    +0.000 A 
ATOM      3  C   UNL     1       1.202   4.449  20.874  0.00  0.00    +0.000 A 
ATOM      4  C   UNL     1       1.498   5.817  20.844  0.00  0.00    +0.000 A 
ATOM      5  C   UNL     1       2.640   6.155  20.125  0.00  0.00    +0.000 A 
ATOM      6  C   UNL     1       3.647   5.268  19.827  0.00  0.00    +0.000 A 
ATOM      7  C   UNL     1       2.334   7.035  18.946  0.00  0.00    +0.000 C 
ATOM      8  N   UNL     1       1.756   8.288  19.258  0.00  0.00    +0.000 N 
ATOM      9  C   UNL     1       2.029   9.210  18.239  0.00  0.00    +0.000 C 
ATOM     10  O   UNL     1       2.595   8.817  17.196  0.00  0.00    +0.000 OA
ATOM     11  C   UNL     1       1.004   8.380  20.541  0.00  0.00    +0.000 C 
ATOM     12  C   UNL     1       0.613   6.987  21.237  0.00  0.00    +0.000 C 
ENDROOT
BRANCH   9  13
ATOM     13  C   UNL     1       1.762  10.699  18.368  0.00  0.00    +0.000 C 
ATOM     14  F   UNL     1       1.937  11.191  19.617  0.00  0.00    +0.000 F 
ATOM     15  F   UNL     1       2.567  11.423  17.540  0.00  0.00    +0.000 F 
ATOM     16  F   UNL     1       0.482  10.999  17.999  0.00  0.00    +0.000 F 
ENDBRANCH   9  13
BRANCH   1  17
ATOM     17  S   UNL     1       3.910   3.352  17.974  0.00  0.00    +0.000 S 
ATOM     18  O   UNL     1       3.577   4.263  16.900  0.00  0.00    +0.000 OA
ATOM     19  O   UNL     1       3.578   1.943  17.955  0.00  0.00    +0.000 OA
BRANCH  17  20
ATOM     20  N   UNL     1       5.589   3.545  18.318  0.00  0.00    +0.000 N 
ATOM     21  H   UNL     1       5.632   3.882  19.282  0.00  0.00    +0.000 HD
BRANCH  20  25
ATOM     22  C   UNL     1       7.826   7.935  17.629  0.00  0.00    +0.000 C 
ATOM     23  C   UNL     1       7.314   6.595  17.189  0.00  0.00    +0.000 A 
ATOM     24  C   UNL     1       6.722   5.709  18.071  0.00  0.00    +0.000 A 
ATOM     25  C   UNL     1       6.304   4.510  17.534  0.00  0.00    +0.000 A 
ATOM     26  N   UNL     1       6.432   4.177  16.242  0.00  0.00    +0.000 NA
ATOM     27  C   UNL     1       7.037   5.102  15.460  0.00  0.00    +0.000 A 
ATOM     28  C   UNL     1       7.243   4.808  14.007  0.00  0.00    +0.000 C 
ATOM     29  N   UNL     1       7.482   6.299  15.887  0.00  0.00    +0.000 NA
ENDBRANCH  20  25
ENDBRANCH  17  20
ENDBRANCH   1  17
TORSDOF 4
ENDMDL
MODEL 3
REMARK VINA RESULT:      -8.3      2.417      3.598
REMARK  Name = 
REMARK  6 active torsions:
REMARK  status: ('A' for Active; 'I' for Inactive)
REMARK    1  A    between atoms: C_1  and  C_2
REMARK    2  A    between atoms: C_4  and  N_5
REMARK    3  A    between atoms: N_5  and  S_6
REMARK    4  A    between atoms: S_6  and  C_9
REMARK    5  A    between atoms: C_17  and  C_19
REMARK    6  A    between atoms: C_26  and  C_27
REMARK                            x       y       z     vdW  Elec       q    Type
REMARK                         _______ _______ _______ _____ _____    ______ ____
ROOT
ATOM      1  C   UNL     1       3.044   4.065  19.363  0.00  0.00    +0.000 A 
ATOM      2  C   UNL     1       1.909   3.640  20.077  0.00  0.00    +0.000 A 
ATOM      3  C   UNL     1       1.240   4.556  20.943  0.00  0.00    +0.000 A 
ATOM      4  C   UNL     1       1.580   5.913  20.876  0.00  0.00    +0.000 A 
ATOM      5  C   UNL     1       2.657   6.208  20.047  0.00  0.00    +0.000 A 
ATOM      6  C   UNL     1       3.598   5.285  19.657  0.00  0.00    +0.000 A 
ATOM      7  C   UNL     1       2.268   7.095  18.898  0.00  0.00    +0.000 C 
ATOM      8  N   UNL     1       1.768   8.369  19.258  0.00  0.00    +0.000 N 
ATOM      9  C   UNL     1       1.973   9.278  18.212  0.00  0.00    +0.000 C 
ATOM     10  O   UNL     1       2.419   8.862  17.121  0.00  0.00    +0.000 OA
ATOM     11  C   UNL     1       1.150   8.491  20.608  0.00  0.00    +0.000 C 
ATOM     12  C   UNL     1       0.780   7.115  21.347  0.00  0.00    +0.000 C 
ENDROOT
BRANCH   9  13
ATOM     13  C   UNL     1       1.772  10.776  18.357  0.00  0.00    +0.000 C 
ATOM     14  F   UNL     1       2.044  11.258  19.593  0.00  0.00    +0.000 F 
ATOM     15  F   UNL     1       2.553  11.470  17.480  0.00  0.00    +0.000 F 
ATOM     16  F   UNL     1       0.485  11.127  18.068  0.00  0.00    +0.000 F 
ENDBRANCH   9  13
BRANCH   1  17
ATOM     17  S   UNL     1       3.610   3.356  17.799  0.00  0.00    +0.000 S 
ATOM     18  O   UNL     1       3.236   4.292  16.761  0.00  0.00    +0.000 OA
ATOM     19  O   UNL     1       3.198   1.968  17.806  0.00  0.00    +0.000 OA
BRANCH  17  20
ATOM     20  N   UNL     1       5.321   3.451  17.993  0.00  0.00    +0.000 N 
ATOM     21  H   UNL     1       5.469   3.787  18.947  0.00  0.00    +0.000 HD
BRANCH  20  25
ATOM     22  C   UNL     1       7.381   4.831  13.680  0.00  0.00    +0.000 C 
ATOM     23  C   UNL     1       7.035   5.004  15.129  0.00  0.00    +0.000 A 
ATOM     24  C   UNL     1       6.268   4.082  15.818  0.00  0.00    +0.000 A 
ATOM     25  C   UNL     1       6.020   4.371  17.142  0.00  0.00    +0.000 A 
ATOM     26  N   UNL     1       6.476   5.461  17.775  0.00  0.00    +0.000 NA
ATOM     27  C   UNL     1       7.204   6.312  17.016  0.00  0.00    +0.000 A 
ATOM     28  C   UNL     1       7.737   7.568  17.632  0.00  0.00    +0.000 C 
ATOM     29  N   UNL     1       7.500   6.123  15.716  0.00  0.00    +0.000 NA
ENDBRANCH  20  25
ENDBRANCH  17  20
ENDBRANCH   1  17
TORSDOF 4
ENDMDL
MODEL 4
REMARK VINA RESULT:      -7.9      0.795      1.125
REMARK  Name = 
REMARK  6 active torsions:
REMARK  status: ('A' for Active; 'I' for Inactive)
REMARK    1  A    between atoms: C_1  and  C_2
REMARK    2  A    between atoms: C_4  and  N_5
REMARK    3  A    between atoms: N_5  and  S_6
REMARK    4  A    between atoms: S_6  and  C_9
REMARK    5  A    between atoms: C_17  and  C_19
REMARK    6  A    between atoms: C_26  and  C_27
REMARK                            x       y       z     vdW  Elec       q    Type
REMARK                         _______ _______ _______ _____ _____    ______ ____
ROOT
ATOM      1  C   UNL     1       5.265   4.332  18.128  0.00  0.00    +0.000 A 
ATOM      2  C   UNL     1       4.487   3.193  17.854  0.00  0.00    +0.000 A 
ATOM      3  C   UNL     1       3.399   2.860  18.716  0.00  0.00    +0.000 A 
ATOM      4  C   UNL     1       2.983   3.801  19.666  0.00  0.00    +0.000 A 
ATOM      5  C   UNL     1       3.785   4.934  19.759  0.00  0.00    +0.000 A 
ATOM      6  C   UNL     1       5.086   4.990  19.319  0.00  0.00    +0.000 A 
ATOM      7  C   UNL     1       3.043   6.190  19.399  0.00  0.00    +0.000 C 
ATOM      8  N   UNL     1       1.935   6.499  20.224  0.00  0.00    +0.000 N 
ATOM      9  C   UNL     1       1.683   7.876  20.194  0.00  0.00    +0.000 C 
ATOM     10  O   UNL     1       2.330   8.598  19.405  0.00  0.00    +0.000 OA
ATOM     11  C   UNL     1       1.283   5.357  20.926  0.00  0.00    +0.000 C 
ATOM     12  C   UNL     1       1.653   3.890  20.392  0.00  0.00    +0.000 C 
ENDROOT
BRANCH   9  13
ATOM     13  C   UNL     1       0.723   8.569  21.145  0.00  0.00    +0.000 C 
ATOM     14  F   UNL     1       0.366   9.818  20.764  0.00  0.00    +0.000 F 
ATOM     15  F   UNL     1      -0.429   7.856  21.298  0.00  0.00    +0.000 F 
ATOM     16  F   UNL     1       1.265   8.674  22.394  0.00  0.00    +0.000 F 
ENDBRANCH   9  13
BRANCH   1  17
ATOM     17  S   UNL     1       6.189   5.279  16.896  0.00  0.00    +0.000 S 
ATOM     18  O   UNL     1       7.418   4.554  16.655  0.00  0.00    +0.000 OA
ATOM     19  O   UNL     1       6.149   6.660  17.326  0.00  0.00    +0.000 OA
BRANCH  17  20
ATOM     20  N   UNL     1       5.186   5.078  15.506  0.00  0.00    +0.000 N 
ATOM     21  H   UNL     1       4.571   4.292  15.726  0.00  0.00    +0.000 HD
BRANCH  20  25
ATOM     22  C   UNL     1       5.899   2.210  11.504  0.00  0.00    +0.000 C 
ATOM     23  C   UNL     1       6.215   3.356  12.420  0.00  0.00    +0.000 A 
ATOM     24  C   UNL     1       5.442   3.644  13.530  0.00  0.00    +0.000 A 
ATOM     25  C   UNL     1       5.842   4.731  14.278  0.00  0.00    +0.000 A 
ATOM     26  N   UNL     1       6.911   5.488  13.997  0.00  0.00    +0.000 NA
ATOM     27  C   UNL     1       7.596   5.138  12.884  0.00  0.00    +0.000 A 
ATOM     28  C   UNL     1       8.793   5.940  12.478  0.00  0.00    +0.000 C 
ATOM     29  N   UNL     1       7.286   4.099  12.085  0.00  0.00    +0.000 NA
ENDBRANCH  20  25
ENDBRANCH  17  20
ENDBRANCH   1  17
TORSDOF 4
ENDMDL
MODEL 5
REMARK VINA RESULT:      -7.9      1.238      1.442
REMARK  Name = 
REMARK  6 active torsions:
REMARK  status: ('A' for Active; 'I' for Inactive)
REMARK    1  A    between atoms: C_1  and  C_2
REMARK    2  A    between atoms: C_4  and  N_5
REMARK    3  A    between atoms: N_5  and  S_6
REMARK    4  A    between atoms: S_6  and  C_9
REMARK    5  A    between atoms: C_17  and  C_19
REMARK    6  A    between atoms: C_26  and  C_27
REMARK                            x       y       z     vdW  Elec       q    Type
REMARK                         _______ _______ _______ _____ _____    ______ ____
ROOT
ATOM      1  C   UNL     1       5.747   4.654  18.363  0.00  0.00    +0.000 A 
ATOM      2  C   UNL     1       5.035   3.452  18.517  0.00  0.00    +0.000 A 
ATOM      3  C   UNL     1       3.925   3.400  19.413  0.00  0.00    +0.000 A 
ATOM      4  C   UNL     1       3.424   4.602  19.929  0.00  0.00    +0.000 A 
ATOM      5  C   UNL     1       4.169   5.733  19.611  0.00  0.00    +0.000 A 
ATOM      6  C   UNL     1       5.485   5.697  19.215  0.00  0.00    +0.000 A 
ATOM      7  C   UNL     1       3.388   6.718  18.787  0.00  0.00    +0.000 C 
ATOM      8  N   UNL     1       2.231   7.246  19.407  0.00  0.00    +0.000 N 
ATOM      9  C   UNL     1       1.918   8.495  18.856  0.00  0.00    +0.000 C 
ATOM     10  O   UNL     1       2.568   8.907  17.871  0.00  0.00    +0.000 OA
ATOM     11  C   UNL     1       1.600   6.413  20.470  0.00  0.00    +0.000 C 
ATOM     12  C   UNL     1       2.059   4.877  20.535  0.00  0.00    +0.000 C 
ENDROOT
BRANCH   9  13
ATOM     13  C   UNL     1       0.886   9.435  19.453  0.00  0.00    +0.000 C 
ATOM     14  F   UNL     1       0.357   9.011  20.625  0.00  0.00    +0.000 F 
ATOM     15  F   UNL     1       1.411  10.672  19.678  0.00  0.00    +0.000 F 
ATOM     16  F   UNL     1      -0.157   9.624  18.592  0.00  0.00    +0.000 F 
ENDBRANCH   9  13
BRANCH   1  17
ATOM     17  S   UNL     1       6.683   5.125  16.889  0.00  0.00    +0.000 S 
ATOM     18  O   UNL     1       7.768   4.175  16.767  0.00  0.00    +0.000 OA
ATOM     19  O   UNL     1       6.882   6.556  16.971  0.00  0.00    +0.000 OA
BRANCH  17  20
ATOM     20  N   UNL     1       5.540   4.771  15.646  0.00  0.00    +0.000 N 
ATOM     21  H   UNL     1       5.098   3.893  15.925  0.00  0.00    +0.000 HD
BRANCH  20  25
ATOM     22  C   UNL     1       5.922   2.216  11.394  0.00  0.00    +0.000 C 
ATOM     23  C   UNL     1       6.286   3.317  12.347  0.00  0.00    +0.000 A 
ATOM     24  C   UNL     1       5.635   3.487  13.556  0.00  0.00    +0.000 A 
ATOM     25  C   UNL     1       6.065   4.543  14.330  0.00  0.00    +0.000 A 
ATOM     26  N   UNL     1       7.054   5.379  13.984  0.00  0.00    +0.000 NA
ATOM     27  C   UNL     1       7.619   5.142  12.777  0.00  0.00    +0.000 A 
ATOM     28  C   UNL     1       8.718   6.038  12.297  0.00  0.00    +0.000 C 
ATOM     29  N   UNL     1       7.271   4.141  11.947  0.00  0.00    +0.000 NA
ENDBRANCH  20  25
ENDBRANCH  17  20
ENDBRANCH   1  17
TORSDOF 4
ENDMDL
MODEL 6
REMARK VINA RESULT:      -7.7      7.965     11.522
REMARK  Name = 
REMARK  6 active torsions:
REMARK  status: ('A' for Active; 'I' for Inactive)
REMARK    1  A    between atoms: C_1  and  C_2
REMARK    2  A    between atoms: C_4  and  N_5
REMARK    3  A    between atoms: N_5  and  S_6
REMARK    4  A    between atoms: S_6  and  C_9
REMARK    5  A    between atoms: C_17  and  C_19
REMARK    6  A    between atoms: C_26  and  C_27
REMARK                            x       y       z     vdW  Elec       q    Type
REMARK                         _______ _______ _______ _____ _____    ______ ____
ROOT
ATOM      1  C   UNL     1      -5.357  11.513  17.322  0.00  0.00    +0.000 A 
ATOM      2  C   UNL     1      -5.942  12.641  16.722  0.00  0.00    +0.000 A 
ATOM      3  C   UNL     1      -6.974  13.349  17.409  0.00  0.00    +0.000 A 
ATOM      4  C   UNL     1      -7.209  13.051  18.756  0.00  0.00    +0.000 A 
ATOM      5  C   UNL     1      -6.483  11.974  19.255  0.00  0.00    +0.000 A 
ATOM      6  C   UNL     1      -5.919  11.000  18.465  0.00  0.00    +0.000 A 
ATOM      7  C   UNL     1      -5.547  12.377  20.359  0.00  0.00    +0.000 C 
ATOM      8  N   UNL     1      -6.165  12.921  21.510  0.00  0.00    +0.000 N 
ATOM      9  C   UNL     1      -5.345  12.733  22.630  0.00  0.00    +0.000 C 
ATOM     10  O   UNL     1      -4.198  12.261  22.473  0.00  0.00    +0.000 OA
ATOM     11  C   UNL     1      -7.498  13.558  21.318  0.00  0.00    +0.000 C 
ATOM     12  C   UNL     1      -7.914  13.893  19.805  0.00  0.00    +0.000 C 
ENDROOT
BRANCH   9  13
ATOM     13  C   UNL     1      -5.808  12.982  24.054  0.00  0.00    +0.000 C 
ATOM     14  F   UNL     1      -7.019  12.451  24.348  0.00  0.00    +0.000 F 
ATOM     15  F   UNL     1      -4.923  12.477  24.960  0.00  0.00    +0.000 F 
ATOM     16  F   UNL     1      -5.887  14.319  24.315  0.00  0.00    +0.000 F 
ENDBRANCH   9  13
BRANCH   1  17
ATOM     17  S   UNL     1      -3.687  10.907  16.986  0.00  0.00    +0.000 S 
ATOM     18  O   UNL     1      -3.451  11.107  15.572  0.00  0.00    +0.000 OA
ATOM     19  O   UNL     1      -3.580   9.619  17.638  0.00  0.00    +0.000 OA
BRANCH  17  20
ATOM     20  N   UNL     1      -2.737  12.066  17.841  0.00  0.00    +0.000 N 
ATOM     21  H   UNL     1      -2.231  12.587  17.121  0.00  0.00    +0.000 HD
BRANCH  20  25
ATOM     22  C   UNL     1      -0.568  11.594  22.293  0.00  0.00    +0.000 C 
ATOM     23  C   UNL     1      -0.681  11.370  20.814  0.00  0.00    +0.000 A 
ATOM     24  C   UNL     1      -1.754  11.840  20.079  0.00  0.00    +0.000 A 
ATOM     25  C   UNL     1      -1.735  11.554  18.731  0.00  0.00    +0.000 A 
ATOM     26  N   UNL     1      -0.756  10.874  18.117  0.00  0.00    +0.000 NA
ATOM     27  C   UNL     1       0.243  10.441  18.921  0.00  0.00    +0.000 A 
ATOM     28  C   UNL     1       1.369   9.654  18.328  0.00  0.00    +0.000 C 
ATOM     29  N   UNL     1       0.316  10.665  20.247  0.00  0.00    +0.000 NA
ENDBRANCH  20  25
ENDBRANCH  17  20
ENDBRANCH   1  17
TORSDOF 4
ENDMDL
MODEL 7
REMARK VINA RESULT:      -7.6      7.905     11.497
REMARK  Name = 
REMARK  6 active torsions:
REMARK  status: ('A' for Active; 'I' for Inactive)
REMARK    1  A    between atoms: C_1  and  C_2
REMARK    2  A    between atoms: C_4  and  N_5
REMARK    3  A    between atoms: N_5  and  S_6
REMARK    4  A    between atoms: S_6  and  C_9
REMARK    5  A    between atoms: C_17  and  C_19
REMARK    6  A    between atoms: C_26  and  C_27
REMARK                            x       y       z     vdW  Elec       q    Type
REMARK                         _______ _______ _______ _____ _____    ______ ____
ROOT
ATOM      1  C   UNL     1      -5.303  11.527  17.296  0.00  0.00    +0.000 A 
ATOM      2  C   UNL     1      -5.906  12.651  16.704  0.00  0.00    +0.000 A 
ATOM      3  C   UNL     1      -6.954  13.332  17.392  0.00  0.00    +0.000 A 
ATOM      4  C   UNL     1      -7.189  13.017  18.736  0.00  0.00    +0.000 A 
ATOM      5  C   UNL     1      -6.445  11.949  19.228  0.00  0.00    +0.000 A 
ATOM      6  C   UNL     1      -5.860  10.993  18.431  0.00  0.00    +0.000 A 
ATOM      7  C   UNL     1      -5.522  12.359  20.340  0.00  0.00    +0.000 C 
ATOM      8  N   UNL     1      -6.155  12.880  21.493  0.00  0.00    +0.000 N 
ATOM      9  C   UNL     1      -5.336  12.697  22.615  0.00  0.00    +0.000 C 
ATOM     10  O   UNL     1      -4.180  12.248  22.459  0.00  0.00    +0.000 OA
ATOM     11  C   UNL     1      -7.499  13.494  21.301  0.00  0.00    +0.000 C 
ATOM     12  C   UNL     1      -7.915  13.836  19.789  0.00  0.00    +0.000 C 
ENDROOT
BRANCH   9  13
ATOM     13  C   UNL     1      -5.810  12.923  24.039  0.00  0.00    +0.000 C 
ATOM     14  F   UNL     1      -6.127  14.208  24.324  0.00  0.00    +0.000 F 
ATOM     15  F   UNL     1      -6.911  12.171  24.323  0.00  0.00    +0.000 F 
ATOM     16  F   UNL     1      -4.856  12.541  24.937  0.00  0.00    +0.000 F 
ENDBRANCH   9  13
BRANCH   1  17
ATOM     17  S   UNL     1      -3.620  10.956  16.962  0.00  0.00    +0.000 S 
ATOM     18  O   UNL     1      -3.369  11.209  15.559  0.00  0.00    +0.000 OA
ATOM     19  O   UNL     1      -3.504   9.647  17.569  0.00  0.00    +0.000 OA
BRANCH  17  20
ATOM     20  N   UNL     1      -2.698  12.097  17.869  0.00  0.00    +0.000 N 
ATOM     21  H   UNL     1      -2.270  12.714  17.175  0.00  0.00    +0.000 HD
BRANCH  20  25
ATOM     22  C   UNL     1       1.461   9.440  18.490  0.00  0.00    +0.000 C 
ATOM     23  C   UNL     1       0.316  10.287  18.960  0.00  0.00    +0.000 A 
ATOM     24  C   UNL     1      -0.618  10.810  18.085  0.00  0.00    +0.000 A 
ATOM     25  C   UNL     1      -1.613  11.578  18.652  0.00  0.00    +0.000 A 
ATOM     26  N   UNL     1      -1.719  11.826  19.964  0.00  0.00    +0.000 NA
ATOM     27  C   UNL     1      -0.750  11.286  20.739  0.00  0.00    +0.000 A 
ATOM     28  C   UNL     1      -0.774  11.528  22.216  0.00  0.00    +0.000 C 
ATOM     29  N   UNL     1       0.264  10.525  20.284  0.00  0.00    +0.000 NA
ENDBRANCH  20  25
ENDBRANCH  17  20
ENDBRANCH   1  17
TORSDOF 4
ENDMDL
MODEL 8
REMARK VINA RESULT:      -7.6      1.144      1.909
REMARK  Name = 
REMARK  6 active torsions:
REMARK  status: ('A' for Active; 'I' for Inactive)
REMARK    1  A    between atoms: C_1  and  C_2
REMARK    2  A    between atoms: C_4  and  N_5
REMARK    3  A    between atoms: N_5  and  S_6
REMARK    4  A    between atoms: S_6  and  C_9
REMARK    5  A    between atoms: C_17  and  C_19
REMARK    6  A    between atoms: C_26  and  C_27
REMARK                            x       y       z     vdW  Elec       q    Type
REMARK                         _______ _______ _______ _____ _____    ______ ____
ROOT
ATOM      1  C   UNL     1       5.285   4.438  18.398  0.00  0.00    +0.000 A 
ATOM      2  C   UNL     1       4.466   3.295  18.412  0.00  0.00    +0.000 A 
ATOM      3  C   UNL     1       3.354   3.236  19.306  0.00  0.00    +0.000 A 
ATOM      4  C   UNL     1       2.964   4.407  19.968  0.00  0.00    +0.000 A 
ATOM      5  C   UNL     1       3.809   5.497  19.781  0.00  0.00    +0.000 A 
ATOM      6  C   UNL     1       5.117   5.390  19.372  0.00  0.00    +0.000 A 
ATOM      7  C   UNL     1       3.122   6.640  19.089  0.00  0.00    +0.000 C 
ATOM      8  N   UNL     1       2.017   7.192  19.779  0.00  0.00    +0.000 N 
ATOM      9  C   UNL     1       1.819   8.521  19.386  0.00  0.00    +0.000 C 
ATOM     10  O   UNL     1       2.505   8.989  18.451  0.00  0.00    +0.000 OA
ATOM     11  C   UNL     1       1.311   6.297  20.740  0.00  0.00    +0.000 C 
ATOM     12  C   UNL     1       1.628   4.729  20.616  0.00  0.00    +0.000 C 
ENDROOT
BRANCH   9  13
ATOM     13  C   UNL     1       0.876   9.472  20.101  0.00  0.00    +0.000 C 
ATOM     14  F   UNL     1      -0.407   9.043  20.162  0.00  0.00    +0.000 F 
ATOM     15  F   UNL     1       1.279   9.703  21.383  0.00  0.00    +0.000 F 
ATOM     16  F   UNL     1       0.858  10.693  19.490  0.00  0.00    +0.000 F 
ENDBRANCH   9  13
BRANCH   1  17
ATOM     17  S   UNL     1       6.261   4.997  16.983  0.00  0.00    +0.000 S 
ATOM     18  O   UNL     1       7.572   4.398  17.123  0.00  0.00    +0.000 OA
ATOM     19  O   UNL     1       6.045   6.424  16.874  0.00  0.00    +0.000 OA
BRANCH  17  20
ATOM     20  N   UNL     1       5.457   4.190  15.687  0.00  0.00    +0.000 N 
ATOM     21  H   UNL     1       5.388   3.212  15.977  0.00  0.00    +0.000 HD
BRANCH  20  25
ATOM     22  C   UNL     1       8.614   6.019  12.305  0.00  0.00    +0.000 C 
ATOM     23  C   UNL     1       7.573   5.061  12.804  0.00  0.00    +0.000 A 
ATOM     24  C   UNL     1       7.072   5.123  14.091  0.00  0.00    +0.000 A 
ATOM     25  C   UNL     1       6.126   4.176  14.418  0.00  0.00    +0.000 A 
ATOM     26  N   UNL     1       5.677   3.235  13.575  0.00  0.00    +0.000 NA
ATOM     27  C   UNL     1       6.237   3.244  12.343  0.00  0.00    +0.000 A 
ATOM     28  C   UNL     1       5.813   2.216  11.341  0.00  0.00    +0.000 C 
ATOM     29  N   UNL     1       7.168   4.123  11.927  0.00  0.00    +0.000 NA
ENDBRANCH  20  25
ENDBRANCH  17  20
ENDBRANCH   1  17
TORSDOF 4
ENDMDL
MODEL 9
REMARK VINA RESULT:      -7.5      0.533      1.731
REMARK  Name = 
REMARK  6 active torsions:
REMARK  status: ('A' for Active; 'I' for Inactive)
REMARK    1  A    between atoms: C_1  and  C_2
REMARK    2  A    between atoms: C_4  and  N_5
REMARK    3  A    between atoms: N_5  and  S_6
REMARK    4  A    between atoms: S_6  and  C_9
REMARK    5  A    between atoms: C_17  and  C_19
REMARK    6  A    between atoms: C_26  and  C_27
REMARK                            x       y       z     vdW  Elec       q    Type
REMARK                         _______ _______ _______ _____ _____    ______ ____
ROOT
ATOM      1  C   UNL     1       5.280   4.666  17.919  0.00  0.00    +0.000 A 
ATOM      2  C   UNL     1       4.563   3.485  17.658  0.00  0.00    +0.000 A 
ATOM      3  C   UNL     1       3.537   3.071  18.560  0.00  0.00    +0.000 A 
ATOM      4  C   UNL     1       3.107   3.969  19.544  0.00  0.00    +0.000 A 
ATOM      5  C   UNL     1       3.840   5.149  19.624  0.00  0.00    +0.000 A 
ATOM      6  C   UNL     1       5.115   5.293  19.129  0.00  0.00    +0.000 A 
ATOM      7  C   UNL     1       3.006   6.361  19.319  0.00  0.00    +0.000 C 
ATOM      8  N   UNL     1       1.920   6.587  20.197  0.00  0.00    +0.000 N 
ATOM      9  C   UNL     1       1.581   7.946  20.203  0.00  0.00    +0.000 C 
ATOM     10  O   UNL     1       2.147   8.719  19.401  0.00  0.00    +0.000 OA
ATOM     11  C   UNL     1       1.372   5.396  20.906  0.00  0.00    +0.000 C 
ATOM     12  C   UNL     1       1.807   3.963  20.329  0.00  0.00    +0.000 C 
ENDROOT
BRANCH   9  13
ATOM     13  C   UNL     1       0.624   8.562  21.208  0.00  0.00    +0.000 C 
ATOM     14  F   UNL     1       0.132   9.769  20.841  0.00  0.00    +0.000 F 
ATOM     15  F   UNL     1      -0.448   7.751  21.438  0.00  0.00    +0.000 F 
ATOM     16  F   UNL     1       1.230   8.732  22.419  0.00  0.00    +0.000 F 
ENDBRANCH   9  13
BRANCH   1  17
ATOM     17  S   UNL     1       6.088   5.688  16.665  0.00  0.00    +0.000 S 
ATOM     18  O   UNL     1       6.935   6.622  17.375  0.00  0.00    +0.000 OA
ATOM     19  O   UNL     1       5.051   6.097  15.741  0.00  0.00    +0.000 OA
BRANCH  17  20
ATOM     20  N   UNL     1       7.114   4.529  15.905  0.00  0.00    +0.000 N 
ATOM     21  H   UNL     1       8.064   4.778  16.189  0.00  0.00    +0.000 HD
BRANCH  20  25
ATOM     22  C   UNL     1       8.343   6.377  11.453  0.00  0.00    +0.000 C 
ATOM     23  C   UNL     1       7.659   5.409  12.372  0.00  0.00    +0.000 A 
ATOM     24  C   UNL     1       7.804   5.472  13.746  0.00  0.00    +0.000 A 
ATOM     25  C   UNL     1       7.126   4.515  14.470  0.00  0.00    +0.000 A 
ATOM     26  N   UNL     1       6.352   3.565  13.927  0.00  0.00    +0.000 NA
ATOM     27  C   UNL     1       6.284   3.574  12.575  0.00  0.00    +0.000 A 
ATOM     28  C   UNL     1       5.461   2.536  11.878  0.00  0.00    +0.000 C 
ATOM     29  N   UNL     1       6.909   4.462  11.778  0.00  0.00    +0.000 NA
ENDBRANCH  20  25
ENDBRANCH  17  20
ENDBRANCH   1  17
TORSDOF 4
ENDMDL
