MODEL 1
REMARK VINA RESULT:      -7.0      0.000      0.000
REMARK  Name = 
REMARK  13 active torsions:
REMARK  status: ('A' for Active; 'I' for Inactive)
REMARK    1  A    between atoms: C_1  and  C_2
REMARK    2  A    between atoms: C_2  and  C_3
REMARK    3  A    between atoms: C_2  and  C_4
REMARK    4  A    between atoms: C_2  and  O_5
REMARK    5  A    between atoms: O_5  and  C_6
REMARK    6  A    between atoms: N_8  and  C_9
REMARK    7  A    between atoms: C_9  and  C_10
REMARK    8  A    between atoms: C_9  and  C_17
REMARK    9  A    between atoms: C_10  and  C_11
REMARK   10  A    between atoms: N_19  and  C_20
REMARK   11  A    between atoms: C_20  and  C_21
REMARK   12  A    between atoms: C_20  and  C_23
REMARK   13  A    between atoms: C_23  and  C_24
REMARK                            x       y       z     vdW  Elec       q    Type
REMARK                         _______ _______ _______ _____ _____    ______ ____
ROOT
ATOM      1  C   UNL     1       2.882   7.309  18.182  0.00  0.00    +0.000 C 
ENDROOT
BRANCH   1   4
ATOM      2  C   UNL     1       4.877   6.379  17.076  0.00  0.00    +0.000 C 
ATOM      3  O   UNL     1       4.234   5.447  16.601  0.00  0.00    +0.000 OA
ATOM      4  N   UNL     1       4.275   7.435  17.717  0.00  0.00    +0.000 N 
ATOM      5  H   UNL     1       4.874   8.140  18.134  0.00  0.00    +0.000 HD
BRANCH   2   6
ATOM      6  O   UNL     1       6.234   6.448  17.116  0.00  0.00    +0.000 OA
BRANCH   6   8
ATOM      7  C   UNL     1       7.700   4.492  17.481  0.00  0.00    +0.000 C 
ATOM      8  C   UNL     1       6.968   5.678  18.127  0.00  0.00    +0.000 C 
ATOM      9  C   UNL     1       6.068   5.211  19.285  0.00  0.00    +0.000 C 
ATOM     10  C   UNL     1       8.033   6.617  18.726  0.00  0.00    +0.000 C 
ENDBRANCH   6   8
ENDBRANCH   2   6
ENDBRANCH   1   4
BRANCH   1  11
ATOM     11  C   UNL     1       2.034   8.639  18.197  0.00  0.00    +0.000 C 
ATOM     12  O   UNL     1       2.017   9.426  17.258  0.00  0.00    +0.000 OA
ATOM     13  N   UNL     1       1.274   8.856  19.344  0.00  0.00    +0.000 N 
ATOM     14  H   UNL     1       1.398   8.235  20.140  0.00  0.00    +0.000 HD
BRANCH  13  15
ATOM     15  C   UNL     1       0.550  10.118  19.590  0.00  0.00    +0.000 C 
BRANCH  15  16
ATOM     16  C   UNL     1       0.559  10.469  21.023  0.00  0.00    +0.000 C 
ATOM     17  N   UNL     1       0.581  10.742  22.160  0.00  0.00    +0.000 NA
ENDBRANCH  15  16
BRANCH  15  18
ATOM     18  C   UNL     1      -0.902  10.153  19.084  0.00  0.00    +0.000 C 
BRANCH  18  19
ATOM     19  C   UNL     1      -1.574  11.483  19.386  0.00  0.00    +0.000 C 
ATOM     20  N   UNL     1      -2.132  12.585  19.637  0.00  0.00    +0.000 NA
ENDBRANCH  18  19
ENDBRANCH  15  18
ENDBRANCH  13  15
ENDBRANCH   1  11
BRANCH   1  21
ATOM     21  C   UNL     1       2.832   6.615  19.562  0.00  0.00    +0.000 C 
BRANCH  21  22
ATOM     22  C   UNL     1       2.202   5.241  19.567  0.00  0.00    +0.000 A 
ATOM     23  C   UNL     1       1.901   4.590  20.770  0.00  0.00    +0.000 A 
ATOM     24  C   UNL     1       1.209   3.378  20.759  0.00  0.00    +0.000 A 
ATOM     25  C   UNL     1       0.836   2.796  19.550  0.00  0.00    +0.000 A 
ATOM     26  C   UNL     1       1.181   3.405  18.348  0.00  0.00    +0.000 A 
ATOM     27  C   UNL     1       1.862   4.621  18.356  0.00  0.00    +0.000 A 
ENDBRANCH  21  22
ENDBRANCH   1  21
TORSDOF 10
ENDMDL
MODEL 2
REMARK VINA RESULT:      -6.9      4.767      8.097
REMARK  Name = 
REMARK  13 active torsions:
REMARK  status: ('A' for Active; 'I' for Inactive)
REMARK    1  A    between atoms: C_1  and  C_2
REMARK    2  A    between atoms: C_2  and  C_3
REMARK    3  A    between atoms: C_2  and  C_4
REMARK    4  A    between atoms: C_2  and  O_5
REMARK    5  A    between atoms: O_5  and  C_6
REMARK    6  A    between atoms: N_8  and  C_9
REMARK    7  A    between atoms: C_9  and  C_10
REMARK    8  A    between atoms: C_9  and  C_17
REMARK    9  A    between atoms: C_10  and  C_11
REMARK   10  A    between atoms: N_19  and  C_20
REMARK   11  A    between atoms: C_20  and  C_21
REMARK   12  A    between atoms: C_20  and  C_23
REMARK   13  A    between atoms: C_23  and  C_24
REMARK                            x       y       z     vdW  Elec       q    Type
REMARK                         _______ _______ _______ _____ _____    ______ ____
ROOT
ATOM      1  C   UNL     1       4.657   4.201  16.304  0.00  0.00    +0.000 C 
ENDROOT
BRANCH   1   4
ATOM      2  C   UNL     1       3.121   2.979  17.794  0.00  0.00    +0.000 C 
ATOM      3  O   UNL     1       2.171   3.164  17.039  0.00  0.00    +0.000 OA
ATOM      4  N   UNL     1       4.412   3.295  17.440  0.00  0.00    +0.000 N 
ATOM      5  H   UNL     1       5.138   3.168  18.138  0.00  0.00    +0.000 HD
BRANCH   2   6
ATOM      6  O   UNL     1       3.023   2.539  19.076  0.00  0.00    +0.000 OA
BRANCH   6   8
ATOM      7  C   UNL     1       0.786   3.232  19.865  0.00  0.00    +0.000 C 
ATOM      8  C   UNL     1       2.304   3.349  20.066  0.00  0.00    +0.000 C 
ATOM      9  C   UNL     1       2.751   4.822  20.064  0.00  0.00    +0.000 C 
ATOM     10  C   UNL     1       2.639   2.771  21.454  0.00  0.00    +0.000 C 
ENDBRANCH   6   8
ENDBRANCH   2   6
ENDBRANCH   1   4
BRANCH   1  11
ATOM     11  C   UNL     1       5.946   3.903  15.446  0.00  0.00    +0.000 C 
ATOM     12  O   UNL     1       7.062   3.791  15.942  0.00  0.00    +0.000 OA
ATOM     13  N   UNL     1       5.737   3.745  14.079  0.00  0.00    +0.000 N 
ATOM     14  H   UNL     1       4.817   3.950  13.696  0.00  0.00    +0.000 HD
BRANCH  13  15
ATOM     15  C   UNL     1       6.847   3.619  13.115  0.00  0.00    +0.000 C 
BRANCH  15  16
ATOM     16  C   UNL     1       7.543   4.906  12.929  0.00  0.00    +0.000 C 
ATOM     17  N   UNL     1       8.082   5.935  12.782  0.00  0.00    +0.000 NA
ENDBRANCH  15  16
BRANCH  15  18
ATOM     18  C   UNL     1       6.460   3.065  11.734  0.00  0.00    +0.000 C 
BRANCH  18  19
ATOM     19  C   UNL     1       4.958   3.118  11.504  0.00  0.00    +0.000 C 
ATOM     20  N   UNL     1       3.713   3.162  11.314  0.00  0.00    +0.000 NA
ENDBRANCH  18  19
ENDBRANCH  15  18
ENDBRANCH  13  15
ENDBRANCH   1  11
BRANCH   1  21
ATOM     21  C   UNL     1       4.643   5.674  16.773  0.00  0.00    +0.000 C 
BRANCH  21  22
ATOM     22  C   UNL     1       5.851   6.104  17.574  0.00  0.00    +0.000 A 
ATOM     23  C   UNL     1       6.230   5.417  18.733  0.00  0.00    +0.000 A 
ATOM     24  C   UNL     1       7.415   5.750  19.392  0.00  0.00    +0.000 A 
ATOM     25  C   UNL     1       8.215   6.784  18.914  0.00  0.00    +0.000 A 
ATOM     26  C   UNL     1       7.818   7.511  17.796  0.00  0.00    +0.000 A 
ATOM     27  C   UNL     1       6.641   7.174  17.130  0.00  0.00    +0.000 A 
ENDBRANCH  21  22
ENDBRANCH   1  21
TORSDOF 10
ENDMDL
MODEL 3
REMARK VINA RESULT:      -6.8      0.209      1.314
REMARK  Name = 
REMARK  13 active torsions:
REMARK  status: ('A' for Active; 'I' for Inactive)
REMARK    1  A    between atoms: C_1  and  C_2
REMARK    2  A    between atoms: C_2  and  C_3
REMARK    3  A    between atoms: C_2  and  C_4
REMARK    4  A    between atoms: C_2  and  O_5
REMARK    5  A    between atoms: O_5  and  C_6
REMARK    6  A    between atoms: N_8  and  C_9
REMARK    7  A    between atoms: C_9  and  C_10
REMARK    8  A    between atoms: C_9  and  C_17
REMARK    9  A    between atoms: C_10  and  C_11
REMARK   10  A    between atoms: N_19  and  C_20
REMARK   11  A    between atoms: C_20  and  C_21
REMARK   12  A    between atoms: C_20  and  C_23
REMARK   13  A    between atoms: C_23  and  C_24
REMARK                            x       y       z     vdW  Elec       q    Type
REMARK                         _______ _______ _______ _____ _____    ______ ____
ROOT
ATOM      1  C   UNL     1       2.859   7.380  18.231  0.00  0.00    +0.000 C 
ENDROOT
BRANCH   1   4
ATOM      2  C   UNL     1       4.941   6.587  17.179  0.00  0.00    +0.000 C 
ATOM      3  O   UNL     1       4.344   5.719  16.548  0.00  0.00    +0.000 OA
ATOM      4  N   UNL     1       4.282   7.560  17.893  0.00  0.00    +0.000 N 
ATOM      5  H   UNL     1       4.842   8.209  18.436  0.00  0.00    +0.000 HD
BRANCH   2   6
ATOM      6  O   UNL     1       6.290   6.650  17.331  0.00  0.00    +0.000 OA
BRANCH   6   8
ATOM      7  C   UNL     1       8.068   6.302  19.011  0.00  0.00    +0.000 C 
ATOM      8  C   UNL     1       6.972   5.647  18.158  0.00  0.00    +0.000 C 
ATOM      9  C   UNL     1       7.538   4.481  17.328  0.00  0.00    +0.000 C 
ATOM     10  C   UNL     1       5.920   5.060  19.116  0.00  0.00    +0.000 C 
ENDBRANCH   6   8
ENDBRANCH   2   6
ENDBRANCH   1   4
BRANCH   1  11
ATOM     11  C   UNL     1       1.978   8.689  18.240  0.00  0.00    +0.000 C 
ATOM     12  O   UNL     1       1.906   9.446  17.279  0.00  0.00    +0.000 OA
ATOM     13  N   UNL     1       1.258   8.922  19.408  0.00  0.00    +0.000 N 
ATOM     14  H   UNL     1       1.428   8.329  20.217  0.00  0.00    +0.000 HD
BRANCH  13  15
ATOM     15  C   UNL     1       0.512  10.173  19.645  0.00  0.00    +0.000 C 
BRANCH  15  16
ATOM     16  C   UNL     1       0.461  10.503  21.082  0.00  0.00    +0.000 C 
ATOM     17  N   UNL     1       0.421  10.779  22.218  0.00  0.00    +0.000 NA
ENDBRANCH  15  16
BRANCH  15  18
ATOM     18  C   UNL     1      -0.920  10.202  19.083  0.00  0.00    +0.000 C 
BRANCH  18  19
ATOM     19  C   UNL     1      -1.632  11.502  19.419  0.00  0.00    +0.000 C 
ATOM     20  N   UNL     1      -2.224  12.580  19.698  0.00  0.00    +0.000 NA
ENDBRANCH  18  19
ENDBRANCH  15  18
ENDBRANCH  13  15
ENDBRANCH   1  11
BRANCH   1  21
ATOM     21  C   UNL     1       2.712   6.615  19.566  0.00  0.00    +0.000 C 
BRANCH  21  22
ATOM     22  C   UNL     1       2.023   5.274  19.465  0.00  0.00    +0.000 A 
ATOM     23  C   UNL     1       1.857   4.639  18.228  0.00  0.00    +0.000 A 
ATOM     24  C   UNL     1       1.331   3.348  18.165  0.00  0.00    +0.000 A 
ATOM     25  C   UNL     1       0.944   2.692  19.331  0.00  0.00    +0.000 A 
ATOM     26  C   UNL     1       1.050   3.336  20.560  0.00  0.00    +0.000 A 
ATOM     27  C   UNL     1       1.586   4.621  20.627  0.00  0.00    +0.000 A 
ENDBRANCH  21  22
ENDBRANCH   1  21
TORSDOF 10
ENDMDL
MODEL 4
REMARK VINA RESULT:      -6.8      1.753      4.033
REMARK  Name = 
REMARK  13 active torsions:
REMARK  status: ('A' for Active; 'I' for Inactive)
REMARK    1  A    between atoms: C_1  and  C_2
REMARK    2  A    between atoms: C_2  and  C_3
REMARK    3  A    between atoms: C_2  and  C_4
REMARK    4  A    between atoms: C_2  and  O_5
REMARK    5  A    between atoms: O_5  and  C_6
REMARK    6  A    between atoms: N_8  and  C_9
REMARK    7  A    between atoms: C_9  and  C_10
REMARK    8  A    between atoms: C_9  and  C_17
REMARK    9  A    between atoms: C_10  and  C_11
REMARK   10  A    between atoms: N_19  and  C_20
REMARK   11  A    between atoms: C_20  and  C_21
REMARK   12  A    between atoms: C_20  and  C_23
REMARK   13  A    between atoms: C_23  and  C_24
REMARK                            x       y       z     vdW  Elec       q    Type
REMARK                         _______ _______ _______ _____ _____    ______ ____
ROOT
ATOM      1  C   UNL     1       3.158   7.233  18.076  0.00  0.00    +0.000 C 
ENDROOT
BRANCH   1   4
ATOM      2  C   UNL     1       2.218   5.309  19.296  0.00  0.00    +0.000 C 
ATOM      3  O   UNL     1       2.305   5.892  20.373  0.00  0.00    +0.000 OA
ATOM      4  N   UNL     1       2.445   5.943  18.097  0.00  0.00    +0.000 N 
ATOM      5  H   UNL     1       2.410   5.382  17.252  0.00  0.00    +0.000 HD
BRANCH   2   6
ATOM      6  O   UNL     1       1.984   3.978  19.148  0.00  0.00    +0.000 OA
BRANCH   6   8
ATOM      7  C   UNL     1       2.775   2.602  21.042  0.00  0.00    +0.000 C 
ATOM      8  C   UNL     1       3.002   3.012  19.579  0.00  0.00    +0.000 C 
ATOM      9  C   UNL     1       4.436   3.527  19.363  0.00  0.00    +0.000 C 
ATOM     10  C   UNL     1       2.829   1.754  18.707  0.00  0.00    +0.000 C 
ENDBRANCH   6   8
ENDBRANCH   2   6
ENDBRANCH   1   4
BRANCH   1  11
ATOM     11  C   UNL     1       2.259   8.523  18.188  0.00  0.00    +0.000 C 
ATOM     12  O   UNL     1       2.113   9.313  17.262  0.00  0.00    +0.000 OA
ATOM     13  N   UNL     1       1.610   8.702  19.407  0.00  0.00    +0.000 N 
ATOM     14  H   UNL     1       1.841   8.084  20.181  0.00  0.00    +0.000 HD
BRANCH  13  15
ATOM     15  C   UNL     1       0.860   9.930  19.735  0.00  0.00    +0.000 C 
BRANCH  15  16
ATOM     16  C   UNL     1       0.751  10.116  21.195  0.00  0.00    +0.000 C 
ATOM     17  N   UNL     1       0.661  10.279  22.350  0.00  0.00    +0.000 NA
ENDBRANCH  15  16
BRANCH  15  18
ATOM     18  C   UNL     1      -0.546  10.027  19.121  0.00  0.00    +0.000 C 
BRANCH  18  19
ATOM     19  C   UNL     1      -0.831  11.417  18.576  0.00  0.00    +0.000 C 
ATOM     20  N   UNL     1      -1.067  12.570  18.125  0.00  0.00    +0.000 NA
ENDBRANCH  18  19
ENDBRANCH  15  18
ENDBRANCH  13  15
ENDBRANCH   1  11
BRANCH   1  21
ATOM     21  C   UNL     1       4.084   7.319  16.842  0.00  0.00    +0.000 C 
BRANCH  21  22
ATOM     22  C   UNL     1       5.271   6.383  16.863  0.00  0.00    +0.000 A 
ATOM     23  C   UNL     1       6.361   6.618  17.709  0.00  0.00    +0.000 A 
ATOM     24  C   UNL     1       7.391   5.681  17.806  0.00  0.00    +0.000 A 
ATOM     25  C   UNL     1       7.353   4.517  17.042  0.00  0.00    +0.000 A 
ATOM     26  C   UNL     1       6.302   4.301  16.156  0.00  0.00    +0.000 A 
ATOM     27  C   UNL     1       5.267   5.229  16.065  0.00  0.00    +0.000 A 
ENDBRANCH  21  22
ENDBRANCH   1  21
TORSDOF 10
ENDMDL
MODEL 5
REMARK VINA RESULT:      -6.8      1.684      4.093
REMARK  Name = 
REMARK  13 active torsions:
REMARK  status: ('A' for Active; 'I' for Inactive)
REMARK    1  A    between atoms: C_1  and  C_2
REMARK    2  A    between atoms: C_2  and  C_3
REMARK    3  A    between atoms: C_2  and  C_4
REMARK    4  A    between atoms: C_2  and  O_5
REMARK    5  A    between atoms: O_5  and  C_6
REMARK    6  A    between atoms: N_8  and  C_9
REMARK    7  A    between atoms: C_9  and  C_10
REMARK    8  A    between atoms: C_9  and  C_17
REMARK    9  A    between atoms: C_10  and  C_11
REMARK   10  A    between atoms: N_19  and  C_20
REMARK   11  A    between atoms: C_20  and  C_21
REMARK   12  A    between atoms: C_20  and  C_23
REMARK   13  A    between atoms: C_23  and  C_24
REMARK                            x       y       z     vdW  Elec       q    Type
REMARK                         _______ _______ _______ _____ _____    ______ ____
ROOT
ATOM      1  C   UNL     1       3.097   7.256  18.193  0.00  0.00    +0.000 C 
ENDROOT
BRANCH   1   4
ATOM      2  C   UNL     1       2.116   5.329  19.374  0.00  0.00    +0.000 C 
ATOM      3  O   UNL     1       2.180   5.903  20.457  0.00  0.00    +0.000 OA
ATOM      4  N   UNL     1       2.376   5.971  18.187  0.00  0.00    +0.000 N 
ATOM      5  H   UNL     1       2.359   5.417  17.335  0.00  0.00    +0.000 HD
BRANCH   2   6
ATOM      6  O   UNL     1       1.877   4.001  19.209  0.00  0.00    +0.000 OA
BRANCH   6   8
ATOM      7  C   UNL     1       2.624   2.652  21.141  0.00  0.00    +0.000 C 
ATOM      8  C   UNL     1       2.871   3.024  19.672  0.00  0.00    +0.000 C 
ATOM      9  C   UNL     1       4.318   3.505  19.457  0.00  0.00    +0.000 C 
ATOM     10  C   UNL     1       2.681   1.751  18.827  0.00  0.00    +0.000 C 
ENDBRANCH   6   8
ENDBRANCH   2   6
ENDBRANCH   1   4
BRANCH   1  11
ATOM     11  C   UNL     1       2.201   8.553  18.232  0.00  0.00    +0.000 C 
ATOM     12  O   UNL     1       2.093   9.313  17.276  0.00  0.00    +0.000 OA
ATOM     13  N   UNL     1       1.509   8.773  19.420  0.00  0.00    +0.000 N 
ATOM     14  H   UNL     1       1.709   8.179  20.221  0.00  0.00    +0.000 HD
BRANCH  13  15
ATOM     15  C   UNL     1       0.754  10.013  19.682  0.00  0.00    +0.000 C 
BRANCH  15  16
ATOM     16  C   UNL     1       0.662  10.288  21.128  0.00  0.00    +0.000 C 
ATOM     17  N   UNL     1       0.578  10.495  22.277  0.00  0.00    +0.000 NA
ENDBRANCH  15  16
BRANCH  15  18
ATOM     18  C   UNL     1      -0.661  10.062  19.081  0.00  0.00    +0.000 C 
BRANCH  18  19
ATOM     19  C   UNL     1      -1.327  11.409  19.311  0.00  0.00    +0.000 C 
ATOM     20  N   UNL     1      -1.879  12.526  19.503  0.00  0.00    +0.000 NA
ENDBRANCH  18  19
ENDBRANCH  15  18
ENDBRANCH  13  15
ENDBRANCH   1  11
BRANCH   1  21
ATOM     21  C   UNL     1       4.099   7.321  17.019  0.00  0.00    +0.000 C 
BRANCH  21  22
ATOM     22  C   UNL     1       5.198   6.283  17.054  0.00  0.00    +0.000 A 
ATOM     23  C   UNL     1       5.167   5.169  16.206  0.00  0.00    +0.000 A 
ATOM     24  C   UNL     1       6.247   4.287  16.164  0.00  0.00    +0.000 A 
ATOM     25  C   UNL     1       7.353   4.495  16.984  0.00  0.00    +0.000 A 
ATOM     26  C   UNL     1       7.370   5.566  17.872  0.00  0.00    +0.000 A 
ATOM     27  C   UNL     1       6.297   6.455  17.908  0.00  0.00    +0.000 A 
ENDBRANCH  21  22
ENDBRANCH   1  21
TORSDOF 10
ENDMDL
MODEL 6
REMARK VINA RESULT:      -6.7      1.075      1.725
REMARK  Name = 
REMARK  13 active torsions:
REMARK  status: ('A' for Active; 'I' for Inactive)
REMARK    1  A    between atoms: C_1  and  C_2
REMARK    2  A    between atoms: C_2  and  C_3
REMARK    3  A    between atoms: C_2  and  C_4
REMARK    4  A    between atoms: C_2  and  O_5
REMARK    5  A    between atoms: O_5  and  C_6
REMARK    6  A    between atoms: N_8  and  C_9
REMARK    7  A    between atoms: C_9  and  C_10
REMARK    8  A    between atoms: C_9  and  C_17
REMARK    9  A    between atoms: C_10  and  C_11
REMARK   10  A    between atoms: N_19  and  C_20
REMARK   11  A    between atoms: C_20  and  C_21
REMARK   12  A    between atoms: C_20  and  C_23
REMARK   13  A    between atoms: C_23  and  C_24
REMARK                            x       y       z     vdW  Elec       q    Type
REMARK                         _______ _______ _______ _____ _____    ______ ____
ROOT
ATOM      1  C   UNL     1       2.700   7.364  18.325  0.00  0.00    +0.000 C 
ENDROOT
BRANCH   1   4
ATOM      2  C   UNL     1       4.749   6.539  17.235  0.00  0.00    +0.000 C 
ATOM      3  O   UNL     1       4.161   5.573  16.758  0.00  0.00    +0.000 OA
ATOM      4  N   UNL     1       4.087   7.564  17.868  0.00  0.00    +0.000 N 
ATOM      5  H   UNL     1       4.645   8.301  18.288  0.00  0.00    +0.000 HD
BRANCH   2   6
ATOM      6  O   UNL     1       6.100   6.682  17.283  0.00  0.00    +0.000 OA
BRANCH   6   8
ATOM      7  C   UNL     1       8.049   6.506  18.794  0.00  0.00    +0.000 C 
ATOM      8  C   UNL     1       6.896   5.761  18.105  0.00  0.00    +0.000 C 
ATOM      9  C   UNL     1       7.415   4.552  17.306  0.00  0.00    +0.000 C 
ATOM     10  C   UNL     1       5.965   5.217  19.205  0.00  0.00    +0.000 C 
ENDBRANCH   6   8
ENDBRANCH   2   6
ENDBRANCH   1   4
BRANCH   1  11
ATOM     11  C   UNL     1       1.769   8.637  18.289  0.00  0.00    +0.000 C 
ATOM     12  O   UNL     1       1.574   9.287  17.268  0.00  0.00    +0.000 OA
ATOM     13  N   UNL     1       1.152   8.967  19.492  0.00  0.00    +0.000 N 
ATOM     14  H   UNL     1       1.423   8.467  20.336  0.00  0.00    +0.000 HD
BRANCH  13  15
ATOM     15  C   UNL     1       0.379  10.210  19.674  0.00  0.00    +0.000 C 
BRANCH  15  16
ATOM     16  C   UNL     1       1.268  11.366  19.897  0.00  0.00    +0.000 C 
ATOM     17  N   UNL     1       1.966  12.286  20.088  0.00  0.00    +0.000 NA
ENDBRANCH  15  16
BRANCH  15  18
ATOM     18  C   UNL     1      -0.672  10.174  20.796  0.00  0.00    +0.000 C 
BRANCH  18  19
ATOM     19  C   UNL     1      -0.035   9.967  22.160  0.00  0.00    +0.000 C 
ATOM     20  N   UNL     1       0.493   9.796  23.292  0.00  0.00    +0.000 NA
ENDBRANCH  18  19
ENDBRANCH  15  18
ENDBRANCH  13  15
ENDBRANCH   1  11
BRANCH   1  21
ATOM     21  C   UNL     1       2.679   6.714  19.727  0.00  0.00    +0.000 C 
BRANCH  21  22
ATOM     22  C   UNL     1       2.173   5.290  19.767  0.00  0.00    +0.000 A 
ATOM     23  C   UNL     1       2.056   4.600  20.979  0.00  0.00    +0.000 A 
ATOM     24  C   UNL     1       1.473   3.332  21.013  0.00  0.00    +0.000 A 
ATOM     25  C   UNL     1       1.027   2.735  19.837  0.00  0.00    +0.000 A 
ATOM     26  C   UNL     1       1.192   3.388  18.619  0.00  0.00    +0.000 A 
ATOM     27  C   UNL     1       1.763   4.658  18.584  0.00  0.00    +0.000 A 
ENDBRANCH  21  22
ENDBRANCH   1  21
TORSDOF 10
ENDMDL
MODEL 7
REMARK VINA RESULT:      -6.6      1.176      1.553
REMARK  Name = 
REMARK  13 active torsions:
REMARK  status: ('A' for Active; 'I' for Inactive)
REMARK    1  A    between atoms: C_1  and  C_2
REMARK    2  A    between atoms: C_2  and  C_3
REMARK    3  A    between atoms: C_2  and  C_4
REMARK    4  A    between atoms: C_2  and  O_5
REMARK    5  A    between atoms: O_5  and  C_6
REMARK    6  A    between atoms: N_8  and  C_9
REMARK    7  A    between atoms: C_9  and  C_10
REMARK    8  A    between atoms: C_9  and  C_17
REMARK    9  A    between atoms: C_10  and  C_11
REMARK   10  A    between atoms: N_19  and  C_20
REMARK   11  A    between atoms: C_20  and  C_21
REMARK   12  A    between atoms: C_20  and  C_23
REMARK   13  A    between atoms: C_23  and  C_24
REMARK                            x       y       z     vdW  Elec       q    Type
REMARK                         _______ _______ _______ _____ _____    ______ ____
ROOT
ATOM      1  C   UNL     1       2.654   7.349  18.363  0.00  0.00    +0.000 C 
ENDROOT
BRANCH   1   4
ATOM      2  C   UNL     1       4.757   6.909  17.156  0.00  0.00    +0.000 C 
ATOM      3  O   UNL     1       4.187   6.920  16.069  0.00  0.00    +0.000 OA
ATOM      4  N   UNL     1       4.126   7.282  18.319  0.00  0.00    +0.000 N 
ATOM      5  H   UNL     1       4.644   7.193  19.188  0.00  0.00    +0.000 HD
BRANCH   2   6
ATOM      6  O   UNL     1       6.020   6.455  17.369  0.00  0.00    +0.000 OA
BRANCH   6   8
ATOM      7  C   UNL     1       5.682   4.781  19.156  0.00  0.00    +0.000 C 
ATOM      8  C   UNL     1       6.230   5.052  17.747  0.00  0.00    +0.000 C 
ATOM      9  C   UNL     1       7.703   4.622  17.633  0.00  0.00    +0.000 C 
ATOM     10  C   UNL     1       5.423   4.191  16.757  0.00  0.00    +0.000 C 
ENDBRANCH   6   8
ENDBRANCH   2   6
ENDBRANCH   1   4
BRANCH   1  11
ATOM     11  C   UNL     1       2.020   8.779  18.171  0.00  0.00    +0.000 C 
ATOM     12  O   UNL     1       2.339   9.529  17.255  0.00  0.00    +0.000 OA
ATOM     13  N   UNL     1       1.044   9.135  19.097  0.00  0.00    +0.000 N 
ATOM     14  H   UNL     1       0.885   8.531  19.900  0.00  0.00    +0.000 HD
BRANCH  13  15
ATOM     15  C   UNL     1       0.463  10.491  19.158  0.00  0.00    +0.000 C 
BRANCH  15  16
ATOM     16  C   UNL     1       0.929  11.219  20.353  0.00  0.00    +0.000 C 
ATOM     17  N   UNL     1       1.313  11.800  21.294  0.00  0.00    +0.000 NA
ENDBRANCH  15  16
BRANCH  15  18
ATOM     18  C   UNL     1      -1.073  10.551  19.114  0.00  0.00    +0.000 C 
BRANCH  18  19
ATOM     19  C   UNL     1      -1.613  10.199  17.737  0.00  0.00    +0.000 C 
ATOM     20  N   UNL     1      -2.060   9.907  16.595  0.00  0.00    +0.000 NA
ENDBRANCH  18  19
ENDBRANCH  15  18
ENDBRANCH  13  15
ENDBRANCH   1  11
BRANCH   1  21
ATOM     21  C   UNL     1       2.120   6.685  19.653  0.00  0.00    +0.000 C 
BRANCH  21  22
ATOM     22  C   UNL     1       1.860   5.199  19.550  0.00  0.00    +0.000 A 
ATOM     23  C   UNL     1       1.524   4.446  20.681  0.00  0.00    +0.000 A 
ATOM     24  C   UNL     1       1.168   3.102  20.551  0.00  0.00    +0.000 A 
ATOM     25  C   UNL     1       1.169   2.496  19.297  0.00  0.00    +0.000 A 
ATOM     26  C   UNL     1       1.557   3.221  18.174  0.00  0.00    +0.000 A 
ATOM     27  C   UNL     1       1.903   4.565  18.300  0.00  0.00    +0.000 A 
ENDBRANCH  21  22
ENDBRANCH   1  21
TORSDOF 10
ENDMDL
MODEL 8
REMARK VINA RESULT:      -6.6      1.334      1.631
REMARK  Name = 
REMARK  13 active torsions:
REMARK  status: ('A' for Active; 'I' for Inactive)
REMARK    1  A    between atoms: C_1  and  C_2
REMARK    2  A    between atoms: C_2  and  C_3
REMARK    3  A    between atoms: C_2  and  C_4
REMARK    4  A    between atoms: C_2  and  O_5
REMARK    5  A    between atoms: O_5  and  C_6
REMARK    6  A    between atoms: N_8  and  C_9
REMARK    7  A    between atoms: C_9  and  C_10
REMARK    8  A    between atoms: C_9  and  C_17
REMARK    9  A    between atoms: C_10  and  C_11
REMARK   10  A    between atoms: N_19  and  C_20
REMARK   11  A    between atoms: C_20  and  C_21
REMARK   12  A    between atoms: C_20  and  C_23
REMARK   13  A    between atoms: C_23  and  C_24
REMARK                            x       y       z     vdW  Elec       q    Type
REMARK                         _______ _______ _______ _____ _____    ______ ____
ROOT
ATOM      1  C   UNL     1       2.391   7.073  18.717  0.00  0.00    +0.000 C 
ENDROOT
BRANCH   1   4
ATOM      2  C   UNL     1       4.265   5.678  17.933  0.00  0.00    +0.000 C 
ATOM      3  O   UNL     1       3.510   4.924  17.328  0.00  0.00    +0.000 OA
ATOM      4  N   UNL     1       3.832   6.855  18.497  0.00  0.00    +0.000 N 
ATOM      5  H   UNL     1       4.502   7.399  19.031  0.00  0.00    +0.000 HD
BRANCH   2   6
ATOM      6  O   UNL     1       5.572   5.420  18.204  0.00  0.00    +0.000 OA
BRANCH   6   8
ATOM      7  C   UNL     1       7.579   4.550  17.053  0.00  0.00    +0.000 C 
ATOM      8  C   UNL     1       6.593   5.719  17.192  0.00  0.00    +0.000 C 
ATOM      9  C   UNL     1       7.333   7.040  17.470  0.00  0.00    +0.000 C 
ATOM     10  C   UNL     1       5.862   5.878  15.845  0.00  0.00    +0.000 C 
ENDBRANCH   6   8
ENDBRANCH   2   6
ENDBRANCH   1   4
BRANCH   1  11
ATOM     11  C   UNL     1       1.851   8.518  18.390  0.00  0.00    +0.000 C 
ATOM     12  O   UNL     1       2.159   9.127  17.372  0.00  0.00    +0.000 OA
ATOM     13  N   UNL     1       0.971   9.058  19.324  0.00  0.00    +0.000 N 
ATOM     14  H   UNL     1       0.825   8.566  20.203  0.00  0.00    +0.000 HD
BRANCH  13  15
ATOM     15  C   UNL     1       0.497  10.454  19.255  0.00  0.00    +0.000 C 
BRANCH  15  16
ATOM     16  C   UNL     1       0.985  11.242  20.402  0.00  0.00    +0.000 C 
ATOM     17  N   UNL     1       1.366  11.880  21.306  0.00  0.00    +0.000 NA
ENDBRANCH  15  16
BRANCH  15  18
ATOM     18  C   UNL     1      -1.028  10.627  19.153  0.00  0.00    +0.000 C 
BRANCH  18  19
ATOM     19  C   UNL     1      -1.556  10.200  17.792  0.00  0.00    +0.000 C 
ATOM     20  N   UNL     1      -1.993   9.845  16.664  0.00  0.00    +0.000 NA
ENDBRANCH  18  19
ENDBRANCH  15  18
ENDBRANCH  13  15
ENDBRANCH   1  11
BRANCH   1  21
ATOM     21  C   UNL     1       1.993   6.653  20.150  0.00  0.00    +0.000 C 
BRANCH  21  22
ATOM     22  C   UNL     1       1.856   5.163  20.368  0.00  0.00    +0.000 A 
ATOM     23  C   UNL     1       2.469   4.534  21.458  0.00  0.00    +0.000 A 
ATOM     24  C   UNL     1       2.233   3.183  21.714  0.00  0.00    +0.000 A 
ATOM     25  C   UNL     1       1.404   2.445  20.872  0.00  0.00    +0.000 A 
ATOM     26  C   UNL     1       0.836   3.046  19.753  0.00  0.00    +0.000 A 
ATOM     27  C   UNL     1       1.061   4.398  19.501  0.00  0.00    +0.000 A 
ENDBRANCH  21  22
ENDBRANCH   1  21
TORSDOF 10
ENDMDL
MODEL 9
REMARK VINA RESULT:      -6.6      2.010      4.322
REMARK  Name = 
REMARK  13 active torsions:
REMARK  status: ('A' for Active; 'I' for Inactive)
REMARK    1  A    between atoms: C_1  and  C_2
REMARK    2  A    between atoms: C_2  and  C_3
REMARK    3  A    between atoms: C_2  and  C_4
REMARK    4  A    between atoms: C_2  and  O_5
REMARK    5  A    between atoms: O_5  and  C_6
REMARK    6  A    between atoms: N_8  and  C_9
REMARK    7  A    between atoms: C_9  and  C_10
REMARK    8  A    between atoms: C_9  and  C_17
REMARK    9  A    between atoms: C_10  and  C_11
REMARK   10  A    between atoms: N_19  and  C_20
REMARK   11  A    between atoms: C_20  and  C_21
REMARK   12  A    between atoms: C_20  and  C_23
REMARK   13  A    between atoms: C_23  and  C_24
REMARK                            x       y       z     vdW  Elec       q    Type
REMARK                         _______ _______ _______ _____ _____    ______ ____
ROOT
ATOM      1  C   UNL     1       3.077   7.299  18.199  0.00  0.00    +0.000 C 
ENDROOT
BRANCH   1   4
ATOM      2  C   UNL     1       2.211   5.258  19.274  0.00  0.00    +0.000 C 
ATOM      3  O   UNL     1       2.160   5.804  20.372  0.00  0.00    +0.000 OA
ATOM      4  N   UNL     1       2.479   5.954  18.120  0.00  0.00    +0.000 N 
ATOM      5  H   UNL     1       2.563   5.426  17.256  0.00  0.00    +0.000 HD
BRANCH   2   6
ATOM      6  O   UNL     1       2.107   3.919  19.064  0.00  0.00    +0.000 OA
BRANCH   6   8
ATOM      7  C   UNL     1       2.836   2.622  21.038  0.00  0.00    +0.000 C 
ATOM      8  C   UNL     1       3.144   3.022  19.588  0.00  0.00    +0.000 C 
ATOM      9  C   UNL     1       4.558   3.616  19.465  0.00  0.00    +0.000 C 
ATOM     10  C   UNL     1       3.109   1.742  18.731  0.00  0.00    +0.000 C 
ENDBRANCH   6   8
ENDBRANCH   2   6
ENDBRANCH   1   4
BRANCH   1  11
ATOM     11  C   UNL     1       2.066   8.509  18.175  0.00  0.00    +0.000 C 
ATOM     12  O   UNL     1       1.882   9.200  17.179  0.00  0.00    +0.000 OA
ATOM     13  N   UNL     1       1.364   8.732  19.356  0.00  0.00    +0.000 N 
ATOM     14  H   UNL     1       1.622   8.206  20.188  0.00  0.00    +0.000 HD
BRANCH  13  15
ATOM     15  C   UNL     1       0.500   9.912  19.556  0.00  0.00    +0.000 C 
BRANCH  15  16
ATOM     16  C   UNL     1       1.294  11.154  19.608  0.00  0.00    +0.000 C 
ATOM     17  N   UNL     1       1.932  12.134  19.661  0.00  0.00    +0.000 NA
ENDBRANCH  15  16
BRANCH  15  18
ATOM     18  C   UNL     1      -0.411   9.858  20.794  0.00  0.00    +0.000 C 
BRANCH  18  19
ATOM     19  C   UNL     1       0.390   9.751  22.081  0.00  0.00    +0.000 C 
ATOM     20  N   UNL     1       1.054   9.662  23.150  0.00  0.00    +0.000 NA
ENDBRANCH  18  19
ENDBRANCH  15  18
ENDBRANCH  13  15
ENDBRANCH   1  11
BRANCH   1  21
ATOM     21  C   UNL     1       4.163   7.474  17.114  0.00  0.00    +0.000 C 
BRANCH  21  22
ATOM     22  C   UNL     1       5.226   6.400  17.090  0.00  0.00    +0.000 A 
ATOM     23  C   UNL     1       5.163   5.342  16.176  0.00  0.00    +0.000 A 
ATOM     24  C   UNL     1       6.214   4.428  16.084  0.00  0.00    +0.000 A 
ATOM     25  C   UNL     1       7.322   4.548  16.920  0.00  0.00    +0.000 A 
ATOM     26  C   UNL     1       7.368   5.563  17.872  0.00  0.00    +0.000 A 
ATOM     27  C   UNL     1       6.325   6.483  17.958  0.00  0.00    +0.000 A 
ENDBRANCH  21  22
ENDBRANCH   1  21
TORSDOF 10
ENDMDL
