MODEL 1
REMARK VINA RESULT:      -9.0      0.000      0.000
REMARK  Name = 
REMARK  7 active torsions:
REMARK  status: ('A' for Active; 'I' for Inactive)
REMARK    1  A    between atoms: C_1  and  C_2
REMARK    2  A    between atoms: C_2  and  N_3
REMARK    3  A    between atoms: N_6  and  C_7
REMARK    4  A    between atoms: C_10  and  N_11
REMARK    5  A    between atoms: C_15  and  C_16
REMARK    6  A    between atoms: C_18  and  N_19
REMARK    7  A    between atoms: N_19  and  C_20
REMARK                            x       y       z     vdW  Elec       q    Type
REMARK                         _______ _______ _______ _____ _____    ______ ____
ROOT
ATOM      1  N   UNL     1       1.354   7.492  21.247  0.00  0.00    +0.000 N 
ATOM      2  C   UNL     1       0.635   8.657  21.499  0.00  0.00    +0.000 A 
ATOM      3  N   UNL     1       0.261   8.859  22.767  0.00  0.00    +0.000 NA
ATOM      4  C   UNL     1      -0.443   9.980  23.016  0.00  0.00    +0.000 A 
ATOM      5  C   UNL     1      -0.814  10.888  22.047  0.00  0.00    +0.000 A 
ATOM      6  C   UNL     1      -0.372  10.630  20.766  0.00  0.00    +0.000 A 
ATOM      7  N   UNL     1       0.352   9.526  20.517  0.00  0.00    +0.000 NA
ATOM      8  H   UNL     1       1.521   6.993  22.109  0.00  0.00    +0.000 HD
ENDROOT
BRANCH   1  12
ATOM      9  C   UNL     1       3.789   6.375  17.940  0.00  0.00    +0.000 A 
ATOM     10  C   UNL     1       3.630   5.541  19.055  0.00  0.00    +0.000 A 
ATOM     11  C   UNL     1       2.797   5.899  20.129  0.00  0.00    +0.000 A 
ATOM     12  C   UNL     1       2.115   7.119  20.132  0.00  0.00    +0.000 A 
ATOM     13  C   UNL     1       2.247   7.925  19.004  0.00  0.00    +0.000 A 
ATOM     14  C   UNL     1       3.080   7.574  17.944  0.00  0.00    +0.000 A 
BRANCH   9  18
ATOM     15  N   UNL     1       6.895   4.545  15.766  0.00  0.00    +0.000 NA
ATOM     16  C   UNL     1       7.058   5.759  16.600  0.00  0.00    +0.000 C 
ATOM     17  C   UNL     1       5.853   6.724  16.600  0.00  0.00    +0.000 C 
ATOM     18  N   UNL     1       4.591   6.020  16.877  0.00  0.00    +0.000 N 
ATOM     19  C   UNL     1       4.367   4.751  16.174  0.00  0.00    +0.000 C 
ATOM     20  C   UNL     1       5.645   3.871  16.206  0.00  0.00    +0.000 C 
BRANCH  15  22
ATOM     21  C   UNL     1       6.192   3.720  13.499  0.00  0.00    +0.000 C 
ATOM     22  C   UNL     1       6.840   4.827  14.323  0.00  0.00    +0.000 C 
ENDBRANCH  15  22
ENDBRANCH   9  18
ENDBRANCH   1  12
BRANCH   5  23
ATOM     23  C   UNL     1      -1.600  12.020  22.385  0.00  0.00    +0.000 C 
ATOM     24  N   UNL     1      -2.222  12.965  22.636  0.00  0.00    +0.000 NA
ENDBRANCH   5  23
BRANCH   6  25
ATOM     25  N   UNL     1      -0.666  11.514  19.695  0.00  0.00    +0.000 N 
ATOM     26  H   UNL     1      -0.561  12.482  19.985  0.00  0.00    +0.000 HD
BRANCH  25  27
ATOM     27  C   UNL     1      -1.711  11.350  18.748  0.00  0.00    +0.000 A 
ATOM     28  C   UNL     1      -2.994  11.860  19.001  0.00  0.00    +0.000 A 
ATOM     29  C   UNL     1      -4.050  11.728  18.087  0.00  0.00    +0.000 A 
ATOM     30  C   UNL     1      -3.768  11.072  16.891  0.00  0.00    +0.000 A 
ATOM     31  N   UNL     1      -4.545  10.805  15.794  0.00  0.00    +0.000 N 
ATOM     32  N   UNL     1      -3.901  10.145  14.814  0.00  0.00    +0.000 NA
ATOM     33  C   UNL     1      -2.672   9.978  15.310  0.00  0.00    +0.000 A 
ATOM     34  C   UNL     1      -2.519  10.535  16.601  0.00  0.00    +0.000 A 
ATOM     35  C   UNL     1      -1.479  10.655  17.546  0.00  0.00    +0.000 A 
ATOM     36  H   UNL     1      -5.516  11.056  15.647  0.00  0.00    +0.000 HD
ENDBRANCH  25  27
ENDBRANCH   6  25
TORSDOF 6
ENDMDL
MODEL 2
REMARK VINA RESULT:      -8.7      0.846      1.229
REMARK  Name = 
REMARK  7 active torsions:
REMARK  status: ('A' for Active; 'I' for Inactive)
REMARK    1  A    between atoms: C_1  and  C_2
REMARK    2  A    between atoms: C_2  and  N_3
REMARK    3  A    between atoms: N_6  and  C_7
REMARK    4  A    between atoms: C_10  and  N_11
REMARK    5  A    between atoms: C_15  and  C_16
REMARK    6  A    between atoms: C_18  and  N_19
REMARK    7  A    between atoms: N_19  and  C_20
REMARK                            x       y       z     vdW  Elec       q    Type
REMARK                         _______ _______ _______ _____ _____    ______ ____
ROOT
ATOM      1  N   UNL     1       0.677   7.992  21.765  0.00  0.00    +0.000 N 
ATOM      2  C   UNL     1       0.012   9.214  21.834  0.00  0.00    +0.000 A 
ATOM      3  N   UNL     1      -0.389   9.601  23.050  0.00  0.00    +0.000 NA
ATOM      4  C   UNL     1      -1.041  10.778  23.123  0.00  0.00    +0.000 A 
ATOM      5  C   UNL     1      -1.335  11.564  22.030  0.00  0.00    +0.000 A 
ATOM      6  C   UNL     1      -0.868  11.117  20.811  0.00  0.00    +0.000 A 
ATOM      7  N   UNL     1      -0.196   9.956  20.736  0.00  0.00    +0.000 NA
ATOM      8  H   UNL     1       0.791   7.606  22.691  0.00  0.00    +0.000 HD
ENDROOT
BRANCH   1  12
ATOM      9  C   UNL     1       2.912   6.324  18.551  0.00  0.00    +0.000 A 
ATOM     10  C   UNL     1       2.558   7.680  18.580  0.00  0.00    +0.000 A 
ATOM     11  C   UNL     1       1.851   8.233  19.660  0.00  0.00    +0.000 A 
ATOM     12  C   UNL     1       1.451   7.438  20.738  0.00  0.00    +0.000 A 
ATOM     13  C   UNL     1       1.839   6.101  20.722  0.00  0.00    +0.000 A 
ATOM     14  C   UNL     1       2.533   5.551  19.646  0.00  0.00    +0.000 A 
BRANCH   9  18
ATOM     15  N   UNL     1       5.958   4.308  16.457  0.00  0.00    +0.000 NA
ATOM     16  C   UNL     1       6.048   5.713  16.923  0.00  0.00    +0.000 C 
ATOM     17  C   UNL     1       4.729   6.511  16.865  0.00  0.00    +0.000 C 
ATOM     18  N   UNL     1       3.621   5.780  17.501  0.00  0.00    +0.000 N 
ATOM     19  C   UNL     1       3.495   4.353  17.184  0.00  0.00    +0.000 C 
ATOM     20  C   UNL     1       4.877   3.652  17.240  0.00  0.00    +0.000 C 
BRANCH  15  22
ATOM     21  C   UNL     1       6.813   4.709  14.128  0.00  0.00    +0.000 C 
ATOM     22  C   UNL     1       5.690   4.184  15.016  0.00  0.00    +0.000 C 
ENDBRANCH  15  22
ENDBRANCH   9  18
ENDBRANCH   1  12
BRANCH   5  23
ATOM     23  C   UNL     1      -2.071  12.767  22.186  0.00  0.00    +0.000 C 
ATOM     24  N   UNL     1      -2.681  13.739  22.348  0.00  0.00    +0.000 NA
ENDBRANCH   5  23
BRANCH   6  25
ATOM     25  N   UNL     1      -1.084  11.863  19.622  0.00  0.00    +0.000 N 
ATOM     26  H   UNL     1      -1.004  12.860  19.801  0.00  0.00    +0.000 HD
BRANCH  25  27
ATOM     27  C   UNL     1      -2.054  11.574  18.627  0.00  0.00    +0.000 A 
ATOM     28  C   UNL     1      -3.401  11.918  18.819  0.00  0.00    +0.000 A 
ATOM     29  C   UNL     1      -4.388  11.659  17.856  0.00  0.00    +0.000 A 
ATOM     30  C   UNL     1      -3.970  11.050  16.675  0.00  0.00    +0.000 A 
ATOM     31  N   UNL     1      -4.655  10.695  15.542  0.00  0.00    +0.000 N 
ATOM     32  N   UNL     1      -3.888  10.125  14.594  0.00  0.00    +0.000 NA
ATOM     33  C   UNL     1      -2.672  10.111  15.148  0.00  0.00    +0.000 A 
ATOM     34  C   UNL     1      -2.651  10.676  16.445  0.00  0.00    +0.000 A 
ATOM     35  C   UNL     1      -1.681  10.920  17.438  0.00  0.00    +0.000 A 
ATOM     36  H   UNL     1      -5.642  10.822  15.350  0.00  0.00    +0.000 HD
ENDBRANCH  25  27
ENDBRANCH   6  25
TORSDOF 6
ENDMDL
MODEL 3
REMARK VINA RESULT:      -8.6      0.573      1.377
REMARK  Name = 
REMARK  7 active torsions:
REMARK  status: ('A' for Active; 'I' for Inactive)
REMARK    1  A    between atoms: C_1  and  C_2
REMARK    2  A    between atoms: C_2  and  N_3
REMARK    3  A    between atoms: N_6  and  C_7
REMARK    4  A    between atoms: C_10  and  N_11
REMARK    5  A    between atoms: C_15  and  C_16
REMARK    6  A    between atoms: C_18  and  N_19
REMARK    7  A    between atoms: N_19  and  C_20
REMARK                            x       y       z     vdW  Elec       q    Type
REMARK                         _______ _______ _______ _____ _____    ______ ____
ROOT
ATOM      1  N   UNL     1       1.433   7.442  21.249  0.00  0.00    +0.000 N 
ATOM      2  C   UNL     1       0.718   8.608  21.512  0.00  0.00    +0.000 A 
ATOM      3  N   UNL     1       0.363   8.809  22.786  0.00  0.00    +0.000 NA
ATOM      4  C   UNL     1      -0.337   9.930  23.047  0.00  0.00    +0.000 A 
ATOM      5  C   UNL     1      -0.720  10.839  22.085  0.00  0.00    +0.000 A 
ATOM      6  C   UNL     1      -0.298  10.583  20.797  0.00  0.00    +0.000 A 
ATOM      7  N   UNL     1       0.422   9.478  20.535  0.00  0.00    +0.000 NA
ATOM      8  H   UNL     1       1.611   6.942  22.107  0.00  0.00    +0.000 HD
ENDROOT
BRANCH   1  12
ATOM      9  C   UNL     1       3.818   6.329  17.905  0.00  0.00    +0.000 A 
ATOM     10  C   UNL     1       3.679   5.495  19.023  0.00  0.00    +0.000 A 
ATOM     11  C   UNL     1       2.862   5.852  20.110  0.00  0.00    +0.000 A 
ATOM     12  C   UNL     1       2.176   7.070  20.122  0.00  0.00    +0.000 A 
ATOM     13  C   UNL     1       2.288   7.875  18.991  0.00  0.00    +0.000 A 
ATOM     14  C   UNL     1       3.105   7.525  17.918  0.00  0.00    +0.000 A 
BRANCH   9  18
ATOM     15  N   UNL     1       6.910   4.526  15.688  0.00  0.00    +0.000 NA
ATOM     16  C   UNL     1       7.069   5.753  16.505  0.00  0.00    +0.000 C 
ATOM     17  C   UNL     1       5.848   6.696  16.518  0.00  0.00    +0.000 C 
ATOM     18  N   UNL     1       4.605   5.974  16.829  0.00  0.00    +0.000 N 
ATOM     19  C   UNL     1       4.388   4.693  16.147  0.00  0.00    +0.000 C 
ATOM     20  C   UNL     1       5.681   3.836  16.162  0.00  0.00    +0.000 C 
BRANCH  15  22
ATOM     21  C   UNL     1       6.240   3.633  13.437  0.00  0.00    +0.000 C 
ATOM     22  C   UNL     1       6.821   4.789  14.244  0.00  0.00    +0.000 C 
ENDBRANCH  15  22
ENDBRANCH   9  18
ENDBRANCH   1  12
BRANCH   5  23
ATOM     23  C   UNL     1      -1.501  11.971  22.435  0.00  0.00    +0.000 C 
ATOM     24  N   UNL     1      -2.137  12.885  22.757  0.00  0.00    +0.000 NA
ENDBRANCH   5  23
BRANCH   6  25
ATOM     25  N   UNL     1      -0.607  11.468  19.731  0.00  0.00    +0.000 N 
ATOM     26  H   UNL     1      -0.393  12.429  19.985  0.00  0.00    +0.000 HD
BRANCH  25  27
ATOM     27  C   UNL     1      -1.740  11.379  18.882  0.00  0.00    +0.000 A 
ATOM     28  C   UNL     1      -1.680  10.654  17.681  0.00  0.00    +0.000 A 
ATOM     29  C   UNL     1      -2.780  10.533  16.820  0.00  0.00    +0.000 A 
ATOM     30  C   UNL     1      -3.961  11.158  17.216  0.00  0.00    +0.000 A 
ATOM     31  N   UNL     1      -5.203  11.209  16.637  0.00  0.00    +0.000 N 
ATOM     32  N   UNL     1      -6.106  11.918  17.339  0.00  0.00    +0.000 NA
ATOM     33  C   UNL     1      -5.410  12.340  18.399  0.00  0.00    +0.000 A 
ATOM     34  C   UNL     1      -4.066  11.899  18.386  0.00  0.00    +0.000 A 
ATOM     35  C   UNL     1      -2.939  12.031  19.224  0.00  0.00    +0.000 A 
ATOM     36  H   UNL     1      -5.500  10.773  15.771  0.00  0.00    +0.000 HD
ENDBRANCH  25  27
ENDBRANCH   6  25
TORSDOF 6
ENDMDL
MODEL 4
REMARK VINA RESULT:      -8.4      4.310      7.380
REMARK  Name = 
REMARK  7 active torsions:
REMARK  status: ('A' for Active; 'I' for Inactive)
REMARK    1  A    between atoms: C_1  and  C_2
REMARK    2  A    between atoms: C_2  and  N_3
REMARK    3  A    between atoms: N_6  and  C_7
REMARK    4  A    between atoms: C_10  and  N_11
REMARK    5  A    between atoms: C_15  and  C_16
REMARK    6  A    between atoms: C_18  and  N_19
REMARK    7  A    between atoms: N_19  and  C_20
REMARK                            x       y       z     vdW  Elec       q    Type
REMARK                         _______ _______ _______ _____ _____    ______ ____
ROOT
ATOM      1  N   UNL     1       6.469   5.497  17.592  0.00  0.00    +0.000 N 
ATOM      2  C   UNL     1       5.268   5.044  18.134  0.00  0.00    +0.000 A 
ATOM      3  N   UNL     1       4.960   3.764  17.902  0.00  0.00    +0.000 NA
ATOM      4  C   UNL     1       3.796   3.322  18.415  0.00  0.00    +0.000 A 
ATOM      5  C   UNL     1       2.916   4.114  19.122  0.00  0.00    +0.000 A 
ATOM      6  C   UNL     1       3.310   5.417  19.346  0.00  0.00    +0.000 A 
ATOM      7  N   UNL     1       4.482   5.856  18.857  0.00  0.00    +0.000 NA
ATOM      8  H   UNL     1       6.951   4.738  17.132  0.00  0.00    +0.000 HD
ENDROOT
BRANCH   1  12
ATOM      9  C   UNL     1       8.637   9.031  18.551  0.00  0.00    +0.000 A 
ATOM     10  C   UNL     1       8.821   7.836  19.260  0.00  0.00    +0.000 A 
ATOM     11  C   UNL     1       8.128   6.663  18.917  0.00  0.00    +0.000 A 
ATOM     12  C   UNL     1       7.207   6.654  17.866  0.00  0.00    +0.000 A 
ATOM     13  C   UNL     1       7.059   7.835  17.140  0.00  0.00    +0.000 A 
ATOM     14  C   UNL     1       7.739   9.000  17.486  0.00  0.00    +0.000 A 
BRANCH   9  18
ATOM     15  N   UNL     1       9.374  13.012  19.705  0.00  0.00    +0.000 NA
ATOM     16  C   UNL     1       8.990  12.593  18.335  0.00  0.00    +0.000 C 
ATOM     17  C   UNL     1       9.565  11.236  17.878  0.00  0.00    +0.000 C 
ATOM     18  N   UNL     1       9.328  10.180  18.873  0.00  0.00    +0.000 N 
ATOM     19  C   UNL     1       9.585  10.517  20.278  0.00  0.00    +0.000 C 
ATOM     20  C   UNL     1       8.995  11.909  20.627  0.00  0.00    +0.000 C 
BRANCH  15  22
ATOM     21  C   UNL     1      11.122  14.814  19.813  0.00  0.00    +0.000 C 
ATOM     22  C   UNL     1      10.805  13.322  19.844  0.00  0.00    +0.000 C 
ENDBRANCH  15  22
ENDBRANCH   9  18
ENDBRANCH   1  12
BRANCH   5  23
ATOM     23  C   UNL     1       1.685   3.583  19.586  0.00  0.00    +0.000 C 
ATOM     24  N   UNL     1       0.680   3.174  19.994  0.00  0.00    +0.000 NA
ENDBRANCH   5  23
BRANCH   6  25
ATOM     25  N   UNL     1       2.498   6.313  20.090  0.00  0.00    +0.000 N 
ATOM     26  H   UNL     1       1.812   5.806  20.643  0.00  0.00    +0.000 HD
BRANCH  25  27
ATOM     27  C   UNL     1       1.997   7.557  19.626  0.00  0.00    +0.000 A 
ATOM     28  C   UNL     1       2.161   7.940  18.285  0.00  0.00    +0.000 A 
ATOM     29  C   UNL     1       1.672   9.155  17.785  0.00  0.00    +0.000 A 
ATOM     30  C   UNL     1       0.991   9.976  18.682  0.00  0.00    +0.000 A 
ATOM     31  N   UNL     1       0.373  11.188  18.517  0.00  0.00    +0.000 N 
ATOM     32  N   UNL     1      -0.193  11.672  19.638  0.00  0.00    +0.000 NA
ATOM     33  C   UNL     1       0.083  10.736  20.551  0.00  0.00    +0.000 A 
ATOM     34  C   UNL     1       0.817   9.649  20.021  0.00  0.00    +0.000 A 
ATOM     35  C   UNL     1       1.341   8.434  20.509  0.00  0.00    +0.000 A 
ATOM     36  H   UNL     1       0.293  11.732  17.665  0.00  0.00    +0.000 HD
ENDBRANCH  25  27
ENDBRANCH   6  25
TORSDOF 6
ENDMDL
MODEL 5
REMARK VINA RESULT:      -8.3      1.160      1.803
REMARK  Name = 
REMARK  7 active torsions:
REMARK  status: ('A' for Active; 'I' for Inactive)
REMARK    1  A    between atoms: C_1  and  C_2
REMARK    2  A    between atoms: C_2  and  N_3
REMARK    3  A    between atoms: N_6  and  C_7
REMARK    4  A    between atoms: C_10  and  N_11
REMARK    5  A    between atoms: C_15  and  C_16
REMARK    6  A    between atoms: C_18  and  N_19
REMARK    7  A    between atoms: N_19  and  C_20
REMARK                            x       y       z     vdW  Elec       q    Type
REMARK                         _______ _______ _______ _____ _____    ______ ____
ROOT
ATOM      1  N   UNL     1       0.770   8.109  21.678  0.00  0.00    +0.000 N 
ATOM      2  C   UNL     1       0.121   9.336  21.793  0.00  0.00    +0.000 A 
ATOM      3  N   UNL     1      -0.176   9.734  23.035  0.00  0.00    +0.000 NA
ATOM      4  C   UNL     1      -0.811  10.916  23.153  0.00  0.00    +0.000 A 
ATOM      5  C   UNL     1      -1.188  11.698  22.083  0.00  0.00    +0.000 A 
ATOM      6  C   UNL     1      -0.826  11.240  20.833  0.00  0.00    +0.000 A 
ATOM      7  N   UNL     1      -0.170  10.073  20.711  0.00  0.00    +0.000 NA
ATOM      8  H   UNL     1       0.957   7.727  22.594  0.00  0.00    +0.000 HD
ENDROOT
BRANCH   1  12
ATOM      9  C   UNL     1       2.963   6.371  18.472  0.00  0.00    +0.000 A 
ATOM     10  C   UNL     1       2.529   5.612  19.568  0.00  0.00    +0.000 A 
ATOM     11  C   UNL     1       1.775   6.183  20.607  0.00  0.00    +0.000 A 
ATOM     12  C   UNL     1       1.452   7.543  20.595  0.00  0.00    +0.000 A 
ATOM     13  C   UNL     1       1.853   8.283  19.484  0.00  0.00    +0.000 A 
ATOM     14  C   UNL     1       2.608   7.718  18.459  0.00  0.00    +0.000 A 
BRANCH   9  18
ATOM     15  N   UNL     1       6.061   4.358  16.452  0.00  0.00    +0.000 NA
ATOM     16  C   UNL     1       6.117   5.779  16.872  0.00  0.00    +0.000 C 
ATOM     17  C   UNL     1       4.780   6.544  16.785  0.00  0.00    +0.000 C 
ATOM     18  N   UNL     1       3.688   5.810  17.442  0.00  0.00    +0.000 N 
ATOM     19  C   UNL     1       3.595   4.370  17.172  0.00  0.00    +0.000 C 
ATOM     20  C   UNL     1       4.993   3.703  17.254  0.00  0.00    +0.000 C 
BRANCH  15  22
ATOM     21  C   UNL     1       6.861   4.798  14.111  0.00  0.00    +0.000 C 
ATOM     22  C   UNL     1       5.800   4.181  15.016  0.00  0.00    +0.000 C 
ENDBRANCH  15  22
ENDBRANCH   9  18
ENDBRANCH   1  12
BRANCH   5  23
ATOM     23  C   UNL     1      -1.900  12.907  22.291  0.00  0.00    +0.000 C 
ATOM     24  N   UNL     1      -2.510  13.882  22.439  0.00  0.00    +0.000 NA
ENDBRANCH   5  23
BRANCH   6  25
ATOM     25  N   UNL     1      -1.133  11.980  19.661  0.00  0.00    +0.000 N 
ATOM     26  H   UNL     1      -0.847  12.950  19.760  0.00  0.00    +0.000 HD
BRANCH  25  27
ATOM     27  C   UNL     1      -2.312  11.847  18.883  0.00  0.00    +0.000 A 
ATOM     28  C   UNL     1      -2.254  11.341  17.574  0.00  0.00    +0.000 A 
ATOM     29  C   UNL     1      -3.397  11.185  16.776  0.00  0.00    +0.000 A 
ATOM     30  C   UNL     1      -4.617  11.543  17.348  0.00  0.00    +0.000 A 
ATOM     31  N   UNL     1      -5.899  11.487  16.866  0.00  0.00    +0.000 N 
ATOM     32  N   UNL     1      -6.830  11.923  17.734  0.00  0.00    +0.000 NA
ATOM     33  C   UNL     1      -6.112  12.277  18.804  0.00  0.00    +0.000 A 
ATOM     34  C   UNL     1      -4.724  12.063  18.632  0.00  0.00    +0.000 A 
ATOM     35  C   UNL     1      -3.559  12.238  19.406  0.00  0.00    +0.000 A 
ATOM     36  H   UNL     1      -6.205  11.153  15.959  0.00  0.00    +0.000 HD
ENDBRANCH  25  27
ENDBRANCH   6  25
TORSDOF 6
ENDMDL
MODEL 6
REMARK VINA RESULT:      -8.3      4.500      7.522
REMARK  Name = 
REMARK  7 active torsions:
REMARK  status: ('A' for Active; 'I' for Inactive)
REMARK    1  A    between atoms: C_1  and  C_2
REMARK    2  A    between atoms: C_2  and  N_3
REMARK    3  A    between atoms: N_6  and  C_7
REMARK    4  A    between atoms: C_10  and  N_11
REMARK    5  A    between atoms: C_15  and  C_16
REMARK    6  A    between atoms: C_18  and  N_19
REMARK    7  A    between atoms: N_19  and  C_20
REMARK                            x       y       z     vdW  Elec       q    Type
REMARK                         _______ _______ _______ _____ _____    ______ ____
ROOT
ATOM      1  N   UNL     1       6.810   5.776  17.664  0.00  0.00    +0.000 N 
ATOM      2  C   UNL     1       5.662   5.218  18.220  0.00  0.00    +0.000 A 
ATOM      3  N   UNL     1       5.494   3.904  18.035  0.00  0.00    +0.000 NA
ATOM      4  C   UNL     1       4.381   3.359  18.563  0.00  0.00    +0.000 A 
ATOM      5  C   UNL     1       3.418   4.078  19.238  0.00  0.00    +0.000 A 
ATOM      6  C   UNL     1       3.668   5.423  19.414  0.00  0.00    +0.000 A 
ATOM      7  N   UNL     1       4.790   5.966  18.911  0.00  0.00    +0.000 NA
ATOM      8  H   UNL     1       7.373   5.057  17.233  0.00  0.00    +0.000 HD
ENDROOT
BRANCH   1  12
ATOM      9  C   UNL     1       8.588   9.551  18.497  0.00  0.00    +0.000 A 
ATOM     10  C   UNL     1       8.930   8.399  19.217  0.00  0.00    +0.000 A 
ATOM     11  C   UNL     1       8.366   7.148  18.915  0.00  0.00    +0.000 A 
ATOM     12  C   UNL     1       7.419   7.015  17.895  0.00  0.00    +0.000 A 
ATOM     13  C   UNL     1       7.114   8.157  17.158  0.00  0.00    +0.000 A 
ATOM     14  C   UNL     1       7.666   9.399  17.464  0.00  0.00    +0.000 A 
BRANCH   9  18
ATOM     15  N   UNL     1      11.339  12.739  18.480  0.00  0.00    +0.000 NA
ATOM     16  C   UNL     1      11.477  11.516  19.306  0.00  0.00    +0.000 C 
ATOM     17  C   UNL     1      10.154  10.933  19.845  0.00  0.00    +0.000 C 
ATOM     18  N   UNL     1       9.152  10.777  18.779  0.00  0.00    +0.000 N 
ATOM     19  C   UNL     1       8.998  11.895  17.840  0.00  0.00    +0.000 C 
ATOM     20  C   UNL     1      10.383  12.426  17.384  0.00  0.00    +0.000 C 
BRANCH  15  22
ATOM     21  C   UNL     1      11.021  15.231  18.490  0.00  0.00    +0.000 C 
ATOM     22  C   UNL     1      10.876  13.911  19.239  0.00  0.00    +0.000 C 
ENDBRANCH  15  22
ENDBRANCH   9  18
ENDBRANCH   1  12
BRANCH   5  23
ATOM     23  C   UNL     1       2.247   3.436  19.720  0.00  0.00    +0.000 C 
ATOM     24  N   UNL     1       1.290   2.937  20.142  0.00  0.00    +0.000 NA
ENDBRANCH   5  23
BRANCH   6  25
ATOM     25  N   UNL     1       2.761   6.253  20.123  0.00  0.00    +0.000 N 
ATOM     26  H   UNL     1       2.104   5.695  20.661  0.00  0.00    +0.000 HD
BRANCH  25  27
ATOM     27  C   UNL     1       2.171   7.446  19.630  0.00  0.00    +0.000 A 
ATOM     28  C   UNL     1       2.303   7.805  18.279  0.00  0.00    +0.000 A 
ATOM     29  C   UNL     1       1.727   8.969  17.750  0.00  0.00    +0.000 A 
ATOM     30  C   UNL     1       0.992   9.762  18.629  0.00  0.00    +0.000 A 
ATOM     31  N   UNL     1       0.289  10.923  18.436  0.00  0.00    +0.000 N 
ATOM     32  N   UNL     1      -0.306  11.394  19.547  0.00  0.00    +0.000 NA
ATOM     33  C   UNL     1       0.039  10.504  20.483  0.00  0.00    +0.000 A 
ATOM     34  C   UNL     1       0.846   9.459  19.977  0.00  0.00    +0.000 A 
ATOM     35  C   UNL     1       1.458   8.297  20.493  0.00  0.00    +0.000 A 
ATOM     36  H   UNL     1       0.168  11.437  17.570  0.00  0.00    +0.000 HD
ENDBRANCH  25  27
ENDBRANCH   6  25
TORSDOF 6
ENDMDL
MODEL 7
REMARK VINA RESULT:      -8.2      2.646      3.758
REMARK  Name = 
REMARK  7 active torsions:
REMARK  status: ('A' for Active; 'I' for Inactive)
REMARK    1  A    between atoms: C_1  and  C_2
REMARK    2  A    between atoms: C_2  and  N_3
REMARK    3  A    between atoms: N_6  and  C_7
REMARK    4  A    between atoms: C_10  and  N_11
REMARK    5  A    between atoms: C_15  and  C_16
REMARK    6  A    between atoms: C_18  and  N_19
REMARK    7  A    between atoms: N_19  and  C_20
REMARK                            x       y       z     vdW  Elec       q    Type
REMARK                         _______ _______ _______ _____ _____    ______ ____
ROOT
ATOM      1  N   UNL     1       1.276   7.677  21.118  0.00  0.00    +0.000 N 
ATOM      2  C   UNL     1       0.635   8.888  21.364  0.00  0.00    +0.000 A 
ATOM      3  N   UNL     1       0.192   9.081  22.611  0.00  0.00    +0.000 NA
ATOM      4  C   UNL     1      -0.437  10.247  22.854  0.00  0.00    +0.000 A 
ATOM      5  C   UNL     1      -0.667  11.211  21.896  0.00  0.00    +0.000 A 
ATOM      6  C   UNL     1      -0.161  10.958  20.639  0.00  0.00    +0.000 A 
ATOM      7  N   UNL     1       0.489   9.807  20.397  0.00  0.00    +0.000 NA
ATOM      8  H   UNL     1       1.343   7.139  21.970  0.00  0.00    +0.000 HD
ENDROOT
BRANCH   1  12
ATOM      9  C   UNL     1       3.838   6.484  17.936  0.00  0.00    +0.000 A 
ATOM     10  C   UNL     1       3.631   5.674  19.061  0.00  0.00    +0.000 A 
ATOM     11  C   UNL     1       2.757   6.057  20.093  0.00  0.00    +0.000 A 
ATOM     12  C   UNL     1       2.079   7.278  20.043  0.00  0.00    +0.000 A 
ATOM     13  C   UNL     1       2.259   8.060  18.903  0.00  0.00    +0.000 A 
ATOM     14  C   UNL     1       3.132   7.684  17.885  0.00  0.00    +0.000 A 
BRANCH   9  18
ATOM     15  N   UNL     1       7.056   4.647  15.938  0.00  0.00    +0.000 NA
ATOM     16  C   UNL     1       7.161   5.902  16.719  0.00  0.00    +0.000 C 
ATOM     17  C   UNL     1       5.931   6.830  16.640  0.00  0.00    +0.000 C 
ATOM     18  N   UNL     1       4.681   6.104  16.913  0.00  0.00    +0.000 N 
ATOM     19  C   UNL     1       4.513   4.798  16.264  0.00  0.00    +0.000 C 
ATOM     20  C   UNL     1       5.812   3.958  16.373  0.00  0.00    +0.000 C 
BRANCH  15  22
ATOM     21  C   UNL     1       6.322   3.763  13.703  0.00  0.00    +0.000 C 
ATOM     22  C   UNL     1       7.036   4.862  14.482  0.00  0.00    +0.000 C 
ENDBRANCH  15  22
ENDBRANCH   9  18
ENDBRANCH   1  12
BRANCH   5  23
ATOM     23  C   UNL     1      -1.384  12.392  22.223  0.00  0.00    +0.000 C 
ATOM     24  N   UNL     1      -1.977  13.341  22.522  0.00  0.00    +0.000 NA
ENDBRANCH   5  23
BRANCH   6  25
ATOM     25  N   UNL     1      -0.310  11.896  19.583  0.00  0.00    +0.000 N 
ATOM     26  H   UNL     1      -0.801  11.480  18.797  0.00  0.00    +0.000 HD
BRANCH  25  27
ATOM     27  C   UNL     1       0.667  12.837  19.167  0.00  0.00    +0.000 A 
ATOM     28  C   UNL     1       1.887  12.410  18.621  0.00  0.00    +0.000 A 
ATOM     29  C   UNL     1       2.874  13.308  18.189  0.00  0.00    +0.000 A 
ATOM     30  C   UNL     1       2.585  14.666  18.310  0.00  0.00    +0.000 A 
ATOM     31  N   UNL     1       3.299  15.783  17.962  0.00  0.00    +0.000 N 
ATOM     32  N   UNL     1       2.671  16.941  18.234  0.00  0.00    +0.000 NA
ATOM     33  C   UNL     1       1.518  16.546  18.783  0.00  0.00    +0.000 A 
ATOM     34  C   UNL     1       1.399  15.139  18.858  0.00  0.00    +0.000 A 
ATOM     35  C   UNL     1       0.432  14.217  19.312  0.00  0.00    +0.000 A 
ATOM     36  H   UNL     1       4.214  15.822  17.526  0.00  0.00    +0.000 HD
ENDBRANCH  25  27
ENDBRANCH   6  25
TORSDOF 6
ENDMDL
MODEL 8
REMARK VINA RESULT:      -8.2      3.320      9.225
REMARK  Name = 
REMARK  7 active torsions:
REMARK  status: ('A' for Active; 'I' for Inactive)
REMARK    1  A    between atoms: C_1  and  C_2
REMARK    2  A    between atoms: C_2  and  N_3
REMARK    3  A    between atoms: N_6  and  C_7
REMARK    4  A    between atoms: C_10  and  N_11
REMARK    5  A    between atoms: C_15  and  C_16
REMARK    6  A    between atoms: C_18  and  N_19
REMARK    7  A    between atoms: N_19  and  C_20
REMARK                            x       y       z     vdW  Elec       q    Type
REMARK                         _______ _______ _______ _____ _____    ______ ____
ROOT
ATOM      1  N   UNL     1       0.975   6.979  20.546  0.00  0.00    +0.000 N 
ATOM      2  C   UNL     1       1.819   5.884  20.376  0.00  0.00    +0.000 A 
ATOM      3  N   UNL     1       1.264   4.678  20.535  0.00  0.00    +0.000 NA
ATOM      4  C   UNL     1       2.077   3.615  20.381  0.00  0.00    +0.000 A 
ATOM      5  C   UNL     1       3.424   3.710  20.107  0.00  0.00    +0.000 A 
ATOM      6  C   UNL     1       3.925   4.983  19.930  0.00  0.00    +0.000 A 
ATOM      7  N   UNL     1       3.112   6.046  20.058  0.00  0.00    +0.000 NA
ATOM      8  H   UNL     1       0.032   6.666  20.724  0.00  0.00    +0.000 HD
ENDROOT
BRANCH   1  12
ATOM      9  C   UNL     1       1.360  11.080  19.478  0.00  0.00    +0.000 A 
ATOM     10  C   UNL     1       0.984  10.685  20.769  0.00  0.00    +0.000 A 
ATOM     11  C   UNL     1       0.892   9.329  21.126  0.00  0.00    +0.000 A 
ATOM     12  C   UNL     1       1.150   8.322  20.192  0.00  0.00    +0.000 A 
ATOM     13  C   UNL     1       1.562   8.722  18.922  0.00  0.00    +0.000 A 
ATOM     14  C   UNL     1       1.643  10.066  18.566  0.00  0.00    +0.000 A 
BRANCH   9  18
ATOM     15  N   UNL     1       2.744  15.056  19.421  0.00  0.00    +0.000 NA
ATOM     16  C   UNL     1       1.817  14.505  20.438  0.00  0.00    +0.000 C 
ATOM     17  C   UNL     1       0.806  13.464  19.912  0.00  0.00    +0.000 C 
ATOM     18  N   UNL     1       1.468  12.409  19.129  0.00  0.00    +0.000 N 
ATOM     19  C   UNL     1       2.479  12.837  18.154  0.00  0.00    +0.000 C 
ATOM     20  C   UNL     1       3.422  13.903  18.771  0.00  0.00    +0.000 C 
BRANCH  15  22
ATOM     21  C   UNL     1       3.037  16.609  17.467  0.00  0.00    +0.000 C 
ATOM     22  C   UNL     1       2.077  15.890  18.409  0.00  0.00    +0.000 C 
ENDBRANCH  15  22
ENDBRANCH   9  18
ENDBRANCH   1  12
BRANCH   5  23
ATOM     23  C   UNL     1       4.223   2.541  20.010  0.00  0.00    +0.000 C 
ATOM     24  N   UNL     1       4.854   1.571  19.958  0.00  0.00    +0.000 NA
ENDBRANCH   5  23
BRANCH   6  25
ATOM     25  N   UNL     1       5.292   5.198  19.612  0.00  0.00    +0.000 N 
ATOM     26  H   UNL     1       5.713   5.863  20.255  0.00  0.00    +0.000 HD
BRANCH  25  27
ATOM     27  C   UNL     1       5.830   5.306  18.303  0.00  0.00    +0.000 A 
ATOM     28  C   UNL     1       6.767   6.304  17.994  0.00  0.00    +0.000 A 
ATOM     29  C   UNL     1       7.331   6.437  16.716  0.00  0.00    +0.000 A 
ATOM     30  C   UNL     1       6.929   5.514  15.752  0.00  0.00    +0.000 A 
ATOM     31  N   UNL     1       7.300   5.345  14.444  0.00  0.00    +0.000 N 
ATOM     32  N   UNL     1       6.686   4.318  13.829  0.00  0.00    +0.000 NA
ATOM     33  C   UNL     1       5.889   3.821  14.779  0.00  0.00    +0.000 A 
ATOM     34  C   UNL     1       5.993   4.519  16.005  0.00  0.00    +0.000 A 
ATOM     35  C   UNL     1       5.419   4.421  17.289  0.00  0.00    +0.000 A 
ATOM     36  H   UNL     1       7.974   5.889  13.916  0.00  0.00    +0.000 HD
ENDBRANCH  25  27
ENDBRANCH   6  25
TORSDOF 6
ENDMDL
MODEL 9
REMARK VINA RESULT:      -8.1      4.579      7.709
REMARK  Name = 
REMARK  7 active torsions:
REMARK  status: ('A' for Active; 'I' for Inactive)
REMARK    1  A    between atoms: C_1  and  C_2
REMARK    2  A    between atoms: C_2  and  N_3
REMARK    3  A    between atoms: N_6  and  C_7
REMARK    4  A    between atoms: C_10  and  N_11
REMARK    5  A    between atoms: C_15  and  C_16
REMARK    6  A    between atoms: C_18  and  N_19
REMARK    7  A    between atoms: N_19  and  C_20
REMARK                            x       y       z     vdW  Elec       q    Type
REMARK                         _______ _______ _______ _____ _____    ______ ____
ROOT
ATOM      1  N   UNL     1       6.739   5.969  17.415  0.00  0.00    +0.000 N 
ATOM      2  C   UNL     1       5.619   5.326  17.937  0.00  0.00    +0.000 A 
ATOM      3  N   UNL     1       5.455   4.045  17.587  0.00  0.00    +0.000 NA
ATOM      4  C   UNL     1       4.369   3.420  18.081  0.00  0.00    +0.000 A 
ATOM      5  C   UNL     1       3.428   4.029  18.881  0.00  0.00    +0.000 A 
ATOM      6  C   UNL     1       3.673   5.343  19.224  0.00  0.00    +0.000 A 
ATOM      7  N   UNL     1       4.768   5.964  18.754  0.00  0.00    +0.000 NA
ATOM      8  H   UNL     1       7.290   5.321  16.872  0.00  0.00    +0.000 HD
ENDROOT
BRANCH   1  12
ATOM      9  C   UNL     1       8.651   9.639  18.406  0.00  0.00    +0.000 A 
ATOM     10  C   UNL     1       7.656   9.566  17.422  0.00  0.00    +0.000 A 
ATOM     11  C   UNL     1       7.003   8.359  17.123  0.00  0.00    +0.000 A 
ATOM     12  C   UNL     1       7.345   7.175  17.784  0.00  0.00    +0.000 A 
ATOM     13  C   UNL     1       8.307   7.262  18.788  0.00  0.00    +0.000 A 
ATOM     14  C   UNL     1       8.960   8.458  19.077  0.00  0.00    +0.000 A 
BRANCH   9  18
ATOM     15  N   UNL     1      11.603  12.310  19.775  0.00  0.00    +0.000 NA
ATOM     16  C   UNL     1      10.657  11.584  20.655  0.00  0.00    +0.000 C 
ATOM     17  C   UNL     1       9.241  11.384  20.074  0.00  0.00    +0.000 C 
ATOM     18  N   UNL     1       9.282  10.825  18.714  0.00  0.00    +0.000 N 
ATOM     19  C   UNL     1      10.255  11.408  17.783  0.00  0.00    +0.000 C 
ATOM     20  C   UNL     1      11.633  11.595  18.472  0.00  0.00    +0.000 C 
BRANCH  15  22
ATOM     21  C   UNL     1      12.333  14.543  18.882  0.00  0.00    +0.000 C 
ATOM     22  C   UNL     1      11.248  13.724  19.572  0.00  0.00    +0.000 C 
ENDBRANCH  15  22
ENDBRANCH   9  18
ENDBRANCH   1  12
BRANCH   5  23
ATOM     23  C   UNL     1       2.283   3.313  19.320  0.00  0.00    +0.000 C 
ATOM     24  N   UNL     1       1.349   2.710  19.645  0.00  0.00    +0.000 NA
ENDBRANCH   5  23
BRANCH   6  25
ATOM     25  N   UNL     1       2.787   6.060  20.070  0.00  0.00    +0.000 N 
ATOM     26  H   UNL     1       2.158   5.427  20.555  0.00  0.00    +0.000 HD
BRANCH  25  27
ATOM     27  C   UNL     1       2.166   7.298  19.761  0.00  0.00    +0.000 A 
ATOM     28  C   UNL     1       2.244   7.835  18.466  0.00  0.00    +0.000 A 
ATOM     29  C   UNL     1       1.636   9.050  18.117  0.00  0.00    +0.000 A 
ATOM     30  C   UNL     1       0.925   9.708  19.119  0.00  0.00    +0.000 A 
ATOM     31  N   UNL     1       0.203  10.873  19.107  0.00  0.00    +0.000 N 
ATOM     32  N   UNL     1      -0.357  11.182  20.291  0.00  0.00    +0.000 NA
ATOM     33  C   UNL     1       0.032  10.182  21.087  0.00  0.00    +0.000 A 
ATOM     34  C   UNL     1       0.832   9.226  20.419  0.00  0.00    +0.000 A 
ATOM     35  C   UNL     1       1.475   8.016  20.754  0.00  0.00    +0.000 A 
ATOM     36  H   UNL     1       0.044  11.495  18.322  0.00  0.00    +0.000 HD
ENDBRANCH  25  27
ENDBRANCH   6  25
TORSDOF 6
ENDMDL
