MODEL 1
REMARK VINA RESULT:      -7.2      0.000      0.000
REMARK  Name = 
REMARK  14 active torsions:
REMARK  status: ('A' for Active; 'I' for Inactive)
REMARK    1  A    between atoms: C_1  and  C_2
REMARK    2  A    between atoms: C_5  and  C_6
REMARK    3  A    between atoms: C_11  and  C_12
REMARK    4  A    between atoms: C_12  and  N_13
REMARK    5  A    between atoms: N_13  and  C_14
REMARK    6  A    between atoms: N_13  and  C_21
REMARK    7  A    between atoms: C_14  and  C_15
REMARK    8  A    between atoms: C_21  and  N_23
REMARK    9  A    between atoms: N_23  and  C_24
REMARK   10  A    between atoms: C_24  and  C_25
REMARK   11  A    between atoms: C_25  and  C_26
REMARK   12  A    between atoms: C_26  and  N_27
REMARK   13  A    between atoms: N_27  and  C_28
REMARK   14  A    between atoms: N_27  and  C_29
REMARK                            x       y       z     vdW  Elec       q    Type
REMARK                         _______ _______ _______ _____ _____    ______ ____
ROOT
ATOM      1  N   UNL     1       6.788   5.981  16.628  0.00  0.00    +0.000 N 
ENDROOT
BRANCH   1   2
ATOM      2  C   UNL     1       7.238   6.527  17.860  0.00  0.00    +0.000 C 
ATOM      3  S   UNL     1       7.521   5.650  19.265  0.00  0.00    +0.000 S 
BRANCH   2   4
ATOM      4  N   UNL     1       7.440   7.892  17.772  0.00  0.00    +0.000 N 
ATOM      5  H   UNL     1       6.646   8.442  17.476  0.00  0.00    +0.000 HD
BRANCH   4   6
ATOM      6  C   UNL     1       8.665   8.635  18.096  0.00  0.00    +0.000 C 
BRANCH   6   7
ATOM      7  C   UNL     1       8.344  10.120  18.245  0.00  0.00    +0.000 C 
BRANCH   7   8
ATOM      8  C   UNL     1       9.446  10.912  18.958  0.00  0.00    +0.000 C 
BRANCH   8   9
ATOM      9  N   UNL     1      10.413  11.577  18.068  0.00  0.00    +0.000 NA
ATOM     10  C   UNL     1       9.930  12.878  17.597  0.00  0.00    +0.000 C 
ATOM     11  C   UNL     1      11.693  11.749  18.760  0.00  0.00    +0.000 C 
ENDBRANCH   8   9
ENDBRANCH   7   8
ENDBRANCH   6   7
ENDBRANCH   4   6
ENDBRANCH   2   4
ENDBRANCH   1   2
BRANCH   1  12
ATOM     12  C   UNL     1       5.433   6.376  16.172  0.00  0.00    +0.000 C 
BRANCH  12  23
ATOM     13  C   UNL     1       2.309   2.123  17.739  0.00  0.00    +0.000 C 
ATOM     14  C   UNL     1       2.168   3.297  18.665  0.00  0.00    +0.000 A 
ATOM     15  C   UNL     1       1.288   3.191  19.758  0.00  0.00    +0.000 A 
ATOM     16  C   UNL     1       1.046   4.283  20.593  0.00  0.00    +0.000 A 
ATOM     17  C   UNL     1       1.600   5.533  20.308  0.00  0.00    +0.000 A 
ATOM     18  C   UNL     1       1.325   6.682  21.236  0.00  0.00    +0.000 C 
ATOM     19  C   UNL     1       2.414   5.653  19.168  0.00  0.00    +0.000 A 
ATOM     20  N   UNL     1       2.750   6.918  18.656  0.00  0.00    +0.000 N 
ATOM     21  C   UNL     1       3.408   7.075  17.466  0.00  0.00    +0.000 A 
ATOM     22  O   UNL     1       3.348   8.117  16.823  0.00  0.00    +0.000 OA
ATOM     23  C   UNL     1       4.271   5.927  17.028  0.00  0.00    +0.000 A 
ATOM     24  C   UNL     1       3.916   4.708  17.460  0.00  0.00    +0.000 A 
ATOM     25  C   UNL     1       2.803   4.527  18.421  0.00  0.00    +0.000 A 
ATOM     26  H   UNL     1       2.240   7.729  18.979  0.00  0.00    +0.000 HD
ENDBRANCH  12  23
ENDBRANCH   1  12
BRANCH   1  27
ATOM     27  C   UNL     1       7.756   5.659  15.560  0.00  0.00    +0.000 C 
BRANCH  27  28
ATOM     28  C   UNL     1       7.147   4.877  14.413  0.00  0.00    +0.000 A 
ATOM     29  C   UNL     1       7.620   5.085  13.108  0.00  0.00    +0.000 A 
ATOM     30  C   UNL     1       7.072   4.381  12.034  0.00  0.00    +0.000 A 
ATOM     31  C   UNL     1       6.056   3.455  12.246  0.00  0.00    +0.000 A 
ATOM     32  C   UNL     1       5.599   3.214  13.544  0.00  0.00    +0.000 A 
ATOM     33  C   UNL     1       6.147   3.914  14.616  0.00  0.00    +0.000 A 
ENDBRANCH  27  28
ENDBRANCH   1  27
TORSDOF 10
ENDMDL
MODEL 2
REMARK VINA RESULT:      -7.1      4.197      7.578
REMARK  Name = 
REMARK  14 active torsions:
REMARK  status: ('A' for Active; 'I' for Inactive)
REMARK    1  A    between atoms: C_1  and  C_2
REMARK    2  A    between atoms: C_5  and  C_6
REMARK    3  A    between atoms: C_11  and  C_12
REMARK    4  A    between atoms: C_12  and  N_13
REMARK    5  A    between atoms: N_13  and  C_14
REMARK    6  A    between atoms: N_13  and  C_21
REMARK    7  A    between atoms: C_14  and  C_15
REMARK    8  A    between atoms: C_21  and  N_23
REMARK    9  A    between atoms: N_23  and  C_24
REMARK   10  A    between atoms: C_24  and  C_25
REMARK   11  A    between atoms: C_25  and  C_26
REMARK   12  A    between atoms: C_26  and  N_27
REMARK   13  A    between atoms: N_27  and  C_28
REMARK   14  A    between atoms: N_27  and  C_29
REMARK                            x       y       z     vdW  Elec       q    Type
REMARK                         _______ _______ _______ _____ _____    ______ ____
ROOT
ATOM      1  N   UNL     1       2.238   7.310  18.525  0.00  0.00    +0.000 N 
ENDROOT
BRANCH   1   2
ATOM      2  C   UNL     1       2.053   7.114  19.920  0.00  0.00    +0.000 C 
ATOM      3  S   UNL     1       1.481   8.272  20.996  0.00  0.00    +0.000 S 
BRANCH   2   4
ATOM      4  N   UNL     1       2.386   5.829  20.306  0.00  0.00    +0.000 N 
ATOM      5  H   UNL     1       3.366   5.589  20.257  0.00  0.00    +0.000 HD
BRANCH   4   6
ATOM      6  C   UNL     1       1.483   4.787  20.813  0.00  0.00    +0.000 C 
BRANCH   6   7
ATOM      7  C   UNL     1       1.147   3.806  19.694  0.00  0.00    +0.000 C 
BRANCH   7   8
ATOM      8  C   UNL     1       1.664   2.386  19.955  0.00  0.00    +0.000 C 
BRANCH   8   9
ATOM      9  N   UNL     1       2.700   1.918  19.019  0.00  0.00    +0.000 NA
ATOM     10  C   UNL     1       2.597   2.562  17.707  0.00  0.00    +0.000 C 
ATOM     11  C   UNL     1       4.031   2.161  19.583  0.00  0.00    +0.000 C 
ENDBRANCH   8   9
ENDBRANCH   7   8
ENDBRANCH   6   7
ENDBRANCH   4   6
ENDBRANCH   2   4
ENDBRANCH   1   2
BRANCH   1  12
ATOM     12  C   UNL     1       2.407   8.708  18.059  0.00  0.00    +0.000 C 
BRANCH  12  23
ATOM     13  C   UNL     1      -2.707   9.307  16.110  0.00  0.00    +0.000 C 
ATOM     14  C   UNL     1      -2.450  10.190  17.298  0.00  0.00    +0.000 A 
ATOM     15  C   UNL     1      -3.480  11.038  17.743  0.00  0.00    +0.000 A 
ATOM     16  C   UNL     1      -3.265  11.947  18.779  0.00  0.00    +0.000 A 
ATOM     17  C   UNL     1      -1.993  12.102  19.336  0.00  0.00    +0.000 A 
ATOM     18  C   UNL     1      -1.802  13.085  20.457  0.00  0.00    +0.000 C 
ATOM     19  C   UNL     1      -0.947  11.310  18.832  0.00  0.00    +0.000 A 
ATOM     20  N   UNL     1       0.393  11.619  19.123  0.00  0.00    +0.000 N 
ATOM     21  C   UNL     1       1.440  10.969  18.529  0.00  0.00    +0.000 A 
ATOM     22  O   UNL     1       2.556  11.470  18.450  0.00  0.00    +0.000 OA
ATOM     23  C   UNL     1       1.167   9.573  18.047  0.00  0.00    +0.000 A 
ATOM     24  C   UNL     1      -0.099   9.291  17.704  0.00  0.00    +0.000 A 
ATOM     25  C   UNL     1      -1.188  10.273  17.912  0.00  0.00    +0.000 A 
ATOM     26  H   UNL     1       0.613  12.524  19.517  0.00  0.00    +0.000 HD
ENDBRANCH  12  23
ENDBRANCH   1  12
BRANCH   1  27
ATOM     27  C   UNL     1       2.912   6.277  17.713  0.00  0.00    +0.000 C 
BRANCH  27  28
ATOM     28  C   UNL     1       4.419   6.268  17.881  0.00  0.00    +0.000 A 
ATOM     29  C   UNL     1       5.210   7.085  17.059  0.00  0.00    +0.000 A 
ATOM     30  C   UNL     1       6.600   7.091  17.191  0.00  0.00    +0.000 A 
ATOM     31  C   UNL     1       7.218   6.293  18.148  0.00  0.00    +0.000 A 
ATOM     32  C   UNL     1       6.440   5.501  18.995  0.00  0.00    +0.000 A 
ATOM     33  C   UNL     1       5.053   5.496  18.865  0.00  0.00    +0.000 A 
ENDBRANCH  27  28
ENDBRANCH   1  27
TORSDOF 10
ENDMDL
MODEL 3
REMARK VINA RESULT:      -7.1      0.735      1.225
REMARK  Name = 
REMARK  14 active torsions:
REMARK  status: ('A' for Active; 'I' for Inactive)
REMARK    1  A    between atoms: C_1  and  C_2
REMARK    2  A    between atoms: C_5  and  C_6
REMARK    3  A    between atoms: C_11  and  C_12
REMARK    4  A    between atoms: C_12  and  N_13
REMARK    5  A    between atoms: N_13  and  C_14
REMARK    6  A    between atoms: N_13  and  C_21
REMARK    7  A    between atoms: C_14  and  C_15
REMARK    8  A    between atoms: C_21  and  N_23
REMARK    9  A    between atoms: N_23  and  C_24
REMARK   10  A    between atoms: C_24  and  C_25
REMARK   11  A    between atoms: C_25  and  C_26
REMARK   12  A    between atoms: C_26  and  N_27
REMARK   13  A    between atoms: N_27  and  C_28
REMARK   14  A    between atoms: N_27  and  C_29
REMARK                            x       y       z     vdW  Elec       q    Type
REMARK                         _______ _______ _______ _____ _____    ______ ____
ROOT
ATOM      1  N   UNL     1       6.867   5.485  16.978  0.00  0.00    +0.000 N 
ENDROOT
BRANCH   1   2
ATOM      2  C   UNL     1       7.551   6.397  17.825  0.00  0.00    +0.000 C 
ATOM      3  S   UNL     1       8.032   6.083  19.404  0.00  0.00    +0.000 S 
BRANCH   2   4
ATOM      4  N   UNL     1       7.802   7.598  17.188  0.00  0.00    +0.000 N 
ATOM      5  H   UNL     1       8.208   7.537  16.265  0.00  0.00    +0.000 HD
BRANCH   4   6
ATOM      6  C   UNL     1       7.512   8.949  17.685  0.00  0.00    +0.000 C 
BRANCH   6   7
ATOM      7  C   UNL     1       8.725   9.496  18.433  0.00  0.00    +0.000 C 
BRANCH   7   8
ATOM      8  C   UNL     1       8.932  11.002  18.238  0.00  0.00    +0.000 C 
BRANCH   8   9
ATOM      9  N   UNL     1       9.727  11.665  19.285  0.00  0.00    +0.000 NA
ATOM     10  C   UNL     1       9.373  11.199  20.629  0.00  0.00    +0.000 C 
ATOM     11  C   UNL     1      11.156  11.439  19.048  0.00  0.00    +0.000 C 
ENDBRANCH   8   9
ENDBRANCH   7   8
ENDBRANCH   6   7
ENDBRANCH   4   6
ENDBRANCH   2   4
ENDBRANCH   1   2
BRANCH   1  12
ATOM     12  C   UNL     1       5.579   5.940  16.399  0.00  0.00    +0.000 C 
BRANCH  12  23
ATOM     13  C   UNL     1       1.970   2.082  17.948  0.00  0.00    +0.000 C 
ATOM     14  C   UNL     1       1.893   3.307  18.815  0.00  0.00    +0.000 A 
ATOM     15  C   UNL     1       0.947   3.336  19.856  0.00  0.00    +0.000 A 
ATOM     16  C   UNL     1       0.767   4.483  20.630  0.00  0.00    +0.000 A 
ATOM     17  C   UNL     1       1.456   5.660  20.328  0.00  0.00    +0.000 A 
ATOM     18  C   UNL     1       1.244   6.873  21.190  0.00  0.00    +0.000 C 
ATOM     19  C   UNL     1       2.341   5.649  19.236  0.00  0.00    +0.000 A 
ATOM     20  N   UNL     1       2.828   6.851  18.693  0.00  0.00    +0.000 N 
ATOM     21  C   UNL     1       3.563   6.889  17.540  0.00  0.00    +0.000 A 
ATOM     22  O   UNL     1       3.642   7.901  16.852  0.00  0.00    +0.000 OA
ATOM     23  C   UNL     1       4.333   5.644  17.202  0.00  0.00    +0.000 A 
ATOM     24  C   UNL     1       3.836   4.486  17.661  0.00  0.00    +0.000 A 
ATOM     25  C   UNL     1       2.659   4.457  18.559  0.00  0.00    +0.000 A 
ATOM     26  H   UNL     1       2.383   7.721  18.951  0.00  0.00    +0.000 HD
ENDBRANCH  12  23
ENDBRANCH   1  12
BRANCH   1  27
ATOM     27  C   UNL     1       7.626   4.510  16.168  0.00  0.00    +0.000 C 
BRANCH  27  28
ATOM     28  C   UNL     1       7.183   4.459  14.719  0.00  0.00    +0.000 A 
ATOM     29  C   UNL     1       6.076   3.673  14.363  0.00  0.00    +0.000 A 
ATOM     30  C   UNL     1       5.651   3.604  13.035  0.00  0.00    +0.000 A 
ATOM     31  C   UNL     1       6.315   4.325  12.048  0.00  0.00    +0.000 A 
ATOM     32  C   UNL     1       7.397   5.138  12.393  0.00  0.00    +0.000 A 
ATOM     33  C   UNL     1       7.820   5.208  13.719  0.00  0.00    +0.000 A 
ENDBRANCH  27  28
ENDBRANCH   1  27
TORSDOF 10
ENDMDL
MODEL 4
REMARK VINA RESULT:      -7.1      3.572      6.461
REMARK  Name = 
REMARK  14 active torsions:
REMARK  status: ('A' for Active; 'I' for Inactive)
REMARK    1  A    between atoms: C_1  and  C_2
REMARK    2  A    between atoms: C_5  and  C_6
REMARK    3  A    between atoms: C_11  and  C_12
REMARK    4  A    between atoms: C_12  and  N_13
REMARK    5  A    between atoms: N_13  and  C_14
REMARK    6  A    between atoms: N_13  and  C_21
REMARK    7  A    between atoms: C_14  and  C_15
REMARK    8  A    between atoms: C_21  and  N_23
REMARK    9  A    between atoms: N_23  and  C_24
REMARK   10  A    between atoms: C_24  and  C_25
REMARK   11  A    between atoms: C_25  and  C_26
REMARK   12  A    between atoms: C_26  and  N_27
REMARK   13  A    between atoms: N_27  and  C_28
REMARK   14  A    between atoms: N_27  and  C_29
REMARK                            x       y       z     vdW  Elec       q    Type
REMARK                         _______ _______ _______ _____ _____    ______ ____
ROOT
ATOM      1  N   UNL     1       4.215   5.324  17.685  0.00  0.00    +0.000 N 
ENDROOT
BRANCH   1   2
ATOM      2  C   UNL     1       5.017   4.819  18.743  0.00  0.00    +0.000 C 
ATOM      3  S   UNL     1       6.521   5.421  19.193  0.00  0.00    +0.000 S 
BRANCH   2   4
ATOM      4  N   UNL     1       4.405   3.763  19.392  0.00  0.00    +0.000 N 
ATOM      5  H   UNL     1       3.799   4.006  20.163  0.00  0.00    +0.000 HD
BRANCH   4   6
ATOM      6  C   UNL     1       4.506   2.335  19.065  0.00  0.00    +0.000 C 
BRANCH   6   7
ATOM      7  C   UNL     1       3.236   1.878  18.351  0.00  0.00    +0.000 C 
BRANCH   7   8
ATOM      8  C   UNL     1       2.044   1.687  19.296  0.00  0.00    +0.000 C 
BRANCH   8   9
ATOM      9  N   UNL     1       1.727   2.848  20.144  0.00  0.00    +0.000 NA
ATOM     10  C   UNL     1       0.431   3.446  19.808  0.00  0.00    +0.000 C 
ATOM     11  C   UNL     1       1.734   2.454  21.556  0.00  0.00    +0.000 C 
ENDBRANCH   8   9
ENDBRANCH   7   8
ENDBRANCH   6   7
ENDBRANCH   4   6
ENDBRANCH   2   4
ENDBRANCH   1   2
BRANCH   1  12
ATOM     12  C   UNL     1       2.774   5.527  17.971  0.00  0.00    +0.000 C 
BRANCH  12  23
ATOM     13  C   UNL     1       2.455  11.015  17.671  0.00  0.00    +0.000 C 
ATOM     14  C   UNL     1       1.644  10.465  18.809  0.00  0.00    +0.000 A 
ATOM     15  C   UNL     1       0.948  11.365  19.637  0.00  0.00    +0.000 A 
ATOM     16  C   UNL     1       0.259  10.917  20.764  0.00  0.00    +0.000 A 
ATOM     17  C   UNL     1       0.322   9.576  21.150  0.00  0.00    +0.000 A 
ATOM     18  C   UNL     1      -0.442   9.129  22.365  0.00  0.00    +0.000 C 
ATOM     19  C   UNL     1       1.086   8.695  20.365  0.00  0.00    +0.000 A 
ATOM     20  N   UNL     1       1.440   7.424  20.849  0.00  0.00    +0.000 N 
ATOM     21  C   UNL     1       2.307   6.602  20.183  0.00  0.00    +0.000 A 
ATOM     22  O   UNL     1       2.928   5.712  20.753  0.00  0.00    +0.000 OA
ATOM     23  C   UNL     1       2.400   6.799  18.697  0.00  0.00    +0.000 A 
ATOM     24  C   UNL     1       2.128   8.029  18.235  0.00  0.00    +0.000 A 
ATOM     25  C   UNL     1       1.640   9.098  19.136  0.00  0.00    +0.000 A 
ATOM     26  H   UNL     1       1.325   7.225  21.834  0.00  0.00    +0.000 HD
ENDBRANCH  12  23
ENDBRANCH   1  12
BRANCH   1  27
ATOM     27  C   UNL     1       4.802   6.224  16.672  0.00  0.00    +0.000 C 
BRANCH  27  28
ATOM     28  C   UNL     1       5.508   5.487  15.550  0.00  0.00    +0.000 A 
ATOM     29  C   UNL     1       4.788   4.576  14.763  0.00  0.00    +0.000 A 
ATOM     30  C   UNL     1       5.415   3.881  13.727  0.00  0.00    +0.000 A 
ATOM     31  C   UNL     1       6.763   4.092  13.456  0.00  0.00    +0.000 A 
ATOM     32  C   UNL     1       7.484   5.021  14.210  0.00  0.00    +0.000 A 
ATOM     33  C   UNL     1       6.857   5.716  15.242  0.00  0.00    +0.000 A 
ENDBRANCH  27  28
ENDBRANCH   1  27
TORSDOF 10
ENDMDL
MODEL 5
REMARK VINA RESULT:      -6.8      6.676     10.464
REMARK  Name = 
REMARK  14 active torsions:
REMARK  status: ('A' for Active; 'I' for Inactive)
REMARK    1  A    between atoms: C_1  and  C_2
REMARK    2  A    between atoms: C_5  and  C_6
REMARK    3  A    between atoms: C_11  and  C_12
REMARK    4  A    between atoms: C_12  and  N_13
REMARK    5  A    between atoms: N_13  and  C_14
REMARK    6  A    between atoms: N_13  and  C_21
REMARK    7  A    between atoms: C_14  and  C_15
REMARK    8  A    between atoms: C_21  and  N_23
REMARK    9  A    between atoms: N_23  and  C_24
REMARK   10  A    between atoms: C_24  and  C_25
REMARK   11  A    between atoms: C_25  and  C_26
REMARK   12  A    between atoms: C_26  and  N_27
REMARK   13  A    between atoms: N_27  and  C_28
REMARK   14  A    between atoms: N_27  and  C_29
REMARK                            x       y       z     vdW  Elec       q    Type
REMARK                         _______ _______ _______ _____ _____    ______ ____
ROOT
ATOM      1  N   UNL     1       0.437  10.613  19.841  0.00  0.00    +0.000 N 
ENDROOT
BRANCH   1   2
ATOM      2  C   UNL     1       0.996   9.308  19.789  0.00  0.00    +0.000 C 
ATOM      3  S   UNL     1       1.185   8.278  21.104  0.00  0.00    +0.000 S 
BRANCH   2   4
ATOM      4  N   UNL     1       1.364   8.959  18.502  0.00  0.00    +0.000 N 
ATOM      5  H   UNL     1       0.698   9.175  17.775  0.00  0.00    +0.000 HD
BRANCH   4   6
ATOM      6  C   UNL     1       2.627   8.346  18.071  0.00  0.00    +0.000 C 
BRANCH   6   7
ATOM      7  C   UNL     1       2.508   6.825  18.127  0.00  0.00    +0.000 C 
BRANCH   7   8
ATOM      8  C   UNL     1       3.810   6.100  17.767  0.00  0.00    +0.000 C 
BRANCH   8   9
ATOM      9  N   UNL     1       3.670   4.658  17.506  0.00  0.00    +0.000 NA
ATOM     10  C   UNL     1       4.542   3.850  18.364  0.00  0.00    +0.000 C 
ATOM     11  C   UNL     1       2.276   4.247  17.697  0.00  0.00    +0.000 C 
ENDBRANCH   8   9
ENDBRANCH   7   8
ENDBRANCH   6   7
ENDBRANCH   4   6
ENDBRANCH   2   4
ENDBRANCH   1   2
BRANCH   1  12
ATOM     12  C   UNL     1       0.936  11.517  20.906  0.00  0.00    +0.000 C 
BRANCH  12  23
ATOM     13  C   UNL     1      -0.794  16.640  21.941  0.00  0.00    +0.000 C 
ATOM     14  C   UNL     1      -1.849  15.616  22.248  0.00  0.00    +0.000 A 
ATOM     15  C   UNL     1      -3.086  16.054  22.754  0.00  0.00    +0.000 A 
ATOM     16  C   UNL     1      -4.066  15.141  23.146  0.00  0.00    +0.000 A 
ATOM     17  C   UNL     1      -3.806  13.769  23.132  0.00  0.00    +0.000 A 
ATOM     18  C   UNL     1      -4.890  12.816  23.551  0.00  0.00    +0.000 C 
ATOM     19  C   UNL     1      -2.539  13.339  22.701  0.00  0.00    +0.000 A 
ATOM     20  N   UNL     1      -2.106  12.024  22.944  0.00  0.00    +0.000 N 
ATOM     21  C   UNL     1      -0.828  11.614  22.680  0.00  0.00    +0.000 A 
ATOM     22  O   UNL     1      -0.327  10.644  23.240  0.00  0.00    +0.000 OA
ATOM     23  C   UNL     1      -0.095  12.370  21.609  0.00  0.00    +0.000 A 
ATOM     24  C   UNL     1      -0.459  13.646  21.418  0.00  0.00    +0.000 A 
ATOM     25  C   UNL     1      -1.609  14.235  22.143  0.00  0.00    +0.000 A 
ATOM     26  H   UNL     1      -2.615  11.455  23.607  0.00  0.00    +0.000 HD
ENDBRANCH  12  23
ENDBRANCH   1  12
BRANCH   1  27
ATOM     27  C   UNL     1      -0.027  11.273  18.604  0.00  0.00    +0.000 C 
BRANCH  27  28
ATOM     28  C   UNL     1      -1.496  11.036  18.311  0.00  0.00    +0.000 A 
ATOM     29  C   UNL     1      -2.459  11.872  18.896  0.00  0.00    +0.000 A 
ATOM     30  C   UNL     1      -3.818  11.673  18.646  0.00  0.00    +0.000 A 
ATOM     31  C   UNL     1      -4.234  10.646  17.804  0.00  0.00    +0.000 A 
ATOM     32  C   UNL     1      -3.284   9.828  17.189  0.00  0.00    +0.000 A 
ATOM     33  C   UNL     1      -1.928  10.028  17.437  0.00  0.00    +0.000 A 
ENDBRANCH  27  28
ENDBRANCH   1  27
TORSDOF 10
ENDMDL
MODEL 6
REMARK VINA RESULT:      -6.7      6.751     10.529
REMARK  Name = 
REMARK  14 active torsions:
REMARK  status: ('A' for Active; 'I' for Inactive)
REMARK    1  A    between atoms: C_1  and  C_2
REMARK    2  A    between atoms: C_5  and  C_6
REMARK    3  A    between atoms: C_11  and  C_12
REMARK    4  A    between atoms: C_12  and  N_13
REMARK    5  A    between atoms: N_13  and  C_14
REMARK    6  A    between atoms: N_13  and  C_21
REMARK    7  A    between atoms: C_14  and  C_15
REMARK    8  A    between atoms: C_21  and  N_23
REMARK    9  A    between atoms: N_23  and  C_24
REMARK   10  A    between atoms: C_24  and  C_25
REMARK   11  A    between atoms: C_25  and  C_26
REMARK   12  A    between atoms: C_26  and  N_27
REMARK   13  A    between atoms: N_27  and  C_28
REMARK   14  A    between atoms: N_27  and  C_29
REMARK                            x       y       z     vdW  Elec       q    Type
REMARK                         _______ _______ _______ _____ _____    ______ ____
ROOT
ATOM      1  N   UNL     1       0.439  10.751  19.956  0.00  0.00    +0.000 N 
ENDROOT
BRANCH   1   2
ATOM      2  C   UNL     1       1.091   9.497  19.826  0.00  0.00    +0.000 C 
ATOM      3  S   UNL     1       1.185   8.321  21.023  0.00  0.00    +0.000 S 
BRANCH   2   4
ATOM      4  N   UNL     1       1.643   9.333  18.568  0.00  0.00    +0.000 N 
ATOM      5  H   UNL     1       1.966  10.174  18.112  0.00  0.00    +0.000 HD
BRANCH   4   6
ATOM      6  C   UNL     1       1.844   8.075  17.839  0.00  0.00    +0.000 C 
BRANCH   6   7
ATOM      7  C   UNL     1       3.317   7.678  17.890  0.00  0.00    +0.000 C 
BRANCH   7   8
ATOM      8  C   UNL     1       3.550   6.178  17.677  0.00  0.00    +0.000 C 
BRANCH   8   9
ATOM      9  N   UNL     1       2.669   5.292  18.456  0.00  0.00    +0.000 NA
ATOM     10  C   UNL     1       2.549   3.960  17.855  0.00  0.00    +0.000 C 
ATOM     11  C   UNL     1       3.170   5.169  19.828  0.00  0.00    +0.000 C 
ENDBRANCH   8   9
ENDBRANCH   7   8
ENDBRANCH   6   7
ENDBRANCH   4   6
ENDBRANCH   2   4
ENDBRANCH   1   2
BRANCH   1  12
ATOM     12  C   UNL     1       0.834  11.599  21.107  0.00  0.00    +0.000 C 
BRANCH  12  23
ATOM     13  C   UNL     1      -0.967  16.706  22.098  0.00  0.00    +0.000 C 
ATOM     14  C   UNL     1      -2.049  15.681  22.286  0.00  0.00    +0.000 A 
ATOM     15  C   UNL     1      -3.325  16.114  22.689  0.00  0.00    +0.000 A 
ATOM     16  C   UNL     1      -4.339  15.197  22.970  0.00  0.00    +0.000 A 
ATOM     17  C   UNL     1      -4.081  13.824  22.949  0.00  0.00    +0.000 A 
ATOM     18  C   UNL     1      -5.201  12.867  23.248  0.00  0.00    +0.000 C 
ATOM     19  C   UNL     1      -2.782  13.398  22.624  0.00  0.00    +0.000 A 
ATOM     20  N   UNL     1      -2.377  12.076  22.875  0.00  0.00    +0.000 N 
ATOM     21  C   UNL     1      -1.081  11.665  22.718  0.00  0.00    +0.000 A 
ATOM     22  O   UNL     1      -0.636  10.681  23.298  0.00  0.00    +0.000 OA
ATOM     23  C   UNL     1      -0.253  12.441  21.734  0.00  0.00    +0.000 A 
ATOM     24  C   UNL     1      -0.595  13.724  21.540  0.00  0.00    +0.000 A 
ATOM     25  C   UNL     1      -1.804  14.301  22.172  0.00  0.00    +0.000 A 
ATOM     26  H   UNL     1      -2.945  11.494  23.476  0.00  0.00    +0.000 HD
ENDBRANCH  12  23
ENDBRANCH   1  12
BRANCH   1  27
ATOM     27  C   UNL     1      -0.027  11.475  18.755  0.00  0.00    +0.000 C 
BRANCH  27  28
ATOM     28  C   UNL     1      -1.474  11.187  18.404  0.00  0.00    +0.000 A 
ATOM     29  C   UNL     1      -1.778  10.097  17.574  0.00  0.00    +0.000 A 
ATOM     30  C   UNL     1      -3.102   9.814  17.232  0.00  0.00    +0.000 A 
ATOM     31  C   UNL     1      -4.138  10.605  17.718  0.00  0.00    +0.000 A 
ATOM     32  C   UNL     1      -3.851  11.672  18.572  0.00  0.00    +0.000 A 
ATOM     33  C   UNL     1      -2.531  11.954  18.916  0.00  0.00    +0.000 A 
ENDBRANCH  27  28
ENDBRANCH   1  27
TORSDOF 10
ENDMDL
MODEL 7
REMARK VINA RESULT:      -6.6      6.316     10.467
REMARK  Name = 
REMARK  14 active torsions:
REMARK  status: ('A' for Active; 'I' for Inactive)
REMARK    1  A    between atoms: C_1  and  C_2
REMARK    2  A    between atoms: C_5  and  C_6
REMARK    3  A    between atoms: C_11  and  C_12
REMARK    4  A    between atoms: C_12  and  N_13
REMARK    5  A    between atoms: N_13  and  C_14
REMARK    6  A    between atoms: N_13  and  C_21
REMARK    7  A    between atoms: C_14  and  C_15
REMARK    8  A    between atoms: C_21  and  N_23
REMARK    9  A    between atoms: N_23  and  C_24
REMARK   10  A    between atoms: C_24  and  C_25
REMARK   11  A    between atoms: C_25  and  C_26
REMARK   12  A    between atoms: C_26  and  N_27
REMARK   13  A    between atoms: N_27  and  C_28
REMARK   14  A    between atoms: N_27  and  C_29
REMARK                            x       y       z     vdW  Elec       q    Type
REMARK                         _______ _______ _______ _____ _____    ______ ____
ROOT
ATOM      1  N   UNL     1       0.667  10.060  19.837  0.00  0.00    +0.000 N 
ENDROOT
BRANCH   1   2
ATOM      2  C   UNL     1       1.376   8.947  19.314  0.00  0.00    +0.000 C 
ATOM      3  S   UNL     1       2.014   8.844  17.762  0.00  0.00    +0.000 S 
BRANCH   2   4
ATOM      4  N   UNL     1       1.504   7.935  20.247  0.00  0.00    +0.000 N 
ATOM      5  H   UNL     1       0.975   8.047  21.100  0.00  0.00    +0.000 HD
BRANCH   4   6
ATOM      6  C   UNL     1       2.291   6.701  20.124  0.00  0.00    +0.000 C 
BRANCH   6   7
ATOM      7  C   UNL     1       1.492   5.522  20.672  0.00  0.00    +0.000 C 
BRANCH   7   8
ATOM      8  C   UNL     1       2.364   4.314  21.037  0.00  0.00    +0.000 C 
BRANCH   8   9
ATOM      9  N   UNL     1       2.093   3.092  20.262  0.00  0.00    +0.000 NA
ATOM     10  C   UNL     1       1.161   3.330  19.156  0.00  0.00    +0.000 C 
ATOM     11  C   UNL     1       3.347   2.543  19.738  0.00  0.00    +0.000 C 
ENDBRANCH   8   9
ENDBRANCH   7   8
ENDBRANCH   6   7
ENDBRANCH   4   6
ENDBRANCH   2   4
ENDBRANCH   1   2
BRANCH   1  12
ATOM     12  C   UNL     1       0.990  10.472  21.225  0.00  0.00    +0.000 C 
BRANCH  12  23
ATOM     13  C   UNL     1       0.176  15.851  22.068  0.00  0.00    +0.000 C 
ATOM     14  C   UNL     1      -1.067  15.046  22.323  0.00  0.00    +0.000 A 
ATOM     15  C   UNL     1      -2.229  15.717  22.744  0.00  0.00    +0.000 A 
ATOM     16  C   UNL     1      -3.382  15.010  23.087  0.00  0.00    +0.000 A 
ATOM     17  C   UNL     1      -3.378  13.613  23.111  0.00  0.00    +0.000 A 
ATOM     18  C   UNL     1      -4.642  12.886  23.477  0.00  0.00    +0.000 C 
ATOM     19  C   UNL     1      -2.189  12.947  22.768  0.00  0.00    +0.000 A 
ATOM     20  N   UNL     1      -2.021  11.582  23.059  0.00  0.00    +0.000 N 
ATOM     21  C   UNL     1      -0.827  10.938  22.883  0.00  0.00    +0.000 A 
ATOM     22  O   UNL     1      -0.548   9.908  23.488  0.00  0.00    +0.000 OA
ATOM     23  C   UNL     1       0.094  11.518  21.848  0.00  0.00    +0.000 A 
ATOM     24  C   UNL     1      -0.016  12.834  21.615  0.00  0.00    +0.000 A 
ATOM     25  C   UNL     1      -1.079  13.642  22.256  0.00  0.00    +0.000 A 
ATOM     26  H   UNL     1      -2.665  11.133  23.697  0.00  0.00    +0.000 HD
ENDBRANCH  12  23
ENDBRANCH   1  12
BRANCH   1  27
ATOM     27  C   UNL     1       0.209  11.139  18.938  0.00  0.00    +0.000 C 
BRANCH  27  28
ATOM     28  C   UNL     1      -1.238  10.990  18.509  0.00  0.00    +0.000 A 
ATOM     29  C   UNL     1      -1.581  10.007  17.568  0.00  0.00    +0.000 A 
ATOM     30  C   UNL     1      -2.905   9.852  17.153  0.00  0.00    +0.000 A 
ATOM     31  C   UNL     1      -3.904  10.667  17.676  0.00  0.00    +0.000 A 
ATOM     32  C   UNL     1      -3.582  11.626  18.639  0.00  0.00    +0.000 A 
ATOM     33  C   UNL     1      -2.261  11.779  19.054  0.00  0.00    +0.000 A 
ENDBRANCH  27  28
ENDBRANCH   1  27
TORSDOF 10
ENDMDL
MODEL 8
REMARK VINA RESULT:      -6.6      6.438     10.662
REMARK  Name = 
REMARK  14 active torsions:
REMARK  status: ('A' for Active; 'I' for Inactive)
REMARK    1  A    between atoms: C_1  and  C_2
REMARK    2  A    between atoms: C_5  and  C_6
REMARK    3  A    between atoms: C_11  and  C_12
REMARK    4  A    between atoms: C_12  and  N_13
REMARK    5  A    between atoms: N_13  and  C_14
REMARK    6  A    between atoms: N_13  and  C_21
REMARK    7  A    between atoms: C_14  and  C_15
REMARK    8  A    between atoms: C_21  and  N_23
REMARK    9  A    between atoms: N_23  and  C_24
REMARK   10  A    between atoms: C_24  and  C_25
REMARK   11  A    between atoms: C_25  and  C_26
REMARK   12  A    between atoms: C_26  and  N_27
REMARK   13  A    between atoms: N_27  and  C_28
REMARK   14  A    between atoms: N_27  and  C_29
REMARK                            x       y       z     vdW  Elec       q    Type
REMARK                         _______ _______ _______ _____ _____    ______ ____
ROOT
ATOM      1  N   UNL     1       0.666  10.219  19.930  0.00  0.00    +0.000 N 
ENDROOT
BRANCH   1   2
ATOM      2  C   UNL     1       1.412   9.085  19.513  0.00  0.00    +0.000 C 
ATOM      3  S   UNL     1       1.871   8.752  17.930  0.00  0.00    +0.000 S 
BRANCH   2   4
ATOM      4  N   UNL     1       1.746   8.269  20.579  0.00  0.00    +0.000 N 
ATOM      5  H   UNL     1       2.464   8.618  21.198  0.00  0.00    +0.000 HD
BRANCH   4   6
ATOM      6  C   UNL     1       1.150   6.975  20.933  0.00  0.00    +0.000 C 
BRANCH   6   7
ATOM      7  C   UNL     1       1.985   5.843  20.340  0.00  0.00    +0.000 C 
BRANCH   7   8
ATOM      8  C   UNL     1       1.239   4.505  20.280  0.00  0.00    +0.000 C 
BRANCH   8   9
ATOM      9  N   UNL     1       2.072   3.314  20.523  0.00  0.00    +0.000 NA
ATOM     10  C   UNL     1       1.662   2.586  21.727  0.00  0.00    +0.000 C 
ATOM     11  C   UNL     1       2.015   2.419  19.364  0.00  0.00    +0.000 C 
ENDBRANCH   8   9
ENDBRANCH   7   8
ENDBRANCH   6   7
ENDBRANCH   4   6
ENDBRANCH   2   4
ENDBRANCH   1   2
BRANCH   1  12
ATOM     12  C   UNL     1       0.957  10.756  21.282  0.00  0.00    +0.000 C 
BRANCH  12  23
ATOM     13  C   UNL     1      -0.120  16.109  21.982  0.00  0.00    +0.000 C 
ATOM     14  C   UNL     1      -1.343  15.258  22.175  0.00  0.00    +0.000 A 
ATOM     15  C   UNL     1      -2.555  15.887  22.512  0.00  0.00    +0.000 A 
ATOM     16  C   UNL     1      -3.698  15.139  22.796  0.00  0.00    +0.000 A 
ATOM     17  C   UNL     1      -3.640  13.744  22.844  0.00  0.00    +0.000 A 
ATOM     18  C   UNL     1      -4.895  12.971  23.143  0.00  0.00    +0.000 C 
ATOM     19  C   UNL     1      -2.407  13.122  22.585  0.00  0.00    +0.000 A 
ATOM     20  N   UNL     1      -2.203  11.769  22.908  0.00  0.00    +0.000 N 
ATOM     21  C   UNL     1      -0.976  11.171  22.817  0.00  0.00    +0.000 A 
ATOM     22  O   UNL     1      -0.694  10.163  23.455  0.00  0.00    +0.000 OA
ATOM     23  C   UNL     1      -0.016  11.774  21.831  0.00  0.00    +0.000 A 
ATOM     24  C   UNL     1      -0.164  13.081  21.569  0.00  0.00    +0.000 A 
ATOM     25  C   UNL     1      -1.295  13.854  22.130  0.00  0.00    +0.000 A 
ATOM     26  H   UNL     1      -2.867  11.304  23.513  0.00  0.00    +0.000 HD
ENDBRANCH  12  23
ENDBRANCH   1  12
BRANCH   1  27
ATOM     27  C   UNL     1       0.192  11.203  18.936  0.00  0.00    +0.000 C 
BRANCH  27  28
ATOM     28  C   UNL     1      -1.245  10.978  18.506  0.00  0.00    +0.000 A 
ATOM     29  C   UNL     1      -2.253  11.819  19.000  0.00  0.00    +0.000 A 
ATOM     30  C   UNL     1      -3.584  11.630  18.623  0.00  0.00    +0.000 A 
ATOM     31  C   UNL     1      -3.926  10.608  17.743  0.00  0.00    +0.000 A 
ATOM     32  C   UNL     1      -2.928   9.784  17.218  0.00  0.00    +0.000 A 
ATOM     33  C   UNL     1      -1.600   9.975  17.592  0.00  0.00    +0.000 A 
ENDBRANCH  27  28
ENDBRANCH   1  27
TORSDOF 10
ENDMDL
MODEL 9
REMARK VINA RESULT:      -6.6      7.255     11.621
REMARK  Name = 
REMARK  14 active torsions:
REMARK  status: ('A' for Active; 'I' for Inactive)
REMARK    1  A    between atoms: C_1  and  C_2
REMARK    2  A    between atoms: C_5  and  C_6
REMARK    3  A    between atoms: C_11  and  C_12
REMARK    4  A    between atoms: C_12  and  N_13
REMARK    5  A    between atoms: N_13  and  C_14
REMARK    6  A    between atoms: N_13  and  C_21
REMARK    7  A    between atoms: C_14  and  C_15
REMARK    8  A    between atoms: C_21  and  N_23
REMARK    9  A    between atoms: N_23  and  C_24
REMARK   10  A    between atoms: C_24  and  C_25
REMARK   11  A    between atoms: C_25  and  C_26
REMARK   12  A    between atoms: C_26  and  N_27
REMARK   13  A    between atoms: N_27  and  C_28
REMARK   14  A    between atoms: N_27  and  C_29
REMARK                            x       y       z     vdW  Elec       q    Type
REMARK                         _______ _______ _______ _____ _____    ______ ____
ROOT
ATOM      1  N   UNL     1       5.823  15.519  20.362  0.00  0.00    +0.000 N 
ENDROOT
BRANCH   1   2
ATOM      2  C   UNL     1       4.411  15.412  20.461  0.00  0.00    +0.000 C 
ATOM      3  S   UNL     1       3.438  16.313  21.495  0.00  0.00    +0.000 S 
BRANCH   2   4
ATOM      4  N   UNL     1       3.904  14.474  19.581  0.00  0.00    +0.000 N 
ATOM      5  H   UNL     1       4.183  13.516  19.742  0.00  0.00    +0.000 HD
BRANCH   4   6
ATOM      6  C   UNL     1       2.981  14.707  18.463  0.00  0.00    +0.000 C 
BRANCH   6   7
ATOM      7  C   UNL     1       2.267  13.406  18.104  0.00  0.00    +0.000 C 
BRANCH   7   8
ATOM      8  C   UNL     1       1.044  13.121  18.984  0.00  0.00    +0.000 C 
BRANCH   8   9
ATOM      9  N   UNL     1       1.348  12.789  20.386  0.00  0.00    +0.000 NA
ATOM     10  C   UNL     1       0.671  13.684  21.329  0.00  0.00    +0.000 C 
ATOM     11  C   UNL     1       0.967  11.401  20.666  0.00  0.00    +0.000 C 
ENDBRANCH   8   9
ENDBRANCH   7   8
ENDBRANCH   6   7
ENDBRANCH   4   6
ENDBRANCH   2   4
ENDBRANCH   1   2
BRANCH   1  12
ATOM     12  C   UNL     1       6.362  16.255  19.192  0.00  0.00    +0.000 C 
BRANCH  12  23
ATOM     13  C   UNL     1      11.433  17.341  17.344  0.00  0.00    +0.000 C 
ATOM     14  C   UNL     1      11.208  15.869  17.540  0.00  0.00    +0.000 A 
ATOM     15  C   UNL     1      12.253  14.980  17.230  0.00  0.00    +0.000 A 
ATOM     16  C   UNL     1      12.068  13.599  17.302  0.00  0.00    +0.000 A 
ATOM     17  C   UNL     1      10.810  13.066  17.594  0.00  0.00    +0.000 A 
ATOM     18  C   UNL     1      10.651  11.573  17.673  0.00  0.00    +0.000 C 
ATOM     19  C   UNL     1       9.748  13.957  17.824  0.00  0.00    +0.000 A 
ATOM     20  N   UNL     1       8.418  13.505  17.821  0.00  0.00    +0.000 N 
ATOM     21  C   UNL     1       7.353  14.362  17.886  0.00  0.00    +0.000 A 
ATOM     22  O   UNL     1       6.238  14.047  17.485  0.00  0.00    +0.000 OA
ATOM     23  C   UNL     1       7.606  15.687  18.549  0.00  0.00    +0.000 A 
ATOM     24  C   UNL     1       8.862  16.155  18.496  0.00  0.00    +0.000 A 
ATOM     25  C   UNL     1       9.962  15.344  17.924  0.00  0.00    +0.000 A 
ATOM     26  H   UNL     1       8.212  12.588  17.449  0.00  0.00    +0.000 HD
ENDBRANCH  12  23
ENDBRANCH   1  12
BRANCH   1  27
ATOM     27  C   UNL     1       6.653  15.561  21.584  0.00  0.00    +0.000 C 
BRANCH  27  28
ATOM     28  C   UNL     1       7.265  14.220  21.940  0.00  0.00    +0.000 A 
ATOM     29  C   UNL     1       6.553  13.334  22.763  0.00  0.00    +0.000 A 
ATOM     30  C   UNL     1       7.097  12.096  23.110  0.00  0.00    +0.000 A 
ATOM     31  C   UNL     1       8.349  11.720  22.634  0.00  0.00    +0.000 A 
ATOM     32  C   UNL     1       9.054  12.579  21.787  0.00  0.00    +0.000 A 
ATOM     33  C   UNL     1       8.510  13.814  21.440  0.00  0.00    +0.000 A 
ENDBRANCH  27  28
ENDBRANCH   1  27
TORSDOF 10
ENDMDL
