MODEL 1
REMARK VINA RESULT:      -7.3      0.000      0.000
REMARK  Name = 
REMARK  10 active torsions:
REMARK  status: ('A' for Active; 'I' for Inactive)
REMARK    1  A    between atoms: C_1  and  O_2
REMARK    2  A    between atoms: O_2  and  C_3
REMARK    3  A    between atoms: C_3  and  C_4
REMARK    4  A    between atoms: C_4  and  N_5
REMARK    5  A    between atoms: C_4  and  C_9
REMARK    6  A    between atoms: C_6  and  C_7
REMARK    7  A    between atoms: N_11  and  C_12
REMARK    8  A    between atoms: C_12  and  C_13
REMARK    9  A    between atoms: C_16  and  N_17
REMARK   10  A    between atoms: C_18  and  C_20
REMARK                            x       y       z     vdW  Elec       q    Type
REMARK                         _______ _______ _______ _____ _____    ______ ____
ROOT
ATOM      1  C   UNL     1       3.374   5.658  19.330  0.00  0.00    +0.000 C 
ENDROOT
BRANCH   1   2
ATOM      2  C   UNL     1       2.623   6.962  19.258  0.00  0.00    +0.000 A 
ATOM      3  C   UNL     1       2.685   7.746  18.102  0.00  0.00    +0.000 A 
ATOM      4  C   UNL     1       1.964   8.943  18.008  0.00  0.00    +0.000 A 
ATOM      5  C   UNL     1       1.178   9.393  19.069  0.00  0.00    +0.000 A 
ATOM      6  C   UNL     1       1.145   8.630  20.243  0.00  0.00    +0.000 A 
ATOM      7  C   UNL     1       1.865   7.428  20.339  0.00  0.00    +0.000 A 
BRANCH   5   8
ATOM      8  N   UNL     1       0.409  10.577  19.025  0.00  0.00    +0.000 N 
ATOM      9  C   UNL     1      -0.816  10.768  18.377  0.00  0.00    +0.000 C 
ATOM     10  O   UNL     1      -1.419   9.908  17.734  0.00  0.00    +0.000 OA
ATOM     11  H   UNL     1       0.779  11.377  19.534  0.00  0.00    +0.000 HD
BRANCH   9  12
ATOM     12  C   UNL     1      -1.382  12.192  18.536  0.00  0.00    +0.000 C 
ATOM     13  F   UNL     1      -2.744  12.215  18.422  0.00  0.00    +0.000 F 
ATOM     14  F   UNL     1      -1.092  12.737  19.748  0.00  0.00    +0.000 F 
ATOM     15  F   UNL     1      -0.907  13.053  17.594  0.00  0.00    +0.000 F 
ENDBRANCH   9  12
ENDBRANCH   5   8
ENDBRANCH   1   2
BRANCH   1  18
ATOM     16  C   UNL     1       5.415   4.657  18.402  0.00  0.00    +0.000 C 
ATOM     17  O   UNL     1       5.465   3.797  19.280  0.00  0.00    +0.000 OA
ATOM     18  N   UNL     1       4.381   5.562  18.306  0.00  0.00    +0.000 N 
ATOM     19  H   UNL     1       4.488   6.344  17.657  0.00  0.00    +0.000 HD
BRANCH  16  20
ATOM     20  C   UNL     1       6.485   4.753  17.299  0.00  0.00    +0.000 C 
BRANCH  20  21
ATOM     21  N   UNL     1       6.930   6.142  17.098  0.00  0.00    +0.000 N 
ATOM     22  C   UNL     1       7.660   6.864  18.003  0.00  0.00    +0.000 C 
ATOM     23  C   UNL     1       7.967   8.276  17.588  0.00  0.00    +0.000 C 
ATOM     24  O   UNL     1       8.081   6.394  19.058  0.00  0.00    +0.000 OA
ATOM     25  H   UNL     1       6.553   6.616  16.288  0.00  0.00    +0.000 HD
ENDBRANCH  20  21
BRANCH  20  26
ATOM     26  C   UNL     1       6.006   4.022  16.036  0.00  0.00    +0.000 C 
BRANCH  26  28
ATOM     27  C   UNL     1       6.292   3.925  13.701  0.00  0.00    +0.000 C 
ATOM     28  O   UNL     1       6.904   4.260  14.943  0.00  0.00    +0.000 OA
ENDBRANCH  26  28
ENDBRANCH  20  26
ENDBRANCH  16  20
ENDBRANCH   1  18
TORSDOF 8
ENDMDL
MODEL 2
REMARK VINA RESULT:      -7.2      0.984      1.550
REMARK  Name = 
REMARK  10 active torsions:
REMARK  status: ('A' for Active; 'I' for Inactive)
REMARK    1  A    between atoms: C_1  and  O_2
REMARK    2  A    between atoms: O_2  and  C_3
REMARK    3  A    between atoms: C_3  and  C_4
REMARK    4  A    between atoms: C_4  and  N_5
REMARK    5  A    between atoms: C_4  and  C_9
REMARK    6  A    between atoms: C_6  and  C_7
REMARK    7  A    between atoms: N_11  and  C_12
REMARK    8  A    between atoms: C_12  and  C_13
REMARK    9  A    between atoms: C_16  and  N_17
REMARK   10  A    between atoms: C_18  and  C_20
REMARK                            x       y       z     vdW  Elec       q    Type
REMARK                         _______ _______ _______ _____ _____    ______ ____
ROOT
ATOM      1  C   UNL     1       3.674   5.633  18.645  0.00  0.00    +0.000 C 
ENDROOT
BRANCH   1   2
ATOM      2  C   UNL     1       2.858   6.895  18.742  0.00  0.00    +0.000 A 
ATOM      3  C   UNL     1       2.145   7.183  19.910  0.00  0.00    +0.000 A 
ATOM      4  C   UNL     1       1.411   8.369  20.027  0.00  0.00    +0.000 A 
ATOM      5  C   UNL     1       1.357   9.287  18.979  0.00  0.00    +0.000 A 
ATOM      6  C   UNL     1       2.038   8.984  17.793  0.00  0.00    +0.000 A 
ATOM      7  C   UNL     1       2.777   7.795  17.673  0.00  0.00    +0.000 A 
BRANCH   5   8
ATOM      8  N   UNL     1       0.655  10.511  19.046  0.00  0.00    +0.000 N 
ATOM      9  C   UNL     1      -0.604  10.796  18.508  0.00  0.00    +0.000 C 
ATOM     10  O   UNL     1      -1.303   9.999  17.879  0.00  0.00    +0.000 OA
ATOM     11  H   UNL     1       1.108  11.266  19.557  0.00  0.00    +0.000 HD
BRANCH   9  12
ATOM     12  C   UNL     1      -1.075  12.239  18.770  0.00  0.00    +0.000 C 
ATOM     13  F   UNL     1      -0.786  13.069  17.723  0.00  0.00    +0.000 F 
ATOM     14  F   UNL     1      -2.419  12.322  18.961  0.00  0.00    +0.000 F 
ATOM     15  F   UNL     1      -0.488  12.791  19.867  0.00  0.00    +0.000 F 
ENDBRANCH   9  12
ENDBRANCH   5   8
ENDBRANCH   1   2
BRANCH   1  18
ATOM     16  C   UNL     1       5.378   4.961  17.009  0.00  0.00    +0.000 C 
ATOM     17  O   UNL     1       4.705   4.014  16.604  0.00  0.00    +0.000 OA
ATOM     18  N   UNL     1       4.918   5.851  17.953  0.00  0.00    +0.000 N 
ATOM     19  H   UNL     1       5.587   6.510  18.357  0.00  0.00    +0.000 HD
BRANCH  16  20
ATOM     20  C   UNL     1       6.780   5.257  16.445  0.00  0.00    +0.000 C 
BRANCH  20  21
ATOM     21  N   UNL     1       7.159   6.665  16.653  0.00  0.00    +0.000 N 
ATOM     22  C   UNL     1       7.710   7.160  17.803  0.00  0.00    +0.000 C 
ATOM     23  C   UNL     1       7.981   8.639  17.792  0.00  0.00    +0.000 C 
ATOM     24  O   UNL     1       8.010   6.456  18.765  0.00  0.00    +0.000 OA
ATOM     25  H   UNL     1       6.869   7.314  15.933  0.00  0.00    +0.000 HD
ENDBRANCH  20  21
BRANCH  20  26
ATOM     26  C   UNL     1       6.882   4.751  14.998  0.00  0.00    +0.000 C 
BRANCH  26  28
ATOM     27  C   UNL     1       7.817   5.168  12.877  0.00  0.00    +0.000 C 
ATOM     28  O   UNL     1       7.825   5.536  14.254  0.00  0.00    +0.000 OA
ENDBRANCH  26  28
ENDBRANCH  20  26
ENDBRANCH  16  20
ENDBRANCH   1  18
TORSDOF 8
ENDMDL
MODEL 3
REMARK VINA RESULT:      -7.2      2.608      3.358
REMARK  Name = 
REMARK  10 active torsions:
REMARK  status: ('A' for Active; 'I' for Inactive)
REMARK    1  A    between atoms: C_1  and  O_2
REMARK    2  A    between atoms: O_2  and  C_3
REMARK    3  A    between atoms: C_3  and  C_4
REMARK    4  A    between atoms: C_4  and  N_5
REMARK    5  A    between atoms: C_4  and  C_9
REMARK    6  A    between atoms: C_6  and  C_7
REMARK    7  A    between atoms: N_11  and  C_12
REMARK    8  A    between atoms: C_12  and  C_13
REMARK    9  A    between atoms: C_16  and  N_17
REMARK   10  A    between atoms: C_18  and  C_20
REMARK                            x       y       z     vdW  Elec       q    Type
REMARK                         _______ _______ _______ _____ _____    ______ ____
ROOT
ATOM      1  C   UNL     1       4.147   3.441  18.037  0.00  0.00    +0.000 C 
ENDROOT
BRANCH   1   2
ATOM      2  C   UNL     1       3.375   4.414  18.888  0.00  0.00    +0.000 A 
ATOM      3  C   UNL     1       2.666   3.962  20.006  0.00  0.00    +0.000 A 
ATOM      4  C   UNL     1       1.974   4.861  20.827  0.00  0.00    +0.000 A 
ATOM      5  C   UNL     1       1.959   6.226  20.545  0.00  0.00    +0.000 A 
ATOM      6  C   UNL     1       2.635   6.678  19.404  0.00  0.00    +0.000 A 
ATOM      7  C   UNL     1       3.332   5.779  18.580  0.00  0.00    +0.000 A 
BRANCH   5   8
ATOM      8  N   UNL     1       1.300   7.184  21.348  0.00  0.00    +0.000 N 
ATOM      9  C   UNL     1       0.973   8.499  21.001  0.00  0.00    +0.000 C 
ATOM     10  O   UNL     1       1.217   9.028  19.915  0.00  0.00    +0.000 OA
ATOM     11  H   UNL     1       1.018   6.880  22.277  0.00  0.00    +0.000 HD
BRANCH   9  12
ATOM     12  C   UNL     1       0.251   9.271  22.121  0.00  0.00    +0.000 C 
ATOM     13  F   UNL     1      -0.896   8.642  22.519  0.00  0.00    +0.000 F 
ATOM     14  F   UNL     1       1.017   9.408  23.238  0.00  0.00    +0.000 F 
ATOM     15  F   UNL     1      -0.115  10.526  21.742  0.00  0.00    +0.000 F 
ENDBRANCH   9  12
ENDBRANCH   5   8
ENDBRANCH   1   2
BRANCH   1  18
ATOM     16  C   UNL     1       5.571   4.437  16.302  0.00  0.00    +0.000 C 
ATOM     17  O   UNL     1       4.643   4.516  15.499  0.00  0.00    +0.000 OA
ATOM     18  N   UNL     1       5.401   3.993  17.594  0.00  0.00    +0.000 N 
ATOM     19  H   UNL     1       6.237   3.801  18.149  0.00  0.00    +0.000 HD
BRANCH  16  20
ATOM     20  C   UNL     1       6.999   4.884  15.937  0.00  0.00    +0.000 C 
BRANCH  20  21
ATOM     21  N   UNL     1       7.238   6.287  16.313  0.00  0.00    +0.000 N 
ATOM     22  C   UNL     1       7.573   6.709  17.571  0.00  0.00    +0.000 C 
ATOM     23  C   UNL     1       7.733   8.197  17.720  0.00  0.00    +0.000 C 
ATOM     24  O   UNL     1       7.777   5.941  18.508  0.00  0.00    +0.000 OA
ATOM     25  H   UNL     1       7.011   6.980  15.612  0.00  0.00    +0.000 HD
ENDBRANCH  20  21
BRANCH  20  26
ATOM     26  C   UNL     1       7.302   4.530  14.473  0.00  0.00    +0.000 C 
BRANCH  26  28
ATOM     27  C   UNL     1       8.000   5.409  12.403  0.00  0.00    +0.000 C 
ATOM     28  O   UNL     1       7.940   5.630  13.810  0.00  0.00    +0.000 OA
ENDBRANCH  26  28
ENDBRANCH  20  26
ENDBRANCH  16  20
ENDBRANCH   1  18
TORSDOF 8
ENDMDL
MODEL 4
REMARK VINA RESULT:      -7.1      6.146      8.421
REMARK  Name = 
REMARK  10 active torsions:
REMARK  status: ('A' for Active; 'I' for Inactive)
REMARK    1  A    between atoms: C_1  and  O_2
REMARK    2  A    between atoms: O_2  and  C_3
REMARK    3  A    between atoms: C_3  and  C_4
REMARK    4  A    between atoms: C_4  and  N_5
REMARK    5  A    between atoms: C_4  and  C_9
REMARK    6  A    between atoms: C_6  and  C_7
REMARK    7  A    between atoms: N_11  and  C_12
REMARK    8  A    between atoms: C_12  and  C_13
REMARK    9  A    between atoms: C_16  and  N_17
REMARK   10  A    between atoms: C_18  and  C_20
REMARK                            x       y       z     vdW  Elec       q    Type
REMARK                         _______ _______ _______ _____ _____    ______ ____
ROOT
ATOM      1  C   UNL     1       8.163   8.826  17.517  0.00  0.00    +0.000 C 
ENDROOT
BRANCH   1   2
ATOM      2  C   UNL     1       7.453   7.534  17.824  0.00  0.00    +0.000 A 
ATOM      3  C   UNL     1       6.270   7.205  17.154  0.00  0.00    +0.000 A 
ATOM      4  C   UNL     1       5.619   5.991  17.404  0.00  0.00    +0.000 A 
ATOM      5  C   UNL     1       6.123   5.085  18.338  0.00  0.00    +0.000 A 
ATOM      6  C   UNL     1       7.286   5.428  19.039  0.00  0.00    +0.000 A 
ATOM      7  C   UNL     1       7.942   6.644  18.788  0.00  0.00    +0.000 A 
BRANCH   5   8
ATOM      8  N   UNL     1       5.526   3.834  18.615  0.00  0.00    +0.000 N 
ATOM      9  C   UNL     1       4.348   3.600  19.333  0.00  0.00    +0.000 C 
ATOM     10  O   UNL     1       3.641   4.471  19.841  0.00  0.00    +0.000 OA
ATOM     11  H   UNL     1       5.995   3.014  18.238  0.00  0.00    +0.000 HD
BRANCH   9  12
ATOM     12  C   UNL     1       3.982   2.107  19.445  0.00  0.00    +0.000 C 
ATOM     13  F   UNL     1       2.787   1.921  20.083  0.00  0.00    +0.000 F 
ATOM     14  F   UNL     1       3.862   1.507  18.230  0.00  0.00    +0.000 F 
ATOM     15  F   UNL     1       4.904   1.392  20.147  0.00  0.00    +0.000 F 
ENDBRANCH   9  12
ENDBRANCH   5   8
ENDBRANCH   1   2
BRANCH   1  18
ATOM     16  C   UNL     1       9.258  10.624  18.781  0.00  0.00    +0.000 C 
ATOM     17  O   UNL     1       8.799  11.501  18.050  0.00  0.00    +0.000 OA
ATOM     18  N   UNL     1       8.936   9.293  18.638  0.00  0.00    +0.000 N 
ATOM     19  H   UNL     1       9.476   8.610  19.172  0.00  0.00    +0.000 HD
BRANCH  16  20
ATOM     20  C   UNL     1      10.193  10.958  19.957  0.00  0.00    +0.000 C 
BRANCH  20  21
ATOM     21  N   UNL     1       9.457  11.025  21.231  0.00  0.00    +0.000 N 
ATOM     22  C   UNL     1       8.732  12.106  21.655  0.00  0.00    +0.000 C 
ATOM     23  C   UNL     1       8.095  11.952  23.007  0.00  0.00    +0.000 C 
ATOM     24  O   UNL     1       8.567  13.116  20.974  0.00  0.00    +0.000 OA
ATOM     25  H   UNL     1       9.613  10.262  21.875  0.00  0.00    +0.000 HD
ENDBRANCH  20  21
BRANCH  20  26
ATOM     26  C   UNL     1      11.044  12.192  19.619  0.00  0.00    +0.000 C 
BRANCH  26  28
ATOM     27  C   UNL     1      12.054  13.038  17.667  0.00  0.00    +0.000 C 
ATOM     28  O   UNL     1      11.932  11.909  18.528  0.00  0.00    +0.000 OA
ENDBRANCH  26  28
ENDBRANCH  20  26
ENDBRANCH  16  20
ENDBRANCH   1  18
TORSDOF 8
ENDMDL
MODEL 5
REMARK VINA RESULT:      -7.1      1.716      2.024
REMARK  Name = 
REMARK  10 active torsions:
REMARK  status: ('A' for Active; 'I' for Inactive)
REMARK    1  A    between atoms: C_1  and  O_2
REMARK    2  A    between atoms: O_2  and  C_3
REMARK    3  A    between atoms: C_3  and  C_4
REMARK    4  A    between atoms: C_4  and  N_5
REMARK    5  A    between atoms: C_4  and  C_9
REMARK    6  A    between atoms: C_6  and  C_7
REMARK    7  A    between atoms: N_11  and  C_12
REMARK    8  A    between atoms: C_12  and  C_13
REMARK    9  A    between atoms: C_16  and  N_17
REMARK   10  A    between atoms: C_18  and  C_20
REMARK                            x       y       z     vdW  Elec       q    Type
REMARK                         _______ _______ _______ _____ _____    ______ ____
ROOT
ATOM      1  C   UNL     1       3.335   4.591  17.864  0.00  0.00    +0.000 C 
ENDROOT
BRANCH   1   2
ATOM      2  C   UNL     1       2.800   5.780  18.616  0.00  0.00    +0.000 A 
ATOM      3  C   UNL     1       2.810   7.048  18.027  0.00  0.00    +0.000 A 
ATOM      4  C   UNL     1       2.283   8.157  18.701  0.00  0.00    +0.000 A 
ATOM      5  C   UNL     1       1.748   8.029  19.983  0.00  0.00    +0.000 A 
ATOM      6  C   UNL     1       1.770   6.768  20.592  0.00  0.00    +0.000 A 
ATOM      7  C   UNL     1       2.297   5.655  19.917  0.00  0.00    +0.000 A 
BRANCH   5   8
ATOM      8  N   UNL     1       1.179   9.104  20.703  0.00  0.00    +0.000 N 
ATOM      9  C   UNL     1       0.106   9.911  20.312  0.00  0.00    +0.000 C 
ATOM     10  O   UNL     1      -0.517   9.800  19.255  0.00  0.00    +0.000 OA
ATOM     11  H   UNL     1       1.585   9.304  21.615  0.00  0.00    +0.000 HD
BRANCH   9  12
ATOM     12  C   UNL     1      -0.259  10.994  21.345  0.00  0.00    +0.000 C 
ATOM     13  F   UNL     1      -0.236  10.511  22.623  0.00  0.00    +0.000 F 
ATOM     14  F   UNL     1       0.601  12.048  21.321  0.00  0.00    +0.000 F 
ATOM     15  F   UNL     1      -1.508  11.502  21.154  0.00  0.00    +0.000 F 
ENDBRANCH   9  12
ENDBRANCH   5   8
ENDBRANCH   1   2
BRANCH   1  18
ATOM     16  C   UNL     1       5.773   4.748  17.618  0.00  0.00    +0.000 C 
ATOM     17  O   UNL     1       5.980   4.179  18.689  0.00  0.00    +0.000 OA
ATOM     18  N   UNL     1       4.509   4.924  17.100  0.00  0.00    +0.000 N 
ATOM     19  H   UNL     1       4.403   5.543  16.294  0.00  0.00    +0.000 HD
BRANCH  16  20
ATOM     20  C   UNL     1       6.928   5.264  16.739  0.00  0.00    +0.000 C 
BRANCH  20  21
ATOM     21  N   UNL     1       7.091   6.722  16.862  0.00  0.00    +0.000 N 
ATOM     22  C   UNL     1       7.749   7.347  17.885  0.00  0.00    +0.000 C 
ATOM     23  C   UNL     1       7.755   8.849  17.813  0.00  0.00    +0.000 C 
ATOM     24  O   UNL     1       8.337   6.742  18.778  0.00  0.00    +0.000 OA
ATOM     25  H   UNL     1       6.566   7.284  16.205  0.00  0.00    +0.000 HD
ENDBRANCH  20  21
BRANCH  20  26
ATOM     26  C   UNL     1       6.775   4.734  15.305  0.00  0.00    +0.000 C 
BRANCH  26  28
ATOM     27  C   UNL     1       7.491   4.969  13.074  0.00  0.00    +0.000 C 
ATOM     28  O   UNL     1       7.658   5.428  14.413  0.00  0.00    +0.000 OA
ENDBRANCH  26  28
ENDBRANCH  20  26
ENDBRANCH  16  20
ENDBRANCH   1  18
TORSDOF 8
ENDMDL
MODEL 6
REMARK VINA RESULT:      -7.0      0.772      1.479
REMARK  Name = 
REMARK  10 active torsions:
REMARK  status: ('A' for Active; 'I' for Inactive)
REMARK    1  A    between atoms: C_1  and  O_2
REMARK    2  A    between atoms: O_2  and  C_3
REMARK    3  A    between atoms: C_3  and  C_4
REMARK    4  A    between atoms: C_4  and  N_5
REMARK    5  A    between atoms: C_4  and  C_9
REMARK    6  A    between atoms: C_6  and  C_7
REMARK    7  A    between atoms: N_11  and  C_12
REMARK    8  A    between atoms: C_12  and  C_13
REMARK    9  A    between atoms: C_16  and  N_17
REMARK   10  A    between atoms: C_18  and  C_20
REMARK                            x       y       z     vdW  Elec       q    Type
REMARK                         _______ _______ _______ _____ _____    ______ ____
ROOT
ATOM      1  C   UNL     1       3.469   5.242  18.415  0.00  0.00    +0.000 C 
ENDROOT
BRANCH   1   2
ATOM      2  C   UNL     1       2.788   6.570  18.619  0.00  0.00    +0.000 A 
ATOM      3  C   UNL     1       2.159   6.859  19.834  0.00  0.00    +0.000 A 
ATOM      4  C   UNL     1       1.553   8.103  20.049  0.00  0.00    +0.000 A 
ATOM      5  C   UNL     1       1.545   9.080  19.054  0.00  0.00    +0.000 A 
ATOM      6  C   UNL     1       2.140   8.780  17.822  0.00  0.00    +0.000 A 
ATOM      7  C   UNL     1       2.751   7.534  17.604  0.00  0.00    +0.000 A 
BRANCH   5   8
ATOM      8  N   UNL     1       0.973  10.361  19.219  0.00  0.00    +0.000 N 
ATOM      9  C   UNL     1      -0.242  10.819  18.698  0.00  0.00    +0.000 C 
ATOM     10  O   UNL     1      -1.009  10.155  18.000  0.00  0.00    +0.000 OA
ATOM     11  H   UNL     1       1.493  11.019  19.795  0.00  0.00    +0.000 HD
BRANCH   9  12
ATOM     12  C   UNL     1      -0.565  12.277  19.078  0.00  0.00    +0.000 C 
ATOM     13  F   UNL     1       0.208  12.718  20.116  0.00  0.00    +0.000 F 
ATOM     14  F   UNL     1      -0.354  13.143  18.051  0.00  0.00    +0.000 F 
ATOM     15  F   UNL     1      -1.858  12.442  19.471  0.00  0.00    +0.000 F 
ENDBRANCH   9  12
ENDBRANCH   5   8
ENDBRANCH   1   2
BRANCH   1  18
ATOM     16  C   UNL     1       5.861   4.840  18.033  0.00  0.00    +0.000 C 
ATOM     17  O   UNL     1       5.962   4.124  19.028  0.00  0.00    +0.000 OA
ATOM     18  N   UNL     1       4.660   5.368  17.616  0.00  0.00    +0.000 N 
ATOM     19  H   UNL     1       4.678   6.079  16.883  0.00  0.00    +0.000 HD
BRANCH  16  20
ATOM     20  C   UNL     1       7.073   5.159  17.139  0.00  0.00    +0.000 C 
BRANCH  20  21
ATOM     21  N   UNL     1       7.280   6.611  17.007  0.00  0.00    +0.000 N 
ATOM     22  C   UNL     1       7.876   7.400  17.953  0.00  0.00    +0.000 C 
ATOM     23  C   UNL     1       7.944   8.862  17.608  0.00  0.00    +0.000 C 
ATOM     24  O   UNL     1       8.366   6.958  18.989  0.00  0.00    +0.000 OA
ATOM     25  H   UNL     1       6.832   7.053  16.216  0.00  0.00    +0.000 HD
ENDBRANCH  20  21
BRANCH  20  26
ATOM     26  C   UNL     1       6.970   4.383  15.817  0.00  0.00    +0.000 C 
BRANCH  26  28
ATOM     27  C   UNL     1       5.645   4.168  13.882  0.00  0.00    +0.000 C 
ATOM     28  O   UNL     1       6.093   5.056  14.903  0.00  0.00    +0.000 OA
ENDBRANCH  26  28
ENDBRANCH  20  26
ENDBRANCH  16  20
ENDBRANCH   1  18
TORSDOF 8
ENDMDL
MODEL 7
REMARK VINA RESULT:      -7.0      2.022      2.265
REMARK  Name = 
REMARK  10 active torsions:
REMARK  status: ('A' for Active; 'I' for Inactive)
REMARK    1  A    between atoms: C_1  and  O_2
REMARK    2  A    between atoms: O_2  and  C_3
REMARK    3  A    between atoms: C_3  and  C_4
REMARK    4  A    between atoms: C_4  and  N_5
REMARK    5  A    between atoms: C_4  and  C_9
REMARK    6  A    between atoms: C_6  and  C_7
REMARK    7  A    between atoms: N_11  and  C_12
REMARK    8  A    between atoms: C_12  and  C_13
REMARK    9  A    between atoms: C_16  and  N_17
REMARK   10  A    between atoms: C_18  and  C_20
REMARK                            x       y       z     vdW  Elec       q    Type
REMARK                         _______ _______ _______ _____ _____    ______ ____
ROOT
ATOM      1  C   UNL     1       3.696   5.047  18.164  0.00  0.00    +0.000 C 
ENDROOT
BRANCH   1   2
ATOM      2  C   UNL     1       2.952   6.236  18.713  0.00  0.00    +0.000 A 
ATOM      3  C   UNL     1       2.864   7.416  17.967  0.00  0.00    +0.000 A 
ATOM      4  C   UNL     1       2.146   8.517  18.450  0.00  0.00    +0.000 A 
ATOM      5  C   UNL     1       1.512   8.472  19.692  0.00  0.00    +0.000 A 
ATOM      6  C   UNL     1       1.630   7.305  20.458  0.00  0.00    +0.000 A 
ATOM      7  C   UNL     1       2.348   6.200  19.975  0.00  0.00    +0.000 A 
BRANCH   5   8
ATOM      8  N   UNL     1       0.752   9.539  20.221  0.00  0.00    +0.000 N 
ATOM      9  C   UNL     1       0.828  10.074  21.511  0.00  0.00    +0.000 C 
ATOM     10  O   UNL     1       1.589   9.683  22.397  0.00  0.00    +0.000 OA
ATOM     11  H   UNL     1       0.086   9.979  19.589  0.00  0.00    +0.000 HD
BRANCH   9  12
ATOM     12  C   UNL     1      -0.149  11.241  21.754  0.00  0.00    +0.000 C 
ATOM     13  F   UNL     1      -0.636  11.242  23.031  0.00  0.00    +0.000 F 
ATOM     14  F   UNL     1       0.434  12.456  21.568  0.00  0.00    +0.000 F 
ATOM     15  F   UNL     1      -1.233  11.196  20.932  0.00  0.00    +0.000 F 
ENDBRANCH   9  12
ENDBRANCH   5   8
ENDBRANCH   1   2
BRANCH   1  18
ATOM     16  C   UNL     1       6.060   5.078  17.501  0.00  0.00    +0.000 C 
ATOM     17  O   UNL     1       6.384   4.293  18.391  0.00  0.00    +0.000 OA
ATOM     18  N   UNL     1       4.753   5.443  17.269  0.00  0.00    +0.000 N 
ATOM     19  H   UNL     1       4.578   6.216  16.625  0.00  0.00    +0.000 HD
BRANCH  16  20
ATOM     20  C   UNL     1       7.097   5.676  16.532  0.00  0.00    +0.000 C 
BRANCH  20  21
ATOM     21  N   UNL     1       7.304   7.112  16.782  0.00  0.00    +0.000 N 
ATOM     22  C   UNL     1       7.884   7.631  17.908  0.00  0.00    +0.000 C 
ATOM     23  C   UNL     1       7.955   9.132  17.952  0.00  0.00    +0.000 C 
ATOM     24  O   UNL     1       8.357   6.935  18.804  0.00  0.00    +0.000 OA
ATOM     25  H   UNL     1       6.868   7.745  16.124  0.00  0.00    +0.000 HD
ENDBRANCH  20  21
BRANCH  20  26
ATOM     26  C   UNL     1       6.744   5.300  15.085  0.00  0.00    +0.000 C 
BRANCH  26  28
ATOM     27  C   UNL     1       5.900   3.608  13.683  0.00  0.00    +0.000 C 
ATOM     28  O   UNL     1       6.260   3.951  15.018  0.00  0.00    +0.000 OA
ENDBRANCH  26  28
ENDBRANCH  20  26
ENDBRANCH  16  20
ENDBRANCH   1  18
TORSDOF 8
ENDMDL
MODEL 8
REMARK VINA RESULT:      -7.0      0.716      1.019
REMARK  Name = 
REMARK  10 active torsions:
REMARK  status: ('A' for Active; 'I' for Inactive)
REMARK    1  A    between atoms: C_1  and  O_2
REMARK    2  A    between atoms: O_2  and  C_3
REMARK    3  A    between atoms: C_3  and  C_4
REMARK    4  A    between atoms: C_4  and  N_5
REMARK    5  A    between atoms: C_4  and  C_9
REMARK    6  A    between atoms: C_6  and  C_7
REMARK    7  A    between atoms: N_11  and  C_12
REMARK    8  A    between atoms: C_12  and  C_13
REMARK    9  A    between atoms: C_16  and  N_17
REMARK   10  A    between atoms: C_18  and  C_20
REMARK                            x       y       z     vdW  Elec       q    Type
REMARK                         _______ _______ _______ _____ _____    ______ ____
ROOT
ATOM      1  C   UNL     1       3.331   5.642  19.427  0.00  0.00    +0.000 C 
ENDROOT
BRANCH   1   2
ATOM      2  C   UNL     1       2.567   6.936  19.323  0.00  0.00    +0.000 A 
ATOM      3  C   UNL     1       2.559   7.652  18.122  0.00  0.00    +0.000 A 
ATOM      4  C   UNL     1       1.824   8.838  18.000  0.00  0.00    +0.000 A 
ATOM      5  C   UNL     1       1.094   9.344  19.075  0.00  0.00    +0.000 A 
ATOM      6  C   UNL     1       1.131   8.649  20.291  0.00  0.00    +0.000 A 
ATOM      7  C   UNL     1       1.865   7.459  20.415  0.00  0.00    +0.000 A 
BRANCH   5   8
ATOM      8  N   UNL     1       0.314  10.520  19.007  0.00  0.00    +0.000 N 
ATOM      9  C   UNL     1      -0.865  10.713  18.278  0.00  0.00    +0.000 C 
ATOM     10  O   UNL     1      -1.409   9.863  17.572  0.00  0.00    +0.000 OA
ATOM     11  H   UNL     1       0.635  11.310  19.561  0.00  0.00    +0.000 HD
BRANCH   9  12
ATOM     12  C   UNL     1      -1.460  12.125  18.432  0.00  0.00    +0.000 C 
ATOM     13  F   UNL     1      -1.305  12.610  19.700  0.00  0.00    +0.000 F 
ATOM     14  F   UNL     1      -0.874  13.031  17.604  0.00  0.00    +0.000 F 
ATOM     15  F   UNL     1      -2.796  12.163  18.172  0.00  0.00    +0.000 F 
ENDBRANCH   9  12
ENDBRANCH   5   8
ENDBRANCH   1   2
BRANCH   1  18
ATOM     16  C   UNL     1       5.416   4.655  18.584  0.00  0.00    +0.000 C 
ATOM     17  O   UNL     1       5.422   3.779  19.447  0.00  0.00    +0.000 OA
ATOM     18  N   UNL     1       4.389   5.564  18.454  0.00  0.00    +0.000 N 
ATOM     19  H   UNL     1       4.528   6.357  17.825  0.00  0.00    +0.000 HD
BRANCH  16  20
ATOM     20  C   UNL     1       6.541   4.771  17.539  0.00  0.00    +0.000 C 
BRANCH  20  21
ATOM     21  N   UNL     1       7.401   5.937  17.798  0.00  0.00    +0.000 N 
ATOM     22  C   UNL     1       7.111   7.218  17.416  0.00  0.00    +0.000 C 
ATOM     23  C   UNL     1       8.160   8.238  17.762  0.00  0.00    +0.000 C 
ATOM     24  O   UNL     1       6.056   7.537  16.871  0.00  0.00    +0.000 OA
ATOM     25  H   UNL     1       8.319   5.737  18.172  0.00  0.00    +0.000 HD
ENDBRANCH  20  21
BRANCH  20  26
ATOM     26  C   UNL     1       5.953   4.683  16.123  0.00  0.00    +0.000 C 
BRANCH  26  28
ATOM     27  C   UNL     1       6.387   4.045  13.898  0.00  0.00    +0.000 C 
ATOM     28  O   UNL     1       6.957   4.271  15.184  0.00  0.00    +0.000 OA
ENDBRANCH  26  28
ENDBRANCH  20  26
ENDBRANCH  16  20
ENDBRANCH   1  18
TORSDOF 8
ENDMDL
MODEL 9
REMARK VINA RESULT:      -7.0      2.656      4.265
REMARK  Name = 
REMARK  10 active torsions:
REMARK  status: ('A' for Active; 'I' for Inactive)
REMARK    1  A    between atoms: C_1  and  O_2
REMARK    2  A    between atoms: O_2  and  C_3
REMARK    3  A    between atoms: C_3  and  C_4
REMARK    4  A    between atoms: C_4  and  N_5
REMARK    5  A    between atoms: C_4  and  C_9
REMARK    6  A    between atoms: C_6  and  C_7
REMARK    7  A    between atoms: N_11  and  C_12
REMARK    8  A    between atoms: C_12  and  C_13
REMARK    9  A    between atoms: C_16  and  N_17
REMARK   10  A    between atoms: C_18  and  C_20
REMARK                            x       y       z     vdW  Elec       q    Type
REMARK                         _______ _______ _______ _____ _____    ______ ____
ROOT
ATOM      1  C   UNL     1       3.085   7.692  17.766  0.00  0.00    +0.000 C 
ENDROOT
BRANCH   1   2
ATOM      2  C   UNL     1       2.107   8.384  18.678  0.00  0.00    +0.000 A 
ATOM      3  C   UNL     1       1.932   7.937  19.992  0.00  0.00    +0.000 A 
ATOM      4  C   UNL     1       1.052   8.593  20.861  0.00  0.00    +0.000 A 
ATOM      5  C   UNL     1       0.316   9.699  20.438  0.00  0.00    +0.000 A 
ATOM      6  C   UNL     1       0.459  10.127  19.111  0.00  0.00    +0.000 A 
ATOM      7  C   UNL     1       1.343   9.471  18.238  0.00  0.00    +0.000 A 
BRANCH   5   8
ATOM      8  N   UNL     1      -0.568  10.418  21.274  0.00  0.00    +0.000 N 
ATOM      9  C   UNL     1      -0.354  11.674  21.851  0.00  0.00    +0.000 C 
ATOM     10  O   UNL     1       0.663  12.355  21.710  0.00  0.00    +0.000 OA
ATOM     11  H   UNL     1      -1.467   9.981  21.466  0.00  0.00    +0.000 HD
BRANCH   9  12
ATOM     12  C   UNL     1      -1.533  12.167  22.710  0.00  0.00    +0.000 C 
ATOM     13  F   UNL     1      -1.151  13.138  23.593  0.00  0.00    +0.000 F 
ATOM     14  F   UNL     1      -2.535  12.704  21.963  0.00  0.00    +0.000 F 
ATOM     15  F   UNL     1      -2.090  11.173  23.456  0.00  0.00    +0.000 F 
ENDBRANCH   9  12
ENDBRANCH   5   8
ENDBRANCH   1   2
BRANCH   1  18
ATOM     16  C   UNL     1       4.196   5.515  17.521  0.00  0.00    +0.000 C 
ATOM     17  O   UNL     1       4.614   5.786  16.396  0.00  0.00    +0.000 OA
ATOM     18  N   UNL     1       3.503   6.419  18.295  0.00  0.00    +0.000 N 
ATOM     19  H   UNL     1       3.050   6.075  19.143  0.00  0.00    +0.000 HD
BRANCH  16  20
ATOM     20  C   UNL     1       4.466   4.149  18.178  0.00  0.00    +0.000 C 
BRANCH  20  21
ATOM     21  N   UNL     1       3.239   3.577  18.757  0.00  0.00    +0.000 N 
ATOM     22  C   UNL     1       2.190   3.086  18.029  0.00  0.00    +0.000 C 
ATOM     23  C   UNL     1       1.031   2.584  18.844  0.00  0.00    +0.000 C 
ATOM     24  O   UNL     1       2.197   3.012  16.802  0.00  0.00    +0.000 OA
ATOM     25  H   UNL     1       3.132   3.678  19.758  0.00  0.00    +0.000 HD
ENDBRANCH  20  21
BRANCH  20  26
ATOM     26  C   UNL     1       5.664   4.253  19.134  0.00  0.00    +0.000 C 
BRANCH  26  28
ATOM     27  C   UNL     1       7.593   5.596  19.007  0.00  0.00    +0.000 C 
ATOM     28  O   UNL     1       6.869   4.526  18.406  0.00  0.00    +0.000 OA
ENDBRANCH  26  28
ENDBRANCH  20  26
ENDBRANCH  16  20
ENDBRANCH   1  18
TORSDOF 8
ENDMDL
