MODEL 1
REMARK VINA RESULT:      -6.9      0.000      0.000
REMARK  Name = 
REMARK  13 active torsions:
REMARK  status: ('A' for Active; 'I' for Inactive)
REMARK    1  A    between atoms: C_1  and  C_2
REMARK    2  A    between atoms: C_2  and  C_3
REMARK    3  A    between atoms: C_3  and  C_4
REMARK    4  A    between atoms: C_4  and  N_5
REMARK    5  A    between atoms: N_5  and  C_25
REMARK    6  A    between atoms: C_6  and  C_8
REMARK    7  A    between atoms: C_11  and  C_12
REMARK    8  A    between atoms: C_12  and  C_13
REMARK    9  A    between atoms: C_12  and  C_14
REMARK   10  A    between atoms: C_12  and  C_15
REMARK   11  A    between atoms: C_17  and  N_18
REMARK   12  A    between atoms: N_18  and  C_19
REMARK   13  A    between atoms: C_19  and  C_20
REMARK                            x       y       z     vdW  Elec       q    Type
REMARK                         _______ _______ _______ _____ _____    ______ ____
ROOT
ATOM      1  C   UNL     1       2.493   6.737  18.314  0.00  0.00    +0.000 A 
ATOM      2  C   UNL     1       1.513   5.790  18.491  0.00  0.00    +0.000 A 
ATOM      3  N   UNL     1       1.718   4.520  18.884  0.00  0.00    +0.000 NA
ATOM      4  C   UNL     1       2.994   4.144  18.994  0.00  0.00    +0.000 A 
ATOM      5  N   UNL     1       4.012   4.909  18.559  0.00  0.00    +0.000 NA
ATOM      6  C   UNL     1       3.763   6.190  18.182  0.00  0.00    +0.000 A 
ENDROOT
BRANCH   4   7
ATOM      7  C   UNL     1       3.304   2.773  19.593  0.00  0.00    +0.000 C 
ATOM      8  C   UNL     1       2.516   2.531  20.898  0.00  0.00    +0.000 C 
ATOM      9  C   UNL     1       2.917   1.698  18.571  0.00  0.00    +0.000 C 
ATOM     10  C   UNL     1       4.804   2.667  19.929  0.00  0.00    +0.000 C 
ENDBRANCH   4   7
BRANCH   1  12
ATOM     11  N   UNL     1       1.502   8.857  19.296  0.00  0.00    +0.000 N 
ATOM     12  C   UNL     1       2.141   8.187  18.206  0.00  0.00    +0.000 C 
ATOM     13  O   UNL     1       2.450   8.771  17.170  0.00  0.00    +0.000 OA
BRANCH  11  14
ATOM     14  C   UNL     1       1.547   8.325  20.708  0.00  0.00    +0.000 C 
ATOM     15  C   UNL     1       0.242   7.621  21.140  0.00  0.00    +0.000 C 
ATOM     16  C   UNL     1      -0.829   8.552  21.690  0.00  0.00    +0.000 C 
ATOM     17  C   UNL     1      -0.284   9.549  22.702  0.00  0.00    +0.000 C 
ATOM     18  N   UNL     1       0.889  10.263  22.207  0.00  0.00    +0.000 NA
ATOM     19  C   UNL     1       1.962   9.349  21.806  0.00  0.00    +0.000 C 
ATOM     20  H   UNL     1       1.227  10.893  22.938  0.00  0.00    +0.000 HD
ENDBRANCH  11  14
BRANCH  11  21
ATOM     21  C   UNL     1       1.184  10.298  19.189  0.00  0.00    +0.000 C 
BRANCH  21  22
ATOM     22  C   UNL     1      -0.199  10.822  18.803  0.00  0.00    +0.000 C 
BRANCH  22  24
ATOM     23  C   UNL     1      -2.428  10.087  17.959  0.00  0.00    +0.000 C 
ATOM     24  C   UNL     1      -0.922  10.009  17.737  0.00  0.00    +0.000 C 
ENDBRANCH  22  24
ENDBRANCH  21  22
ENDBRANCH  11  21
ENDBRANCH   1  12
BRANCH   6  25
ATOM     25  N   UNL     1       4.808   6.884  17.579  0.00  0.00    +0.000 N 
ATOM     26  H   UNL     1       4.875   7.859  17.846  0.00  0.00    +0.000 HD
BRANCH  25  27
ATOM     27  C   UNL     1       6.058   6.164  17.380  0.00  0.00    +0.000 C 
BRANCH  27  28
ATOM     28  C   UNL     1       6.166   5.439  16.079  0.00  0.00    +0.000 A 
ATOM     29  C   UNL     1       5.321   4.609  15.369  0.00  0.00    +0.000 A 
ATOM     30  C   UNL     1       6.013   4.253  14.184  0.00  0.00    +0.000 A 
ATOM     31  C   UNL     1       7.241   4.865  14.259  0.00  0.00    +0.000 A 
ATOM     32  O   UNL     1       7.346   5.584  15.404  0.00  0.00    +0.000 OA
ENDBRANCH  27  28
ENDBRANCH  25  27
ENDBRANCH   6  25
TORSDOF 9
ENDMDL
MODEL 2
REMARK VINA RESULT:      -6.7      0.572      1.016
REMARK  Name = 
REMARK  13 active torsions:
REMARK  status: ('A' for Active; 'I' for Inactive)
REMARK    1  A    between atoms: C_1  and  C_2
REMARK    2  A    between atoms: C_2  and  C_3
REMARK    3  A    between atoms: C_3  and  C_4
REMARK    4  A    between atoms: C_4  and  N_5
REMARK    5  A    between atoms: N_5  and  C_25
REMARK    6  A    between atoms: C_6  and  C_8
REMARK    7  A    between atoms: C_11  and  C_12
REMARK    8  A    between atoms: C_12  and  C_13
REMARK    9  A    between atoms: C_12  and  C_14
REMARK   10  A    between atoms: C_12  and  C_15
REMARK   11  A    between atoms: C_17  and  N_18
REMARK   12  A    between atoms: N_18  and  C_19
REMARK   13  A    between atoms: C_19  and  C_20
REMARK                            x       y       z     vdW  Elec       q    Type
REMARK                         _______ _______ _______ _____ _____    ______ ____
ROOT
ATOM      1  C   UNL     1       2.485   6.649  18.217  0.00  0.00    +0.000 A 
ATOM      2  C   UNL     1       1.467   5.729  18.137  0.00  0.00    +0.000 A 
ATOM      3  N   UNL     1       1.574   4.420  18.429  0.00  0.00    +0.000 NA
ATOM      4  C   UNL     1       2.805   3.985  18.705  0.00  0.00    +0.000 A 
ATOM      5  N   UNL     1       3.899   4.747  18.521  0.00  0.00    +0.000 NA
ATOM      6  C   UNL     1       3.745   6.067  18.238  0.00  0.00    +0.000 A 
ENDROOT
BRANCH   4   7
ATOM      7  C   UNL     1       2.980   2.553  19.206  0.00  0.00    +0.000 C 
ATOM      8  C   UNL     1       3.584   1.639  18.119  0.00  0.00    +0.000 C 
ATOM      9  C   UNL     1       3.919   2.574  20.418  0.00  0.00    +0.000 C 
ATOM     10  C   UNL     1       1.615   1.959  19.608  0.00  0.00    +0.000 C 
ENDBRANCH   4   7
BRANCH   1  12
ATOM     11  N   UNL     1       1.557   8.737  19.323  0.00  0.00    +0.000 N 
ATOM     12  C   UNL     1       2.189   8.115  18.200  0.00  0.00    +0.000 C 
ATOM     13  O   UNL     1       2.537   8.753  17.209  0.00  0.00    +0.000 OA
BRANCH  11  14
ATOM     14  C   UNL     1       1.559   8.114  20.697  0.00  0.00    +0.000 C 
ATOM     15  C   UNL     1       0.193   7.518  21.102  0.00  0.00    +0.000 C 
ATOM     16  C   UNL     1      -0.775   8.514  21.724  0.00  0.00    +0.000 C 
ATOM     17  C   UNL     1      -0.123   9.384  22.790  0.00  0.00    +0.000 C 
ATOM     18  N   UNL     1       1.111  10.007  22.325  0.00  0.00    +0.000 NA
ATOM     19  C   UNL     1       2.084   9.017  21.852  0.00  0.00    +0.000 C 
ATOM     20  H   UNL     1       1.517  10.551  23.090  0.00  0.00    +0.000 HD
ENDBRANCH  11  14
BRANCH  11  21
ATOM     21  C   UNL     1       1.296  10.194  19.306  0.00  0.00    +0.000 C 
BRANCH  21  22
ATOM     22  C   UNL     1      -0.025  10.799  18.835  0.00  0.00    +0.000 C 
BRANCH  22  24
ATOM     23  C   UNL     1      -2.299  10.166  18.030  0.00  0.00    +0.000 C 
ATOM     24  C   UNL     1      -0.803   9.953  17.835  0.00  0.00    +0.000 C 
ENDBRANCH  22  24
ENDBRANCH  21  22
ENDBRANCH  11  21
ENDBRANCH   1  12
BRANCH   6  25
ATOM     25  N   UNL     1       4.891   6.773  17.886  0.00  0.00    +0.000 N 
ATOM     26  H   UNL     1       5.695   6.592  18.476  0.00  0.00    +0.000 HD
BRANCH  25  27
ATOM     27  C   UNL     1       5.142   6.970  16.466  0.00  0.00    +0.000 C 
BRANCH  27  28
ATOM     28  C   UNL     1       5.699   5.782  15.754  0.00  0.00    +0.000 A 
ATOM     29  C   UNL     1       5.154   4.606  15.277  0.00  0.00    +0.000 A 
ATOM     30  C   UNL     1       6.218   3.886  14.678  0.00  0.00    +0.000 A 
ATOM     31  C   UNL     1       7.345   4.654  14.850  0.00  0.00    +0.000 A 
ATOM     32  O   UNL     1       7.043   5.804  15.504  0.00  0.00    +0.000 OA
ENDBRANCH  27  28
ENDBRANCH  25  27
ENDBRANCH   6  25
TORSDOF 9
ENDMDL
MODEL 3
REMARK VINA RESULT:      -6.7      0.598      1.193
REMARK  Name = 
REMARK  13 active torsions:
REMARK  status: ('A' for Active; 'I' for Inactive)
REMARK    1  A    between atoms: C_1  and  C_2
REMARK    2  A    between atoms: C_2  and  C_3
REMARK    3  A    between atoms: C_3  and  C_4
REMARK    4  A    between atoms: C_4  and  N_5
REMARK    5  A    between atoms: N_5  and  C_25
REMARK    6  A    between atoms: C_6  and  C_8
REMARK    7  A    between atoms: C_11  and  C_12
REMARK    8  A    between atoms: C_12  and  C_13
REMARK    9  A    between atoms: C_12  and  C_14
REMARK   10  A    between atoms: C_12  and  C_15
REMARK   11  A    between atoms: C_17  and  N_18
REMARK   12  A    between atoms: N_18  and  C_19
REMARK   13  A    between atoms: C_19  and  C_20
REMARK                            x       y       z     vdW  Elec       q    Type
REMARK                         _______ _______ _______ _____ _____    ______ ____
ROOT
ATOM      1  C   UNL     1       2.526   6.574  18.434  0.00  0.00    +0.000 A 
ATOM      2  C   UNL     1       1.518   5.643  18.511  0.00  0.00    +0.000 A 
ATOM      3  N   UNL     1       1.656   4.378  18.948  0.00  0.00    +0.000 NA
ATOM      4  C   UNL     1       2.904   3.988  19.214  0.00  0.00    +0.000 A 
ATOM      5  N   UNL     1       3.978   4.731  18.889  0.00  0.00    +0.000 NA
ATOM      6  C   UNL     1       3.794   6.008  18.463  0.00  0.00    +0.000 A 
ENDROOT
BRANCH   4   7
ATOM      7  C   UNL     1       3.121   2.625  19.869  0.00  0.00    +0.000 C 
ATOM      8  C   UNL     1       4.622   2.319  20.062  0.00  0.00    +0.000 C 
ATOM      9  C   UNL     1       2.434   2.633  21.240  0.00  0.00    +0.000 C 
ATOM     10  C   UNL     1       2.528   1.510  18.988  0.00  0.00    +0.000 C 
ENDBRANCH   4   7
BRANCH   1  12
ATOM     11  N   UNL     1       1.561   8.753  19.307  0.00  0.00    +0.000 N 
ATOM     12  C   UNL     1       2.211   8.026  18.261  0.00  0.00    +0.000 C 
ATOM     13  O   UNL     1       2.559   8.560  17.211  0.00  0.00    +0.000 OA
BRANCH  11  14
ATOM     14  C   UNL     1       1.560   8.278  20.740  0.00  0.00    +0.000 C 
ATOM     15  C   UNL     1       0.216   7.654  21.177  0.00  0.00    +0.000 C 
ATOM     16  C   UNL     1      -0.818   8.654  21.670  0.00  0.00    +0.000 C 
ATOM     17  C   UNL     1      -0.242   9.665  22.651  0.00  0.00    +0.000 C 
ATOM     18  N   UNL     1       0.970  10.303  22.148  0.00  0.00    +0.000 NA
ATOM     19  C   UNL     1       2.006   9.325  21.803  0.00  0.00    +0.000 C 
ATOM     20  H   UNL     1       1.327  10.946  22.860  0.00  0.00    +0.000 HD
ENDBRANCH  11  14
BRANCH  11  21
ATOM     21  C   UNL     1       1.281  10.196  19.135  0.00  0.00    +0.000 C 
BRANCH  21  22
ATOM     22  C   UNL     1      -0.045  10.729  18.592  0.00  0.00    +0.000 C 
BRANCH  22  24
ATOM     23  C   UNL     1      -0.435  13.192  18.539  0.00  0.00    +0.000 C 
ATOM     24  C   UNL     1      -0.622  11.917  19.351  0.00  0.00    +0.000 C 
ENDBRANCH  22  24
ENDBRANCH  21  22
ENDBRANCH  11  21
ENDBRANCH   1  12
BRANCH   6  25
ATOM     25  N   UNL     1       4.913   6.677  17.976  0.00  0.00    +0.000 N 
ATOM     26  H   UNL     1       5.056   7.600  18.369  0.00  0.00    +0.000 HD
BRANCH  25  27
ATOM     27  C   UNL     1       6.101   5.879  17.707  0.00  0.00    +0.000 C 
BRANCH  27  28
ATOM     28  C   UNL     1       6.164   5.284  16.339  0.00  0.00    +0.000 A 
ATOM     29  C   UNL     1       5.363   4.406  15.636  0.00  0.00    +0.000 A 
ATOM     30  C   UNL     1       5.966   4.245  14.363  0.00  0.00    +0.000 A 
ATOM     31  C   UNL     1       7.106   5.013  14.380  0.00  0.00    +0.000 A 
ATOM     32  O   UNL     1       7.237   5.644  15.573  0.00  0.00    +0.000 OA
ENDBRANCH  27  28
ENDBRANCH  25  27
ENDBRANCH   6  25
TORSDOF 9
ENDMDL
MODEL 4
REMARK VINA RESULT:      -6.6      2.106      7.262
REMARK  Name = 
REMARK  13 active torsions:
REMARK  status: ('A' for Active; 'I' for Inactive)
REMARK    1  A    between atoms: C_1  and  C_2
REMARK    2  A    between atoms: C_2  and  C_3
REMARK    3  A    between atoms: C_3  and  C_4
REMARK    4  A    between atoms: C_4  and  N_5
REMARK    5  A    between atoms: N_5  and  C_25
REMARK    6  A    between atoms: C_6  and  C_8
REMARK    7  A    between atoms: C_11  and  C_12
REMARK    8  A    between atoms: C_12  and  C_13
REMARK    9  A    between atoms: C_12  and  C_14
REMARK   10  A    between atoms: C_12  and  C_15
REMARK   11  A    between atoms: C_17  and  N_18
REMARK   12  A    between atoms: N_18  and  C_19
REMARK   13  A    between atoms: C_19  and  C_20
REMARK                            x       y       z     vdW  Elec       q    Type
REMARK                         _______ _______ _______ _____ _____    ______ ____
ROOT
ATOM      1  C   UNL     1       3.507   6.545  18.843  0.00  0.00    +0.000 A 
ATOM      2  C   UNL     1       3.349   7.363  17.749  0.00  0.00    +0.000 A 
ATOM      3  N   UNL     1       2.526   8.426  17.682  0.00  0.00    +0.000 NA
ATOM      4  C   UNL     1       1.727   8.609  18.735  0.00  0.00    +0.000 A 
ATOM      5  N   UNL     1       1.604   7.696  19.716  0.00  0.00    +0.000 NA
ATOM      6  C   UNL     1       2.463   6.644  19.752  0.00  0.00    +0.000 A 
ENDROOT
BRANCH   4   7
ATOM      7  C   UNL     1       0.888   9.883  18.804  0.00  0.00    +0.000 C 
ATOM      8  C   UNL     1       0.344  10.131  20.227  0.00  0.00    +0.000 C 
ATOM      9  C   UNL     1       1.772  11.068  18.395  0.00  0.00    +0.000 C 
ATOM     10  C   UNL     1      -0.322   9.776  17.855  0.00  0.00    +0.000 C 
ENDBRANCH   4   7
BRANCH   1  12
ATOM     11  N   UNL     1       5.171   4.962  17.762  0.00  0.00    +0.000 N 
ATOM     12  C   UNL     1       4.674   5.613  18.934  0.00  0.00    +0.000 C 
ATOM     13  O   UNL     1       5.194   5.463  20.037  0.00  0.00    +0.000 OA
BRANCH  11  14
ATOM     14  C   UNL     1       4.887   5.476  16.371  0.00  0.00    +0.000 C 
ATOM     15  C   UNL     1       4.626   4.352  15.345  0.00  0.00    +0.000 C 
ATOM     16  C   UNL     1       5.879   3.771  14.707  0.00  0.00    +0.000 C 
ATOM     17  C   UNL     1       6.854   4.842  14.238  0.00  0.00    +0.000 C 
ATOM     18  N   UNL     1       7.149   5.823  15.277  0.00  0.00    +0.000 NA
ATOM     19  C   UNL     1       5.935   6.468  15.787  0.00  0.00    +0.000 C 
ATOM     20  H   UNL     1       7.781   6.530  14.896  0.00  0.00    +0.000 HD
ENDBRANCH  11  14
BRANCH  11  21
ATOM     21  C   UNL     1       6.345   4.066  17.861  0.00  0.00    +0.000 C 
BRANCH  21  22
ATOM     22  C   UNL     1       7.782   4.579  17.941  0.00  0.00    +0.000 C 
BRANCH  22  24
ATOM     23  C   UNL     1       8.094   6.974  18.560  0.00  0.00    +0.000 C 
ATOM     24  C   UNL     1       8.060   5.545  19.086  0.00  0.00    +0.000 C 
ENDBRANCH  22  24
ENDBRANCH  21  22
ENDBRANCH  11  21
ENDBRANCH   1  12
BRANCH   6  25
ATOM     25  N   UNL     1       2.190   5.640  20.676  0.00  0.00    +0.000 N 
ATOM     26  H   UNL     1       2.070   5.964  21.628  0.00  0.00    +0.000 HD
BRANCH  25  27
ATOM     27  C   UNL     1       1.336   4.544  20.236  0.00  0.00    +0.000 C 
BRANCH  27  28
ATOM     28  C   UNL     1       2.035   3.471  19.469  0.00  0.00    +0.000 A 
ATOM     29  C   UNL     1       2.946   2.489  19.804  0.00  0.00    +0.000 A 
ATOM     30  C   UNL     1       3.217   1.770  18.613  0.00  0.00    +0.000 A 
ATOM     31  C   UNL     1       2.476   2.374  17.625  0.00  0.00    +0.000 A 
ATOM     32  O   UNL     1       1.759   3.408  18.132  0.00  0.00    +0.000 OA
ENDBRANCH  27  28
ENDBRANCH  25  27
ENDBRANCH   6  25
TORSDOF 9
ENDMDL
MODEL 5
REMARK VINA RESULT:      -6.4      4.773      9.293
REMARK  Name = 
REMARK  13 active torsions:
REMARK  status: ('A' for Active; 'I' for Inactive)
REMARK    1  A    between atoms: C_1  and  C_2
REMARK    2  A    between atoms: C_2  and  C_3
REMARK    3  A    between atoms: C_3  and  C_4
REMARK    4  A    between atoms: C_4  and  N_5
REMARK    5  A    between atoms: N_5  and  C_25
REMARK    6  A    between atoms: C_6  and  C_8
REMARK    7  A    between atoms: C_11  and  C_12
REMARK    8  A    between atoms: C_12  and  C_13
REMARK    9  A    between atoms: C_12  and  C_14
REMARK   10  A    between atoms: C_12  and  C_15
REMARK   11  A    between atoms: C_17  and  N_18
REMARK   12  A    between atoms: N_18  and  C_19
REMARK   13  A    between atoms: C_19  and  C_20
REMARK                            x       y       z     vdW  Elec       q    Type
REMARK                         _______ _______ _______ _____ _____    ______ ____
ROOT
ATOM      1  C   UNL     1      -1.642  11.872  21.215  0.00  0.00    +0.000 A 
ATOM      2  C   UNL     1      -1.489  12.200  22.541  0.00  0.00    +0.000 A 
ATOM      3  N   UNL     1      -2.467  12.641  23.354  0.00  0.00    +0.000 NA
ATOM      4  C   UNL     1      -3.643  12.878  22.771  0.00  0.00    +0.000 A 
ATOM      5  N   UNL     1      -3.803  12.868  21.435  0.00  0.00    +0.000 NA
ATOM      6  C   UNL     1      -2.794  12.404  20.652  0.00  0.00    +0.000 A 
ENDROOT
BRANCH   4   7
ATOM      7  C   UNL     1      -4.842  13.220  23.655  0.00  0.00    +0.000 C 
ATOM      8  C   UNL     1      -4.878  12.347  24.928  0.00  0.00    +0.000 C 
ATOM      9  C   UNL     1      -4.737  14.694  24.064  0.00  0.00    +0.000 C 
ATOM     10  C   UNL     1      -6.156  12.978  22.887  0.00  0.00    +0.000 C 
ENDBRANCH   4   7
BRANCH   1  12
ATOM     11  N   UNL     1       0.326  11.735  19.618  0.00  0.00    +0.000 N 
ATOM     12  C   UNL     1      -0.592  11.083  20.500  0.00  0.00    +0.000 C 
ATOM     13  O   UNL     1      -0.537   9.876  20.726  0.00  0.00    +0.000 OA
BRANCH  11  14
ATOM     14  C   UNL     1       0.595  13.219  19.688  0.00  0.00    +0.000 C 
ATOM     15  C   UNL     1       1.398  13.753  18.481  0.00  0.00    +0.000 C 
ATOM     16  C   UNL     1       2.908  13.629  18.619  0.00  0.00    +0.000 C 
ATOM     17  C   UNL     1       3.418  14.097  19.975  0.00  0.00    +0.000 C 
ATOM     18  N   UNL     1       2.695  13.485  21.085  0.00  0.00    +0.000 NA
ATOM     19  C   UNL     1       1.252  13.729  21.004  0.00  0.00    +0.000 C 
ATOM     20  H   UNL     1       3.059  13.859  21.965  0.00  0.00    +0.000 HD
ENDBRANCH  11  14
BRANCH  11  21
ATOM     21  C   UNL     1       1.379  10.948  18.939  0.00  0.00    +0.000 C 
BRANCH  21  22
ATOM     22  C   UNL     1       1.077   9.745  18.047  0.00  0.00    +0.000 C 
BRANCH  22  24
ATOM     23  C   UNL     1       2.333   7.683  18.671  0.00  0.00    +0.000 C 
ATOM     24  C   UNL     1       2.278   8.869  17.715  0.00  0.00    +0.000 C 
ENDBRANCH  22  24
ENDBRANCH  21  22
ENDBRANCH  11  21
ENDBRANCH   1  12
BRANCH   6  25
ATOM     25  N   UNL     1      -2.935  12.572  19.278  0.00  0.00    +0.000 N 
ATOM     26  H   UNL     1      -2.065  12.717  18.779  0.00  0.00    +0.000 HD
BRANCH  25  27
ATOM     27  C   UNL     1      -3.958  11.779  18.610  0.00  0.00    +0.000 C 
BRANCH  27  28
ATOM     28  C   UNL     1      -3.483  11.013  17.420  0.00  0.00    +0.000 A 
ATOM     29  C   UNL     1      -2.676   9.906  17.250  0.00  0.00    +0.000 A 
ATOM     30  C   UNL     1      -2.621   9.661  15.855  0.00  0.00    +0.000 A 
ATOM     31  C   UNL     1      -3.374  10.647  15.263  0.00  0.00    +0.000 A 
ATOM     32  O   UNL     1      -3.898  11.474  16.202  0.00  0.00    +0.000 OA
ENDBRANCH  27  28
ENDBRANCH  25  27
ENDBRANCH   6  25
TORSDOF 9
ENDMDL
MODEL 6
REMARK VINA RESULT:      -6.4      3.309      6.978
REMARK  Name = 
REMARK  13 active torsions:
REMARK  status: ('A' for Active; 'I' for Inactive)
REMARK    1  A    between atoms: C_1  and  C_2
REMARK    2  A    between atoms: C_2  and  C_3
REMARK    3  A    between atoms: C_3  and  C_4
REMARK    4  A    between atoms: C_4  and  N_5
REMARK    5  A    between atoms: N_5  and  C_25
REMARK    6  A    between atoms: C_6  and  C_8
REMARK    7  A    between atoms: C_11  and  C_12
REMARK    8  A    between atoms: C_12  and  C_13
REMARK    9  A    between atoms: C_12  and  C_14
REMARK   10  A    between atoms: C_12  and  C_15
REMARK   11  A    between atoms: C_17  and  N_18
REMARK   12  A    between atoms: N_18  and  C_19
REMARK   13  A    between atoms: C_19  and  C_20
REMARK                            x       y       z     vdW  Elec       q    Type
REMARK                         _______ _______ _______ _____ _____    ______ ____
ROOT
ATOM      1  C   UNL     1       1.553  10.012  19.147  0.00  0.00    +0.000 A 
ATOM      2  C   UNL     1       2.274   9.327  18.197  0.00  0.00    +0.000 A 
ATOM      3  N   UNL     1       2.520   8.005  18.208  0.00  0.00    +0.000 NA
ATOM      4  C   UNL     1       2.118   7.347  19.297  0.00  0.00    +0.000 A 
ATOM      5  N   UNL     1       1.671   7.979  20.398  0.00  0.00    +0.000 NA
ATOM      6  C   UNL     1       1.425   9.314  20.340  0.00  0.00    +0.000 A 
ENDROOT
BRANCH   4   7
ATOM      7  C   UNL     1       2.212   5.823  19.309  0.00  0.00    +0.000 C 
ATOM      8  C   UNL     1       3.661   5.344  19.550  0.00  0.00    +0.000 C 
ATOM      9  C   UNL     1       1.318   5.290  20.434  0.00  0.00    +0.000 C 
ATOM     10  C   UNL     1       1.752   5.251  17.954  0.00  0.00    +0.000 C 
ENDBRANCH   4   7
BRANCH   1  12
ATOM     11  N   UNL     1      -0.258  11.599  18.346  0.00  0.00    +0.000 N 
ATOM     12  C   UNL     1       1.056  11.396  18.874  0.00  0.00    +0.000 C 
ATOM     13  O   UNL     1       1.803  12.331  19.150  0.00  0.00    +0.000 OA
BRANCH  11  14
ATOM     14  C   UNL     1      -1.341  10.553  18.451  0.00  0.00    +0.000 C 
ATOM     15  C   UNL     1      -1.568   9.773  17.137  0.00  0.00    +0.000 C 
ATOM     16  C   UNL     1      -2.523  10.442  16.159  0.00  0.00    +0.000 C 
ATOM     17  C   UNL     1      -3.797  10.943  16.826  0.00  0.00    +0.000 C 
ATOM     18  N   UNL     1      -3.526  11.760  18.004  0.00  0.00    +0.000 NA
ATOM     19  C   UNL     1      -2.713  11.048  18.994  0.00  0.00    +0.000 C 
ATOM     20  H   UNL     1      -4.415  12.041  18.424  0.00  0.00    +0.000 HD
ENDBRANCH  11  14
BRANCH  11  21
ATOM     21  C   UNL     1      -0.749  12.975  18.108  0.00  0.00    +0.000 C 
BRANCH  21  22
ATOM     22  C   UNL     1      -0.771  14.052  19.192  0.00  0.00    +0.000 C 
BRANCH  22  24
ATOM     23  C   UNL     1       0.650  15.916  20.044  0.00  0.00    +0.000 C 
ATOM     24  C   UNL     1      -0.068  15.352  18.824  0.00  0.00    +0.000 C 
ENDBRANCH  22  24
ENDBRANCH  21  22
ENDBRANCH  11  21
ENDBRANCH   1  12
BRANCH   6  25
ATOM     25  N   UNL     1       1.133   9.953  21.541  0.00  0.00    +0.000 N 
ATOM     26  H   UNL     1       1.656  10.805  21.704  0.00  0.00    +0.000 HD
BRANCH  25  27
ATOM     27  C   UNL     1      -0.254   9.932  21.987  0.00  0.00    +0.000 C 
BRANCH  27  28
ATOM     28  C   UNL     1      -0.795  11.253  22.424  0.00  0.00    +0.000 A 
ATOM     29  C   UNL     1      -1.962  11.655  23.043  0.00  0.00    +0.000 A 
ATOM     30  C   UNL     1      -1.868  13.060  23.199  0.00  0.00    +0.000 A 
ATOM     31  C   UNL     1      -0.665  13.428  22.645  0.00  0.00    +0.000 A 
ATOM     32  O   UNL     1      -0.008  12.341  22.169  0.00  0.00    +0.000 OA
ENDBRANCH  27  28
ENDBRANCH  25  27
ENDBRANCH   6  25
TORSDOF 9
ENDMDL
MODEL 7
REMARK VINA RESULT:      -6.3      2.158      4.915
REMARK  Name = 
REMARK  13 active torsions:
REMARK  status: ('A' for Active; 'I' for Inactive)
REMARK    1  A    between atoms: C_1  and  C_2
REMARK    2  A    between atoms: C_2  and  C_3
REMARK    3  A    between atoms: C_3  and  C_4
REMARK    4  A    between atoms: C_4  and  N_5
REMARK    5  A    between atoms: N_5  and  C_25
REMARK    6  A    between atoms: C_6  and  C_8
REMARK    7  A    between atoms: C_11  and  C_12
REMARK    8  A    between atoms: C_12  and  C_13
REMARK    9  A    between atoms: C_12  and  C_14
REMARK   10  A    between atoms: C_12  and  C_15
REMARK   11  A    between atoms: C_17  and  N_18
REMARK   12  A    between atoms: N_18  and  C_19
REMARK   13  A    between atoms: C_19  and  C_20
REMARK                            x       y       z     vdW  Elec       q    Type
REMARK                         _______ _______ _______ _____ _____    ______ ____
ROOT
ATOM      1  C   UNL     1       2.991   6.182  19.063  0.00  0.00    +0.000 A 
ATOM      2  C   UNL     1       4.349   6.303  19.240  0.00  0.00    +0.000 A 
ATOM      3  N   UNL     1       5.286   5.996  18.325  0.00  0.00    +0.000 NA
ATOM      4  C   UNL     1       4.839   5.421  17.207  0.00  0.00    +0.000 A 
ATOM      5  N   UNL     1       3.569   4.997  17.070  0.00  0.00    +0.000 NA
ATOM      6  C   UNL     1       2.652   5.340  18.012  0.00  0.00    +0.000 A 
ENDROOT
BRANCH   4   7
ATOM      7  C   UNL     1       5.819   5.196  16.057  0.00  0.00    +0.000 C 
ATOM      8  C   UNL     1       5.884   3.709  15.646  0.00  0.00    +0.000 C 
ATOM      9  C   UNL     1       5.354   6.025  14.854  0.00  0.00    +0.000 C 
ATOM     10  C   UNL     1       7.239   5.625  16.477  0.00  0.00    +0.000 C 
ENDBRANCH   4   7
BRANCH   1  12
ATOM     11  N   UNL     1       1.623   8.204  19.755  0.00  0.00    +0.000 N 
ATOM     12  C   UNL     1       2.038   6.857  19.997  0.00  0.00    +0.000 C 
ATOM     13  O   UNL     1       1.612   6.202  20.945  0.00  0.00    +0.000 OA
BRANCH  11  14
ATOM     14  C   UNL     1       1.732   8.850  18.395  0.00  0.00    +0.000 C 
ATOM     15  C   UNL     1       2.508  10.186  18.412  0.00  0.00    +0.000 C 
ATOM     16  C   UNL     1       1.664  11.406  18.752  0.00  0.00    +0.000 C 
ATOM     17  C   UNL     1       0.349  11.447  17.986  0.00  0.00    +0.000 C 
ATOM     18  N   UNL     1      -0.395  10.196  18.086  0.00  0.00    +0.000 NA
ATOM     19  C   UNL     1       0.392   9.048  17.627  0.00  0.00    +0.000 C 
ATOM     20  H   UNL     1      -1.250  10.273  17.529  0.00  0.00    +0.000 HD
ENDBRANCH  11  14
BRANCH  11  21
ATOM     21  C   UNL     1       0.656   8.852  20.670  0.00  0.00    +0.000 C 
BRANCH  21  22
ATOM     22  C   UNL     1       1.067   9.515  21.984  0.00  0.00    +0.000 C 
BRANCH  22  24
ATOM     23  C   UNL     1      -0.940  10.536  23.055  0.00  0.00    +0.000 C 
ATOM     24  C   UNL     1       0.056   9.385  23.116  0.00  0.00    +0.000 C 
ENDBRANCH  22  24
ENDBRANCH  21  22
ENDBRANCH  11  21
ENDBRANCH   1  12
BRANCH   6  25
ATOM     25  N   UNL     1       1.401   4.738  17.921  0.00  0.00    +0.000 N 
ATOM     26  H   UNL     1       0.833   5.061  17.146  0.00  0.00    +0.000 HD
BRANCH  25  27
ATOM     27  C   UNL     1       1.314   3.325  18.263  0.00  0.00    +0.000 C 
BRANCH  27  28
ATOM     28  C   UNL     1       1.640   3.000  19.683  0.00  0.00    +0.000 A 
ATOM     29  C   UNL     1       0.899   2.931  20.846  0.00  0.00    +0.000 A 
ATOM     30  C   UNL     1       1.799   2.551  21.873  0.00  0.00    +0.000 A 
ATOM     31  C   UNL     1       3.033   2.438  21.277  0.00  0.00    +0.000 A 
ATOM     32  O   UNL     1       2.949   2.712  19.951  0.00  0.00    +0.000 OA
ENDBRANCH  27  28
ENDBRANCH  25  27
ENDBRANCH   6  25
TORSDOF 9
ENDMDL
MODEL 8
REMARK VINA RESULT:      -6.2      2.232      4.991
REMARK  Name = 
REMARK  13 active torsions:
REMARK  status: ('A' for Active; 'I' for Inactive)
REMARK    1  A    between atoms: C_1  and  C_2
REMARK    2  A    between atoms: C_2  and  C_3
REMARK    3  A    between atoms: C_3  and  C_4
REMARK    4  A    between atoms: C_4  and  N_5
REMARK    5  A    between atoms: N_5  and  C_25
REMARK    6  A    between atoms: C_6  and  C_8
REMARK    7  A    between atoms: C_11  and  C_12
REMARK    8  A    between atoms: C_12  and  C_13
REMARK    9  A    between atoms: C_12  and  C_14
REMARK   10  A    between atoms: C_12  and  C_15
REMARK   11  A    between atoms: C_17  and  N_18
REMARK   12  A    between atoms: N_18  and  C_19
REMARK   13  A    between atoms: C_19  and  C_20
REMARK                            x       y       z     vdW  Elec       q    Type
REMARK                         _______ _______ _______ _____ _____    ______ ____
ROOT
ATOM      1  C   UNL     1       2.954   6.155  19.136  0.00  0.00    +0.000 A 
ATOM      2  C   UNL     1       4.311   6.265  19.327  0.00  0.00    +0.000 A 
ATOM      3  N   UNL     1       5.253   5.980  18.411  0.00  0.00    +0.000 NA
ATOM      4  C   UNL     1       4.813   5.439  17.273  0.00  0.00    +0.000 A 
ATOM      5  N   UNL     1       3.542   5.025  17.114  0.00  0.00    +0.000 NA
ATOM      6  C   UNL     1       2.620   5.345  18.059  0.00  0.00    +0.000 A 
ENDROOT
BRANCH   4   7
ATOM      7  C   UNL     1       5.802   5.243  16.125  0.00  0.00    +0.000 C 
ATOM      8  C   UNL     1       5.410   6.079  14.887  0.00  0.00    +0.000 C 
ATOM      9  C   UNL     1       7.191   5.682  16.603  0.00  0.00    +0.000 C 
ATOM     10  C   UNL     1       5.834   3.763  15.697  0.00  0.00    +0.000 C 
ENDBRANCH   4   7
BRANCH   1  12
ATOM     11  N   UNL     1       1.669   8.192  19.936  0.00  0.00    +0.000 N 
ATOM     12  C   UNL     1       1.996   6.808  20.081  0.00  0.00    +0.000 C 
ATOM     13  O   UNL     1       1.489   6.103  20.951  0.00  0.00    +0.000 OA
BRANCH  11  14
ATOM     14  C   UNL     1       1.880   8.940  18.641  0.00  0.00    +0.000 C 
ATOM     15  C   UNL     1       2.330  10.403  18.845  0.00  0.00    +0.000 C 
ATOM     16  C   UNL     1       1.194  11.394  19.052  0.00  0.00    +0.000 C 
ATOM     17  C   UNL     1       0.063  11.214  18.050  0.00  0.00    +0.000 C 
ATOM     18  N   UNL     1      -0.397   9.831  17.969  0.00  0.00    +0.000 NA
ATOM     19  C   UNL     1       0.691   8.907  17.637  0.00  0.00    +0.000 C 
ATOM     20  H   UNL     1      -1.132   9.767  17.261  0.00  0.00    +0.000 HD
ENDBRANCH  11  14
BRANCH  11  21
ATOM     21  C   UNL     1       0.698   8.819  20.859  0.00  0.00    +0.000 C 
BRANCH  21  22
ATOM     22  C   UNL     1       1.041   9.201  22.299  0.00  0.00    +0.000 C 
BRANCH  22  24
ATOM     23  C   UNL     1      -0.815  10.831  22.642  0.00  0.00    +0.000 C 
ATOM     24  C   UNL     1      -0.153   9.565  23.172  0.00  0.00    +0.000 C 
ENDBRANCH  22  24
ENDBRANCH  21  22
ENDBRANCH  11  21
ENDBRANCH   1  12
BRANCH   6  25
ATOM     25  N   UNL     1       1.367   4.752  17.941  0.00  0.00    +0.000 N 
ATOM     26  H   UNL     1       0.816   5.083  17.158  0.00  0.00    +0.000 HD
BRANCH  25  27
ATOM     27  C   UNL     1       1.265   3.337  18.272  0.00  0.00    +0.000 C 
BRANCH  27  28
ATOM     28  C   UNL     1       1.740   2.975  19.641  0.00  0.00    +0.000 A 
ATOM     29  C   UNL     1       2.963   2.613  20.169  0.00  0.00    +0.000 A 
ATOM     30  C   UNL     1       2.756   2.409  21.556  0.00  0.00    +0.000 A 
ATOM     31  C   UNL     1       1.418   2.634  21.781  0.00  0.00    +0.000 A 
ATOM     32  O   UNL     1       0.792   2.974  20.627  0.00  0.00    +0.000 OA
ENDBRANCH  27  28
ENDBRANCH  25  27
ENDBRANCH   6  25
TORSDOF 9
ENDMDL
MODEL 9
REMARK VINA RESULT:      -6.2      3.312      6.988
REMARK  Name = 
REMARK  13 active torsions:
REMARK  status: ('A' for Active; 'I' for Inactive)
REMARK    1  A    between atoms: C_1  and  C_2
REMARK    2  A    between atoms: C_2  and  C_3
REMARK    3  A    between atoms: C_3  and  C_4
REMARK    4  A    between atoms: C_4  and  N_5
REMARK    5  A    between atoms: N_5  and  C_25
REMARK    6  A    between atoms: C_6  and  C_8
REMARK    7  A    between atoms: C_11  and  C_12
REMARK    8  A    between atoms: C_12  and  C_13
REMARK    9  A    between atoms: C_12  and  C_14
REMARK   10  A    between atoms: C_12  and  C_15
REMARK   11  A    between atoms: C_17  and  N_18
REMARK   12  A    between atoms: N_18  and  C_19
REMARK   13  A    between atoms: C_19  and  C_20
REMARK                            x       y       z     vdW  Elec       q    Type
REMARK                         _______ _______ _______ _____ _____    ______ ____
ROOT
ATOM      1  C   UNL     1       1.554   9.960  19.181  0.00  0.00    +0.000 A 
ATOM      2  C   UNL     1       2.256   9.268  18.223  0.00  0.00    +0.000 A 
ATOM      3  N   UNL     1       2.490   7.943  18.232  0.00  0.00    +0.000 NA
ATOM      4  C   UNL     1       2.098   7.291  19.329  0.00  0.00    +0.000 A 
ATOM      5  N   UNL     1       1.672   7.929  20.435  0.00  0.00    +0.000 NA
ATOM      6  C   UNL     1       1.437   9.266  20.378  0.00  0.00    +0.000 A 
ENDROOT
BRANCH   4   7
ATOM      7  C   UNL     1       2.179   5.766  19.342  0.00  0.00    +0.000 C 
ATOM      8  C   UNL     1       1.254   5.156  20.417  0.00  0.00    +0.000 C 
ATOM      9  C   UNL     1       1.752   5.246  17.964  0.00  0.00    +0.000 C 
ATOM     10  C   UNL     1       3.618   5.312  19.654  0.00  0.00    +0.000 C 
ENDBRANCH   4   7
BRANCH   1  12
ATOM     11  N   UNL     1      -0.241  11.560  18.370  0.00  0.00    +0.000 N 
ATOM     12  C   UNL     1       1.065  11.348  18.913  0.00  0.00    +0.000 C 
ATOM     13  O   UNL     1       1.811  12.279  19.206  0.00  0.00    +0.000 OA
BRANCH  11  14
ATOM     14  C   UNL     1      -1.329  10.517  18.452  0.00  0.00    +0.000 C 
ATOM     15  C   UNL     1      -1.566   9.773  17.119  0.00  0.00    +0.000 C 
ATOM     16  C   UNL     1      -2.522  10.471  16.163  0.00  0.00    +0.000 C 
ATOM     17  C   UNL     1      -3.790  10.961  16.848  0.00  0.00    +0.000 C 
ATOM     18  N   UNL     1      -3.510  11.746  18.046  0.00  0.00    +0.000 NA
ATOM     19  C   UNL     1      -2.696  11.005  19.014  0.00  0.00    +0.000 C 
ATOM     20  H   UNL     1      -4.396  12.020  18.478  0.00  0.00    +0.000 HD
ENDBRANCH  11  14
BRANCH  11  21
ATOM     21  C   UNL     1      -0.725  12.939  18.136  0.00  0.00    +0.000 C 
BRANCH  21  22
ATOM     22  C   UNL     1      -0.736  14.015  19.222  0.00  0.00    +0.000 C 
BRANCH  22  24
ATOM     23  C   UNL     1       0.843  15.752  20.063  0.00  0.00    +0.000 C 
ATOM     24  C   UNL     1       0.013  15.294  18.870  0.00  0.00    +0.000 C 
ENDBRANCH  22  24
ENDBRANCH  21  22
ENDBRANCH  11  21
ENDBRANCH   1  12
BRANCH   6  25
ATOM     25  N   UNL     1       1.167   9.909  21.582  0.00  0.00    +0.000 N 
ATOM     26  H   UNL     1       1.644  10.796  21.702  0.00  0.00    +0.000 HD
BRANCH  25  27
ATOM     27  C   UNL     1      -0.190   9.811  22.100  0.00  0.00    +0.000 C 
BRANCH  27  28
ATOM     28  C   UNL     1      -0.821  11.114  22.467  0.00  0.00    +0.000 A 
ATOM     29  C   UNL     1      -0.524  12.434  22.193  0.00  0.00    +0.000 A 
ATOM     30  C   UNL     1      -1.527  13.209  22.826  0.00  0.00    +0.000 A 
ATOM     31  C   UNL     1      -2.354  12.317  23.466  0.00  0.00    +0.000 A 
ATOM     32  O   UNL     1      -1.933  11.044  23.258  0.00  0.00    +0.000 OA
ENDBRANCH  27  28
ENDBRANCH  25  27
ENDBRANCH   6  25
TORSDOF 9
ENDMDL
