MODEL 1
REMARK VINA RESULT:      -7.9      0.000      0.000
REMARK  Name = 
REMARK  7 active torsions:
REMARK  status: ('A' for Active; 'I' for Inactive)
REMARK    1  A    between atoms: C_1  and  C_2
REMARK    2  A    between atoms: C_2  and  C_3
REMARK    3  A    between atoms: C_6  and  C_7
REMARK    4  A    between atoms: N_9  and  C_10
REMARK    5  A    between atoms: C_15  and  C_16
REMARK    6  A    between atoms: C_20  and  O_21
REMARK    7  A    between atoms: O_21  and  C_22
REMARK                            x       y       z     vdW  Elec       q    Type
REMARK                         _______ _______ _______ _____ _____    ______ ____
ROOT
ATOM      1  C   UNL     1       7.443   6.609  17.773  0.00  0.00    +0.000 A 
ATOM      2  C   UNL     1       6.329   5.849  18.039  0.00  0.00    +0.000 A 
ATOM      3  C   UNL     1       5.976   5.203  16.824  0.00  0.00    +0.000 A 
ATOM      4  C   UNL     1       4.963   4.331  16.398  0.00  0.00    +0.000 A 
ATOM      5  C   UNL     1       5.034   3.888  15.080  0.00  0.00    +0.000 A 
ATOM      6  N   UNL     1       5.990   4.260  14.186  0.00  0.00    +0.000 NA
ATOM      7  C   UNL     1       6.977   5.109  14.587  0.00  0.00    +0.000 A 
ATOM      8  C   UNL     1       6.952   5.573  15.902  0.00  0.00    +0.000 A 
ATOM      9  O   UNL     1       7.838   6.437  16.482  0.00  0.00    +0.000 OA
ENDROOT
BRANCH   4  10
ATOM     10  C   UNL     1       3.902   3.862  17.304  0.00  0.00    +0.000 C 
ATOM     11  O   UNL     1       2.972   3.201  16.859  0.00  0.00    +0.000 OA
ATOM     12  N   UNL     1       4.010   4.283  18.617  0.00  0.00    +0.000 N 
ATOM     13  H   UNL     1       4.394   5.210  18.757  0.00  0.00    +0.000 HD
BRANCH  12  14
ATOM     14  C   UNL     1       3.073   3.917  19.595  0.00  0.00    +0.000 A 
ATOM     15  N   UNL     1       2.032   4.770  19.680  0.00  0.00    +0.000 NA
ATOM     16  C   UNL     1       1.066   4.438  20.548  0.00  0.00    +0.000 A 
ATOM     17  N   UNL     1       1.086   3.385  21.375  0.00  0.00    +0.000 NA
ATOM     18  C   UNL     1       2.188   2.606  21.308  0.00  0.00    +0.000 A 
ATOM     19  C   UNL     1       3.227   2.820  20.428  0.00  0.00    +0.000 A 
BRANCH  19  20
ATOM     20  C   UNL     1       4.421   2.044  20.528  0.00  0.00    +0.000 C 
ATOM     21  N   UNL     1       5.345   1.350  20.599  0.00  0.00    +0.000 NA
ENDBRANCH  19  20
ENDBRANCH  12  14
ENDBRANCH   4  10
BRANCH   1  23
ATOM     22  C   UNL     1       8.201   8.947  17.990  0.00  0.00    +0.000 C 
ATOM     23  C   UNL     1       8.221   7.557  18.605  0.00  0.00    +0.000 C 
ENDBRANCH   1  23
BRANCH   7  24
ATOM     24  O   UNL     1       7.979   5.497  13.723  0.00  0.00    +0.000 OA
ATOM     25  C   UNL     1       7.725   5.148  12.368  0.00  0.00    +0.000 C 
ENDBRANCH   7  24
TORSDOF 5
ENDMDL
MODEL 2
REMARK VINA RESULT:      -7.9      0.941      1.945
REMARK  Name = 
REMARK  7 active torsions:
REMARK  status: ('A' for Active; 'I' for Inactive)
REMARK    1  A    between atoms: C_1  and  C_2
REMARK    2  A    between atoms: C_2  and  C_3
REMARK    3  A    between atoms: C_6  and  C_7
REMARK    4  A    between atoms: N_9  and  C_10
REMARK    5  A    between atoms: C_15  and  C_16
REMARK    6  A    between atoms: C_20  and  O_21
REMARK    7  A    between atoms: O_21  and  C_22
REMARK                            x       y       z     vdW  Elec       q    Type
REMARK                         _______ _______ _______ _____ _____    ______ ____
ROOT
ATOM      1  C   UNL     1       7.500   6.904  17.672  0.00  0.00    +0.000 A 
ATOM      2  C   UNL     1       6.421   6.132  18.032  0.00  0.00    +0.000 A 
ATOM      3  C   UNL     1       6.074   5.359  16.892  0.00  0.00    +0.000 A 
ATOM      4  C   UNL     1       5.089   4.414  16.570  0.00  0.00    +0.000 A 
ATOM      5  C   UNL     1       5.156   3.849  15.300  0.00  0.00    +0.000 A 
ATOM      6  N   UNL     1       6.082   4.168  14.355  0.00  0.00    +0.000 NA
ATOM      7  C   UNL     1       7.042   5.088  14.654  0.00  0.00    +0.000 A 
ATOM      8  C   UNL     1       7.020   5.675  15.919  0.00  0.00    +0.000 A 
ATOM      9  O   UNL     1       7.881   6.623  16.396  0.00  0.00    +0.000 OA
ENDROOT
BRANCH   4  10
ATOM     10  C   UNL     1       4.061   3.995  17.538  0.00  0.00    +0.000 C 
ATOM     11  O   UNL     1       2.981   3.584  17.136  0.00  0.00    +0.000 OA
ATOM     12  N   UNL     1       4.387   4.175  18.869  0.00  0.00    +0.000 N 
ATOM     13  H   UNL     1       4.954   4.988  19.083  0.00  0.00    +0.000 HD
BRANCH  12  14
ATOM     14  C   UNL     1       3.509   3.824  19.905  0.00  0.00    +0.000 A 
ATOM     15  N   UNL     1       3.592   2.523  20.254  0.00  0.00    +0.000 NA
ATOM     16  C   UNL     1       2.829   2.140  21.287  0.00  0.00    +0.000 A 
ATOM     17  N   UNL     1       1.953   2.913  21.942  0.00  0.00    +0.000 NA
ATOM     18  C   UNL     1       1.849   4.185  21.502  0.00  0.00    +0.000 A 
ATOM     19  C   UNL     1       2.609   4.708  20.478  0.00  0.00    +0.000 A 
BRANCH  19  20
ATOM     20  C   UNL     1       2.329   6.013  19.972  0.00  0.00    +0.000 C 
ATOM     21  N   UNL     1       2.180   7.087  19.565  0.00  0.00    +0.000 NA
ENDBRANCH  19  20
ENDBRANCH  12  14
ENDBRANCH   4  10
BRANCH   1  23
ATOM     22  C   UNL     1       8.046   9.309  17.735  0.00  0.00    +0.000 C 
ATOM     23  C   UNL     1       8.254   7.956  18.394  0.00  0.00    +0.000 C 
ENDBRANCH   1  23
BRANCH   7  24
ATOM     24  O   UNL     1       8.013   5.428  13.737  0.00  0.00    +0.000 OA
ATOM     25  C   UNL     1       7.665   5.107  12.397  0.00  0.00    +0.000 C 
ENDBRANCH   7  24
TORSDOF 5
ENDMDL
MODEL 3
REMARK VINA RESULT:      -7.6      4.772      6.807
REMARK  Name = 
REMARK  7 active torsions:
REMARK  status: ('A' for Active; 'I' for Inactive)
REMARK    1  A    between atoms: C_1  and  C_2
REMARK    2  A    between atoms: C_2  and  C_3
REMARK    3  A    between atoms: C_6  and  C_7
REMARK    4  A    between atoms: N_9  and  C_10
REMARK    5  A    between atoms: C_15  and  C_16
REMARK    6  A    between atoms: C_20  and  O_21
REMARK    7  A    between atoms: O_21  and  C_22
REMARK                            x       y       z     vdW  Elec       q    Type
REMARK                         _______ _______ _______ _____ _____    ______ ____
ROOT
ATOM      1  C   UNL     1       0.385   9.318  21.828  0.00  0.00    +0.000 A 
ATOM      2  C   UNL     1       1.033   8.204  21.349  0.00  0.00    +0.000 A 
ATOM      3  C   UNL     1       1.443   8.509  20.024  0.00  0.00    +0.000 A 
ATOM      4  C   UNL     1       2.109   7.836  18.989  0.00  0.00    +0.000 A 
ATOM      5  C   UNL     1       2.356   8.563  17.828  0.00  0.00    +0.000 A 
ATOM      6  N   UNL     1       1.977   9.853  17.624  0.00  0.00    +0.000 NA
ATOM      7  C   UNL     1       1.325  10.517  18.620  0.00  0.00    +0.000 A 
ATOM      8  C   UNL     1       1.063   9.832  19.806  0.00  0.00    +0.000 A 
ATOM      9  O   UNL     1       0.411  10.317  20.904  0.00  0.00    +0.000 OA
ENDROOT
BRANCH   4  10
ATOM     10  C   UNL     1       2.573   6.445  19.132  0.00  0.00    +0.000 C 
ATOM     11  O   UNL     1       3.404   6.168  19.986  0.00  0.00    +0.000 OA
ATOM     12  N   UNL     1       2.065   5.550  18.210  0.00  0.00    +0.000 N 
ATOM     13  H   UNL     1       1.901   5.915  17.278  0.00  0.00    +0.000 HD
BRANCH  12  14
ATOM     14  C   UNL     1       2.415   4.191  18.220  0.00  0.00    +0.000 A 
ATOM     15  N   UNL     1       1.642   3.449  19.040  0.00  0.00    +0.000 NA
ATOM     16  C   UNL     1       1.879   2.130  19.041  0.00  0.00    +0.000 A 
ATOM     17  N   UNL     1       2.852   1.510  18.360  0.00  0.00    +0.000 NA
ATOM     18  C   UNL     1       3.649   2.308  17.616  0.00  0.00    +0.000 A 
ATOM     19  C   UNL     1       3.479   3.671  17.501  0.00  0.00    +0.000 A 
BRANCH  19  20
ATOM     20  C   UNL     1       4.456   4.460  16.821  0.00  0.00    +0.000 C 
ATOM     21  N   UNL     1       5.253   5.144  16.336  0.00  0.00    +0.000 NA
ENDBRANCH  19  20
ENDBRANCH  12  14
ENDBRANCH   4  10
BRANCH   1  23
ATOM     22  C   UNL     1      -1.065  10.909  23.033  0.00  0.00    +0.000 C 
ATOM     23  C   UNL     1      -0.325   9.584  23.102  0.00  0.00    +0.000 C 
ENDBRANCH   1  23
BRANCH   7  24
ATOM     24  O   UNL     1       0.940  11.832  18.467  0.00  0.00    +0.000 OA
ATOM     25  C   UNL     1       2.031  12.743  18.451  0.00  0.00    +0.000 C 
ENDBRANCH   7  24
TORSDOF 5
ENDMDL
MODEL 4
REMARK VINA RESULT:      -7.5      1.643      2.040
REMARK  Name = 
REMARK  7 active torsions:
REMARK  status: ('A' for Active; 'I' for Inactive)
REMARK    1  A    between atoms: C_1  and  C_2
REMARK    2  A    between atoms: C_2  and  C_3
REMARK    3  A    between atoms: C_6  and  C_7
REMARK    4  A    between atoms: N_9  and  C_10
REMARK    5  A    between atoms: C_15  and  C_16
REMARK    6  A    between atoms: C_20  and  O_21
REMARK    7  A    between atoms: O_21  and  C_22
REMARK                            x       y       z     vdW  Elec       q    Type
REMARK                         _______ _______ _______ _____ _____    ______ ____
ROOT
ATOM      1  C   UNL     1       7.481   6.682  17.638  0.00  0.00    +0.000 A 
ATOM      2  C   UNL     1       6.473   5.794  17.929  0.00  0.00    +0.000 A 
ATOM      3  C   UNL     1       6.178   5.101  16.724  0.00  0.00    +0.000 A 
ATOM      4  C   UNL     1       5.271   4.110  16.321  0.00  0.00    +0.000 A 
ATOM      5  C   UNL     1       5.371   3.670  15.004  0.00  0.00    +0.000 A 
ATOM      6  N   UNL     1       6.258   4.149  14.090  0.00  0.00    +0.000 NA
ATOM      7  C   UNL     1       7.142   5.114  14.468  0.00  0.00    +0.000 A 
ATOM      8  C   UNL     1       7.085   5.580  15.781  0.00  0.00    +0.000 A 
ATOM      9  O   UNL     1       7.870   6.550  16.340  0.00  0.00    +0.000 OA
ENDROOT
BRANCH   4  10
ATOM     10  C   UNL     1       4.292   3.522  17.250  0.00  0.00    +0.000 C 
ATOM     11  O   UNL     1       4.465   2.388  17.677  0.00  0.00    +0.000 OA
ATOM     12  N   UNL     1       3.181   4.301  17.517  0.00  0.00    +0.000 N 
ATOM     13  H   UNL     1       2.843   4.872  16.750  0.00  0.00    +0.000 HD
BRANCH  12  14
ATOM     14  C   UNL     1       2.162   3.874  18.382  0.00  0.00    +0.000 A 
ATOM     15  N   UNL     1       1.577   2.724  17.988  0.00  0.00    +0.000 NA
ATOM     16  C   UNL     1       0.644   2.226  18.810  0.00  0.00    +0.000 A 
ATOM     17  N   UNL     1       0.202   2.804  19.934  0.00  0.00    +0.000 NA
ATOM     18  C   UNL     1       0.763   3.993  20.243  0.00  0.00    +0.000 A 
ATOM     19  C   UNL     1       1.760   4.588  19.500  0.00  0.00    +0.000 A 
BRANCH  19  20
ATOM     20  C   UNL     1       2.189   5.914  19.807  0.00  0.00    +0.000 C 
ATOM     21  N   UNL     1       2.469   7.016  20.023  0.00  0.00    +0.000 NA
ENDBRANCH  19  20
ENDBRANCH  12  14
ENDBRANCH   4  10
BRANCH   1  23
ATOM     22  C   UNL     1       8.050   9.079  17.771  0.00  0.00    +0.000 C 
ATOM     23  C   UNL     1       8.154   7.723  18.450  0.00  0.00    +0.000 C 
ENDBRANCH   1  23
BRANCH   7  24
ATOM     24  O   UNL     1       8.072   5.615  13.583  0.00  0.00    +0.000 OA
ATOM     25  C   UNL     1       7.782   5.313  12.224  0.00  0.00    +0.000 C 
ENDBRANCH   7  24
TORSDOF 5
ENDMDL
MODEL 5
REMARK VINA RESULT:      -7.4      4.894      6.799
REMARK  Name = 
REMARK  7 active torsions:
REMARK  status: ('A' for Active; 'I' for Inactive)
REMARK    1  A    between atoms: C_1  and  C_2
REMARK    2  A    between atoms: C_2  and  C_3
REMARK    3  A    between atoms: C_6  and  C_7
REMARK    4  A    between atoms: N_9  and  C_10
REMARK    5  A    between atoms: C_15  and  C_16
REMARK    6  A    between atoms: C_20  and  O_21
REMARK    7  A    between atoms: O_21  and  C_22
REMARK                            x       y       z     vdW  Elec       q    Type
REMARK                         _______ _______ _______ _____ _____    ______ ____
ROOT
ATOM      1  C   UNL     1       0.250   9.652  21.860  0.00  0.00    +0.000 A 
ATOM      2  C   UNL     1       0.787   8.455  21.448  0.00  0.00    +0.000 A 
ATOM      3  C   UNL     1       1.291   8.663  20.136  0.00  0.00    +0.000 A 
ATOM      4  C   UNL     1       1.923   7.881  19.158  0.00  0.00    +0.000 A 
ATOM      5  C   UNL     1       2.306   8.533  17.990  0.00  0.00    +0.000 A 
ATOM      6  N   UNL     1       2.089   9.850  17.727  0.00  0.00    +0.000 NA
ATOM      7  C   UNL     1       1.472  10.619  18.668  0.00  0.00    +0.000 A 
ATOM      8  C   UNL     1       1.077  10.012  19.859  0.00  0.00    +0.000 A 
ATOM      9  O   UNL     1       0.434  10.608  20.907  0.00  0.00    +0.000 OA
ENDROOT
BRANCH   4  10
ATOM     10  C   UNL     1       2.215   6.453  19.367  0.00  0.00    +0.000 C 
ATOM     11  O   UNL     1       2.133   5.975  20.491  0.00  0.00    +0.000 OA
ATOM     12  N   UNL     1       2.643   5.763  18.248  0.00  0.00    +0.000 N 
ATOM     13  H   UNL     1       3.214   6.286  17.593  0.00  0.00    +0.000 HD
BRANCH  12  14
ATOM     14  C   UNL     1       2.960   4.397  18.292  0.00  0.00    +0.000 A 
ATOM     15  N   UNL     1       1.909   3.598  18.013  0.00  0.00    +0.000 NA
ATOM     16  C   UNL     1       2.162   2.283  17.968  0.00  0.00    +0.000 A 
ATOM     17  N   UNL     1       3.338   1.703  18.245  0.00  0.00    +0.000 NA
ATOM     18  C   UNL     1       4.337   2.541  18.598  0.00  0.00    +0.000 A 
ATOM     19  C   UNL     1       4.211   3.913  18.639  0.00  0.00    +0.000 A 
BRANCH  19  20
ATOM     20  C   UNL     1       5.266   4.714  19.170  0.00  0.00    +0.000 C 
ATOM     21  N   UNL     1       6.173   5.304  19.582  0.00  0.00    +0.000 NA
ENDBRANCH  19  20
ENDBRANCH  12  14
ENDBRANCH   4  10
BRANCH   1  23
ATOM     22  C   UNL     1      -1.192  11.372  22.883  0.00  0.00    +0.000 C 
ATOM     23  C   UNL     1      -0.484  10.043  23.087  0.00  0.00    +0.000 C 
ENDBRANCH   1  23
BRANCH   7  24
ATOM     24  O   UNL     1       1.249  11.963  18.455  0.00  0.00    +0.000 OA
ATOM     25  C   UNL     1       2.438  12.743  18.464  0.00  0.00    +0.000 C 
ENDBRANCH   7  24
TORSDOF 5
ENDMDL
MODEL 6
REMARK VINA RESULT:      -7.2      4.822      6.793
REMARK  Name = 
REMARK  7 active torsions:
REMARK  status: ('A' for Active; 'I' for Inactive)
REMARK    1  A    between atoms: C_1  and  C_2
REMARK    2  A    between atoms: C_2  and  C_3
REMARK    3  A    between atoms: C_6  and  C_7
REMARK    4  A    between atoms: N_9  and  C_10
REMARK    5  A    between atoms: C_15  and  C_16
REMARK    6  A    between atoms: C_20  and  O_21
REMARK    7  A    between atoms: O_21  and  C_22
REMARK                            x       y       z     vdW  Elec       q    Type
REMARK                         _______ _______ _______ _____ _____    ______ ____
ROOT
ATOM      1  C   UNL     1       0.334   9.393  21.795  0.00  0.00    +0.000 A 
ATOM      2  C   UNL     1       0.889   8.294  21.184  0.00  0.00    +0.000 A 
ATOM      3  C   UNL     1       1.346   8.724  19.909  0.00  0.00    +0.000 A 
ATOM      4  C   UNL     1       1.967   8.127  18.802  0.00  0.00    +0.000 A 
ATOM      5  C   UNL     1       2.296   8.968  17.742  0.00  0.00    +0.000 A 
ATOM      6  N   UNL     1       2.035  10.303  17.699  0.00  0.00    +0.000 NA
ATOM      7  C   UNL     1       1.428  10.893  18.767  0.00  0.00    +0.000 A 
ATOM      8  C   UNL     1       1.087  10.092  19.857  0.00  0.00    +0.000 A 
ATOM      9  O   UNL     1       0.462  10.493  21.004  0.00  0.00    +0.000 OA
ENDROOT
BRANCH   4  10
ATOM     10  C   UNL     1       2.304   6.694  18.772  0.00  0.00    +0.000 C 
ATOM     11  O   UNL     1       1.905   5.996  17.849  0.00  0.00    +0.000 OA
ATOM     12  N   UNL     1       3.009   6.225  19.865  0.00  0.00    +0.000 N 
ATOM     13  H   UNL     1       2.786   6.654  20.756  0.00  0.00    +0.000 HD
BRANCH  12  14
ATOM     14  C   UNL     1       3.401   4.883  19.978  0.00  0.00    +0.000 A 
ATOM     15  N   UNL     1       2.568   4.148  20.744  0.00  0.00    +0.000 NA
ATOM     16  C   UNL     1       2.848   2.841  20.833  0.00  0.00    +0.000 A 
ATOM     17  N   UNL     1       3.910   2.229  20.293  0.00  0.00    +0.000 NA
ATOM     18  C   UNL     1       4.757   3.023  19.602  0.00  0.00    +0.000 A 
ATOM     19  C   UNL     1       4.555   4.373  19.405  0.00  0.00    +0.000 A 
BRANCH  19  20
ATOM     20  C   UNL     1       5.573   5.168  18.798  0.00  0.00    +0.000 C 
ATOM     21  N   UNL     1       6.342   5.855  18.270  0.00  0.00    +0.000 NA
ENDBRANCH  19  20
ENDBRANCH  12  14
ENDBRANCH   4  10
BRANCH   1  23
ATOM     22  C   UNL     1      -1.168  10.854  23.097  0.00  0.00    +0.000 C 
ATOM     23  C   UNL     1      -0.370   9.561  23.089  0.00  0.00    +0.000 C 
ENDBRANCH   1  23
BRANCH   7  24
ATOM     24  O   UNL     1       1.162  12.246  18.778  0.00  0.00    +0.000 OA
ATOM     25  C   UNL     1       2.304  13.050  18.514  0.00  0.00    +0.000 C 
ENDBRANCH   7  24
TORSDOF 5
ENDMDL
MODEL 7
REMARK VINA RESULT:      -7.0      1.083      1.927
REMARK  Name = 
REMARK  7 active torsions:
REMARK  status: ('A' for Active; 'I' for Inactive)
REMARK    1  A    between atoms: C_1  and  C_2
REMARK    2  A    between atoms: C_2  and  C_3
REMARK    3  A    between atoms: C_6  and  C_7
REMARK    4  A    between atoms: N_9  and  C_10
REMARK    5  A    between atoms: C_15  and  C_16
REMARK    6  A    between atoms: C_20  and  O_21
REMARK    7  A    between atoms: O_21  and  C_22
REMARK                            x       y       z     vdW  Elec       q    Type
REMARK                         _______ _______ _______ _____ _____    ______ ____
ROOT
ATOM      1  C   UNL     1       7.509   6.544  17.809  0.00  0.00    +0.000 A 
ATOM      2  C   UNL     1       6.551   5.606  18.111  0.00  0.00    +0.000 A 
ATOM      3  C   UNL     1       6.253   4.923  16.902  0.00  0.00    +0.000 A 
ATOM      4  C   UNL     1       5.379   3.899  16.506  0.00  0.00    +0.000 A 
ATOM      5  C   UNL     1       5.460   3.488  15.178  0.00  0.00    +0.000 A 
ATOM      6  N   UNL     1       6.298   4.023  14.248  0.00  0.00    +0.000 NA
ATOM      7  C   UNL     1       7.148   5.021  14.621  0.00  0.00    +0.000 A 
ATOM      8  C   UNL     1       7.110   5.460  15.944  0.00  0.00    +0.000 A 
ATOM      9  O   UNL     1       7.866   6.453  16.498  0.00  0.00    +0.000 OA
ENDROOT
BRANCH   4  10
ATOM     10  C   UNL     1       4.454   3.251  17.450  0.00  0.00    +0.000 C 
ATOM     11  O   UNL     1       3.995   2.147  17.188  0.00  0.00    +0.000 OA
ATOM     12  N   UNL     1       4.114   4.000  18.561  0.00  0.00    +0.000 N 
ATOM     13  H   UNL     1       4.040   5.001  18.417  0.00  0.00    +0.000 HD
BRANCH  12  14
ATOM     14  C   UNL     1       3.243   3.515  19.548  0.00  0.00    +0.000 A 
ATOM     15  N   UNL     1       3.883   2.923  20.577  0.00  0.00    +0.000 NA
ATOM     16  C   UNL     1       3.111   2.502  21.588  0.00  0.00    +0.000 A 
ATOM     17  N   UNL     1       1.773   2.555  21.625  0.00  0.00    +0.000 NA
ATOM     18  C   UNL     1       1.175   3.084  20.535  0.00  0.00    +0.000 A 
ATOM     19  C   UNL     1       1.863   3.589  19.452  0.00  0.00    +0.000 A 
BRANCH  19  20
ATOM     20  C   UNL     1       1.156   3.987  18.278  0.00  0.00    +0.000 C 
ATOM     21  N   UNL     1       0.560   4.234  17.317  0.00  0.00    +0.000 NA
ENDBRANCH  19  20
ENDBRANCH  12  14
ENDBRANCH   4  10
BRANCH   1  23
ATOM     22  C   UNL     1       8.130   8.930  17.890  0.00  0.00    +0.000 C 
ATOM     23  C   UNL     1       8.159   7.599  18.623  0.00  0.00    +0.000 C 
ENDBRANCH   1  23
BRANCH   7  24
ATOM     24  O   UNL     1       8.030   5.579  13.719  0.00  0.00    +0.000 OA
ATOM     25  C   UNL     1       7.766   5.216  12.370  0.00  0.00    +0.000 C 
ENDBRANCH   7  24
TORSDOF 5
ENDMDL
MODEL 8
REMARK VINA RESULT:      -7.0      5.225      7.358
REMARK  Name = 
REMARK  7 active torsions:
REMARK  status: ('A' for Active; 'I' for Inactive)
REMARK    1  A    between atoms: C_1  and  C_2
REMARK    2  A    between atoms: C_2  and  C_3
REMARK    3  A    between atoms: C_6  and  C_7
REMARK    4  A    between atoms: N_9  and  C_10
REMARK    5  A    between atoms: C_15  and  C_16
REMARK    6  A    between atoms: C_20  and  O_21
REMARK    7  A    between atoms: O_21  and  C_22
REMARK                            x       y       z     vdW  Elec       q    Type
REMARK                         _______ _______ _______ _____ _____    ______ ____
ROOT
ATOM      1  C   UNL     1       2.365   4.692  20.702  0.00  0.00    +0.000 A 
ATOM      2  C   UNL     1       1.803   5.938  20.556  0.00  0.00    +0.000 A 
ATOM      3  C   UNL     1       2.457   6.555  19.456  0.00  0.00    +0.000 A 
ATOM      4  C   UNL     1       2.391   7.794  18.803  0.00  0.00    +0.000 A 
ATOM      5  C   UNL     1       3.211   7.959  17.690  0.00  0.00    +0.000 A 
ATOM      6  N   UNL     1       4.079   7.023  17.219  0.00  0.00    +0.000 NA
ATOM      7  C   UNL     1       4.155   5.816  17.847  0.00  0.00    +0.000 A 
ATOM      8  C   UNL     1       3.345   5.601  18.962  0.00  0.00    +0.000 A 
ATOM      9  O   UNL     1       3.292   4.472  19.729  0.00  0.00    +0.000 OA
ENDROOT
BRANCH   4  10
ATOM     10  C   UNL     1       1.466   8.857  19.233  0.00  0.00    +0.000 C 
ATOM     11  O   UNL     1       1.235   9.013  20.425  0.00  0.00    +0.000 OA
ATOM     12  N   UNL     1       0.861   9.569  18.215  0.00  0.00    +0.000 N 
ATOM     13  H   UNL     1       0.642   9.045  17.374  0.00  0.00    +0.000 HD
BRANCH  12  14
ATOM     14  C   UNL     1      -0.044  10.610  18.470  0.00  0.00    +0.000 A 
ATOM     15  N   UNL     1      -1.335  10.226  18.385  0.00  0.00    +0.000 NA
ATOM     16  C   UNL     1      -2.248  11.158  18.688  0.00  0.00    +0.000 A 
ATOM     17  N   UNL     1      -1.990  12.437  18.992  0.00  0.00    +0.000 NA
ATOM     18  C   UNL     1      -0.687  12.791  18.985  0.00  0.00    +0.000 A 
ATOM     19  C   UNL     1       0.346  11.914  18.730  0.00  0.00    +0.000 A 
BRANCH  19  20
ATOM     20  C   UNL     1       1.680  12.400  18.589  0.00  0.00    +0.000 C 
ATOM     21  N   UNL     1       2.732  12.866  18.457  0.00  0.00    +0.000 NA
ENDBRANCH  19  20
ENDBRANCH  12  14
ENDBRANCH   4  10
BRANCH   1  23
ATOM     22  C   UNL     1       1.352   2.481  21.114  0.00  0.00    +0.000 C 
ATOM     23  C   UNL     1       2.162   3.622  21.707  0.00  0.00    +0.000 C 
ENDBRANCH   1  23
BRANCH   7  24
ATOM     24  O   UNL     1       5.004   4.829  17.393  0.00  0.00    +0.000 OA
ATOM     25  C   UNL     1       6.361   5.035  17.762  0.00  0.00    +0.000 C 
ENDBRANCH   7  24
TORSDOF 5
ENDMDL
MODEL 9
REMARK VINA RESULT:      -6.9      4.508      6.554
REMARK  Name = 
REMARK  7 active torsions:
REMARK  status: ('A' for Active; 'I' for Inactive)
REMARK    1  A    between atoms: C_1  and  C_2
REMARK    2  A    between atoms: C_2  and  C_3
REMARK    3  A    between atoms: C_6  and  C_7
REMARK    4  A    between atoms: N_9  and  C_10
REMARK    5  A    between atoms: C_15  and  C_16
REMARK    6  A    between atoms: C_20  and  O_21
REMARK    7  A    between atoms: O_21  and  C_22
REMARK                            x       y       z     vdW  Elec       q    Type
REMARK                         _______ _______ _______ _____ _____    ______ ____
ROOT
ATOM      1  C   UNL     1       2.581   4.657  20.545  0.00  0.00    +0.000 A 
ATOM      2  C   UNL     1       2.059   5.834  20.061  0.00  0.00    +0.000 A 
ATOM      3  C   UNL     1       2.948   6.291  19.052  0.00  0.00    +0.000 A 
ATOM      4  C   UNL     1       3.027   7.401  18.199  0.00  0.00    +0.000 A 
ATOM      5  C   UNL     1       4.085   7.419  17.294  0.00  0.00    +0.000 A 
ATOM      6  N   UNL     1       5.046   6.460  17.202  0.00  0.00    +0.000 NA
ATOM      7  C   UNL     1       4.982   5.379  18.029  0.00  0.00    +0.000 A 
ATOM      8  C   UNL     1       3.934   5.312  18.947  0.00  0.00    +0.000 A 
ATOM      9  O   UNL     1       3.712   4.324  19.864  0.00  0.00    +0.000 OA
ENDROOT
BRANCH   4  10
ATOM     10  C   UNL     1       2.019   8.474  18.216  0.00  0.00    +0.000 C 
ATOM     11  O   UNL     1       1.388   8.730  17.200  0.00  0.00    +0.000 OA
ATOM     12  N   UNL     1       1.917   9.177  19.403  0.00  0.00    +0.000 N 
ATOM     13  H   UNL     1       2.781   9.312  19.916  0.00  0.00    +0.000 HD
BRANCH  12  14
ATOM     14  C   UNL     1       1.002  10.227  19.570  0.00  0.00    +0.000 A 
ATOM     15  N   UNL     1       1.343  11.342  18.891  0.00  0.00    +0.000 NA
ATOM     16  C   UNL     1       0.473  12.359  18.952  0.00  0.00    +0.000 A 
ATOM     17  N   UNL     1      -0.652  12.384  19.679  0.00  0.00    +0.000 NA
ATOM     18  C   UNL     1      -0.907  11.273  20.404  0.00  0.00    +0.000 A 
ATOM     19  C   UNL     1      -0.111  10.148  20.391  0.00  0.00    +0.000 A 
BRANCH  19  20
ATOM     20  C   UNL     1      -0.367   9.079  21.302  0.00  0.00    +0.000 C 
ATOM     21  N   UNL     1      -0.642   8.199  22.002  0.00  0.00    +0.000 NA
ENDBRANCH  19  20
ENDBRANCH  12  14
ENDBRANCH   4  10
BRANCH   1  23
ATOM     22  C   UNL     1       1.377   2.575  21.094  0.00  0.00    +0.000 C 
ATOM     23  C   UNL     1       2.156   3.759  21.644  0.00  0.00    +0.000 C 
ENDBRANCH   1  23
BRANCH   7  24
ATOM     24  O   UNL     1       5.921   4.372  17.958  0.00  0.00    +0.000 OA
ATOM     25  C   UNL     1       7.058   4.711  17.175  0.00  0.00    +0.000 C 
ENDBRANCH   7  24
TORSDOF 5
ENDMDL
