MODEL 1
REMARK VINA RESULT:      -7.7      0.000      0.000
REMARK  Name = 
REMARK  2 active torsions:
REMARK  status: ('A' for Active; 'I' for Inactive)
REMARK    1  A    between atoms: C_6  and  N_7
REMARK    2  A    between atoms: N_7  and  C_8
REMARK                            x       y       z     vdW  Elec       q    Type
REMARK                         _______ _______ _______ _____ _____    ______ ____
ROOT
ATOM      1  C   UNL     1       5.919   4.393  18.738  0.00  0.00    +0.000 A 
ATOM      2  N   UNL     1       6.724   5.082  19.570  0.00  0.00    +0.000 NA
ATOM      3  C   UNL     1       7.606   5.909  19.009  0.00  0.00    +0.000 A 
ATOM      4  N   UNL     1       7.783   6.099  17.699  0.00  0.00    +0.000 NA
ATOM      5  C   UNL     1       6.981   5.412  16.881  0.00  0.00    +0.000 A 
ATOM      6  C   UNL     1       7.169   5.549  15.513  0.00  0.00    +0.000 A 
ATOM      7  C   UNL     1       6.377   4.868  14.586  0.00  0.00    +0.000 A 
ATOM      8  C   UNL     1       5.360   4.033  15.031  0.00  0.00    +0.000 A 
ATOM      9  C   UNL     1       5.159   3.867  16.401  0.00  0.00    +0.000 A 
ATOM     10  C   UNL     1       5.977   4.547  17.341  0.00  0.00    +0.000 A 
ENDROOT
BRANCH   1  11
ATOM     11  N   UNL     1       5.009   3.469  19.312  0.00  0.00    +0.000 N 
ATOM     12  H   UNL     1       5.124   2.561  18.877  0.00  0.00    +0.000 HD
BRANCH  11  18
ATOM     13 BR   UNL     1       1.454   7.148  20.689  0.00  0.00    +0.000 Br
ATOM     14  C   UNL     1       1.966   5.359  20.360  0.00  0.00    +0.000 A 
ATOM     15  C   UNL     1       1.053   4.328  20.547  0.00  0.00    +0.000 A 
ATOM     16  C   UNL     1       1.450   3.010  20.322  0.00  0.00    +0.000 A 
ATOM     17  C   UNL     1       2.757   2.729  19.902  0.00  0.00    +0.000 A 
ATOM     18  C   UNL     1       3.673   3.762  19.675  0.00  0.00    +0.000 A 
ATOM     19  C   UNL     1       3.266   5.081  19.938  0.00  0.00    +0.000 A 
ENDBRANCH  11  18
ENDBRANCH   1  11
TORSDOF 2
ENDMDL
MODEL 2
REMARK VINA RESULT:      -7.6      2.031      3.109
REMARK  Name = 
REMARK  2 active torsions:
REMARK  status: ('A' for Active; 'I' for Inactive)
REMARK    1  A    between atoms: C_6  and  N_7
REMARK    2  A    between atoms: N_7  and  C_8
REMARK                            x       y       z     vdW  Elec       q    Type
REMARK                         _______ _______ _______ _____ _____    ______ ____
ROOT
ATOM      1  C   UNL     1       5.607   3.866  16.607  0.00  0.00    +0.000 A 
ATOM      2  N   UNL     1       5.578   3.885  15.260  0.00  0.00    +0.000 NA
ATOM      3  C   UNL     1       6.313   4.816  14.654  0.00  0.00    +0.000 A 
ATOM      4  N   UNL     1       7.056   5.747  15.257  0.00  0.00    +0.000 NA
ATOM      5  C   UNL     1       7.081   5.721  16.593  0.00  0.00    +0.000 A 
ATOM      6  C   UNL     1       7.804   6.704  17.253  0.00  0.00    +0.000 A 
ATOM      7  C   UNL     1       7.883   6.753  18.647  0.00  0.00    +0.000 A 
ATOM      8  C   UNL     1       7.231   5.791  19.408  0.00  0.00    +0.000 A 
ATOM      9  C   UNL     1       6.485   4.801  18.768  0.00  0.00    +0.000 A 
ATOM     10  C   UNL     1       6.393   4.764  17.353  0.00  0.00    +0.000 A 
ENDROOT
BRANCH   1  11
ATOM     11  N   UNL     1       4.791   2.916  17.275  0.00  0.00    +0.000 N 
ATOM     12  H   UNL     1       4.764   2.054  16.742  0.00  0.00    +0.000 HD
BRANCH  11  18
ATOM     13 BR   UNL     1       1.955   2.613  21.740  0.00  0.00    +0.000 Br
ATOM     14  C   UNL     1       2.168   3.091  19.923  0.00  0.00    +0.000 A 
ATOM     15  C   UNL     1       1.111   3.665  19.226  0.00  0.00    +0.000 A 
ATOM     16  C   UNL     1       1.275   3.993  17.881  0.00  0.00    +0.000 A 
ATOM     17  C   UNL     1       2.497   3.755  17.240  0.00  0.00    +0.000 A 
ATOM     18  C   UNL     1       3.580   3.213  17.942  0.00  0.00    +0.000 A 
ATOM     19  C   UNL     1       3.387   2.858  19.287  0.00  0.00    +0.000 A 
ENDBRANCH  11  18
ENDBRANCH   1  11
TORSDOF 2
ENDMDL
MODEL 3
REMARK VINA RESULT:      -7.6      1.596      2.744
REMARK  Name = 
REMARK  2 active torsions:
REMARK  status: ('A' for Active; 'I' for Inactive)
REMARK    1  A    between atoms: C_6  and  N_7
REMARK    2  A    between atoms: N_7  and  C_8
REMARK                            x       y       z     vdW  Elec       q    Type
REMARK                         _______ _______ _______ _____ _____    ______ ____
ROOT
ATOM      1  C   UNL     1       5.318   3.994  16.840  0.00  0.00    +0.000 A 
ATOM      2  N   UNL     1       5.004   4.087  15.533  0.00  0.00    +0.000 NA
ATOM      3  C   UNL     1       5.586   5.065  14.841  0.00  0.00    +0.000 A 
ATOM      4  N   UNL     1       6.431   5.978  15.328  0.00  0.00    +0.000 NA
ATOM      5  C   UNL     1       6.737   5.879  16.625  0.00  0.00    +0.000 A 
ATOM      6  C   UNL     1       7.575   6.839  17.175  0.00  0.00    +0.000 A 
ATOM      7  C   UNL     1       7.945   6.813  18.521  0.00  0.00    +0.000 A 
ATOM      8  C   UNL     1       7.477   5.796  19.345  0.00  0.00    +0.000 A 
ATOM      9  C   UNL     1       6.623   4.828  18.819  0.00  0.00    +0.000 A 
ATOM     10  C   UNL     1       6.234   4.867  17.455  0.00  0.00    +0.000 A 
ENDROOT
BRANCH   1  11
ATOM     11  N   UNL     1       4.669   2.992  17.608  0.00  0.00    +0.000 N 
ATOM     12  H   UNL     1       4.827   2.083  17.187  0.00  0.00    +0.000 HD
BRANCH  11  18
ATOM     13 BR   UNL     1       1.498   5.834  20.759  0.00  0.00    +0.000 Br
ATOM     14  C   UNL     1       1.868   4.327  19.680  0.00  0.00    +0.000 A 
ATOM     15  C   UNL     1       0.920   3.320  19.544  0.00  0.00    +0.000 A 
ATOM     16  C   UNL     1       1.215   2.203  18.762  0.00  0.00    +0.000 A 
ATOM     17  C   UNL     1       2.451   2.102  18.113  0.00  0.00    +0.000 A 
ATOM     18  C   UNL     1       3.398   3.127  18.214  0.00  0.00    +0.000 A 
ATOM     19  C   UNL     1       3.099   4.230  19.031  0.00  0.00    +0.000 A 
ENDBRANCH  11  18
ENDBRANCH   1  11
TORSDOF 2
ENDMDL
MODEL 4
REMARK VINA RESULT:      -7.5      1.957      2.367
REMARK  Name = 
REMARK  2 active torsions:
REMARK  status: ('A' for Active; 'I' for Inactive)
REMARK    1  A    between atoms: C_6  and  N_7
REMARK    2  A    between atoms: N_7  and  C_8
REMARK                            x       y       z     vdW  Elec       q    Type
REMARK                         _______ _______ _______ _____ _____    ______ ____
ROOT
ATOM      1  C   UNL     1       5.784   4.163  16.631  0.00  0.00    +0.000 A 
ATOM      2  N   UNL     1       6.314   4.999  17.545  0.00  0.00    +0.000 NA
ATOM      3  C   UNL     1       7.193   5.898  17.104  0.00  0.00    +0.000 A 
ATOM      4  N   UNL     1       7.616   6.032  15.844  0.00  0.00    +0.000 NA
ATOM      5  C   UNL     1       7.086   5.200  14.943  0.00  0.00    +0.000 A 
ATOM      6  C   UNL     1       7.538   5.278  13.633  0.00  0.00    +0.000 A 
ATOM      7  C   UNL     1       7.040   4.447  12.628  0.00  0.00    +0.000 A 
ATOM      8  C   UNL     1       6.055   3.514  12.930  0.00  0.00    +0.000 A 
ATOM      9  C   UNL     1       5.594   3.406  14.242  0.00  0.00    +0.000 A 
ATOM     10  C   UNL     1       6.115   4.240  15.265  0.00  0.00    +0.000 A 
ENDROOT
BRANCH   1  11
ATOM     11  N   UNL     1       4.887   3.164  17.087  0.00  0.00    +0.000 N 
ATOM     12  H   UNL     1       4.801   2.436  16.388  0.00  0.00    +0.000 HD
BRANCH  11  18
ATOM     13 BR   UNL     1       2.244   2.741  21.660  0.00  0.00    +0.000 Br
ATOM     14  C   UNL     1       2.366   3.230  19.838  0.00  0.00    +0.000 A 
ATOM     15  C   UNL     1       1.260   3.762  19.185  0.00  0.00    +0.000 A 
ATOM     16  C   UNL     1       1.357   4.098  17.835  0.00  0.00    +0.000 A 
ATOM     17  C   UNL     1       2.561   3.910  17.145  0.00  0.00    +0.000 A 
ATOM     18  C   UNL     1       3.692   3.411  17.803  0.00  0.00    +0.000 A 
ATOM     19  C   UNL     1       3.567   3.046  19.153  0.00  0.00    +0.000 A 
ENDBRANCH  11  18
ENDBRANCH   1  11
TORSDOF 2
ENDMDL
MODEL 5
REMARK VINA RESULT:      -7.3      3.018      5.840
REMARK  Name = 
REMARK  2 active torsions:
REMARK  status: ('A' for Active; 'I' for Inactive)
REMARK    1  A    between atoms: C_6  and  N_7
REMARK    2  A    between atoms: N_7  and  C_8
REMARK                            x       y       z     vdW  Elec       q    Type
REMARK                         _______ _______ _______ _____ _____    ______ ____
ROOT
ATOM      1  C   UNL     1       2.881   5.948  18.646  0.00  0.00    +0.000 A 
ATOM      2  N   UNL     1       2.614   6.859  19.602  0.00  0.00    +0.000 NA
ATOM      3  C   UNL     1       1.837   6.466  20.611  0.00  0.00    +0.000 A 
ATOM      4  N   UNL     1       1.278   5.261  20.750  0.00  0.00    +0.000 NA
ATOM      5  C   UNL     1       1.548   4.363  19.798  0.00  0.00    +0.000 A 
ATOM      6  C   UNL     1       0.945   3.116  19.886  0.00  0.00    +0.000 A 
ATOM      7  C   UNL     1       1.169   2.119  18.935  0.00  0.00    +0.000 A 
ATOM      8  C   UNL     1       2.026   2.363  17.869  0.00  0.00    +0.000 A 
ATOM      9  C   UNL     1       2.633   3.612  17.751  0.00  0.00    +0.000 A 
ATOM     10  C   UNL     1       2.389   4.631  18.709  0.00  0.00    +0.000 A 
ENDROOT
BRANCH   1  11
ATOM     11  N   UNL     1       3.662   6.360  17.536  0.00  0.00    +0.000 N 
ATOM     12  H   UNL     1       3.058   6.555  16.746  0.00  0.00    +0.000 HD
BRANCH  11  18
ATOM     13 BR   UNL     1       6.676   4.217  13.742  0.00  0.00    +0.000 Br
ATOM     14  C   UNL     1       6.374   4.773  15.524  0.00  0.00    +0.000 A 
ATOM     15  C   UNL     1       7.353   4.572  16.491  0.00  0.00    +0.000 A 
ATOM     16  C   UNL     1       7.109   4.967  17.805  0.00  0.00    +0.000 A 
ATOM     17  C   UNL     1       5.891   5.569  18.147  0.00  0.00    +0.000 A 
ATOM     18  C   UNL     1       4.914   5.810  17.174  0.00  0.00    +0.000 A 
ATOM     19  C   UNL     1       5.163   5.376  15.862  0.00  0.00    +0.000 A 
ENDBRANCH  11  18
ENDBRANCH   1  11
TORSDOF 2
ENDMDL
MODEL 6
REMARK VINA RESULT:      -7.3      3.014      5.037
REMARK  Name = 
REMARK  2 active torsions:
REMARK  status: ('A' for Active; 'I' for Inactive)
REMARK    1  A    between atoms: C_6  and  N_7
REMARK    2  A    between atoms: N_7  and  C_8
REMARK                            x       y       z     vdW  Elec       q    Type
REMARK                         _______ _______ _______ _____ _____    ______ ____
ROOT
ATOM      1  C   UNL     1       3.144   5.784  18.919  0.00  0.00    +0.000 A 
ATOM      2  N   UNL     1       4.105   6.061  18.017  0.00  0.00    +0.000 NA
ATOM      3  C   UNL     1       4.358   5.129  17.098  0.00  0.00    +0.000 A 
ATOM      4  N   UNL     1       3.765   3.936  17.005  0.00  0.00    +0.000 NA
ATOM      5  C   UNL     1       2.814   3.668  17.904  0.00  0.00    +0.000 A 
ATOM      6  C   UNL     1       2.211   2.419  17.866  0.00  0.00    +0.000 A 
ATOM      7  C   UNL     1       1.209   2.054  18.768  0.00  0.00    +0.000 A 
ATOM      8  C   UNL     1       0.785   2.962  19.731  0.00  0.00    +0.000 A 
ATOM      9  C   UNL     1       1.385   4.219  19.799  0.00  0.00    +0.000 A 
ATOM     10  C   UNL     1       2.416   4.580  18.892  0.00  0.00    +0.000 A 
ENDROOT
BRANCH   1  11
ATOM     11  N   UNL     1       2.895   6.739  19.938  0.00  0.00    +0.000 N 
ATOM     12  H   UNL     1       2.788   6.270  20.829  0.00  0.00    +0.000 HD
BRANCH  11  18
ATOM     13 BR   UNL     1      -0.446  10.160  22.218  0.00  0.00    +0.000 Br
ATOM     14  C   UNL     1       0.497   9.488  20.724  0.00  0.00    +0.000 A 
ATOM     15  C   UNL     1       0.328  10.073  19.474  0.00  0.00    +0.000 A 
ATOM     16  C   UNL     1       1.013   9.553  18.377  0.00  0.00    +0.000 A 
ATOM     17  C   UNL     1       1.871   8.457  18.534  0.00  0.00    +0.000 A 
ATOM     18  C   UNL     1       2.077   7.885  19.795  0.00  0.00    +0.000 A 
ATOM     19  C   UNL     1       1.354   8.399  20.884  0.00  0.00    +0.000 A 
ENDBRANCH  11  18
ENDBRANCH   1  11
TORSDOF 2
ENDMDL
MODEL 7
REMARK VINA RESULT:      -7.1      1.771      1.924
REMARK  Name = 
REMARK  2 active torsions:
REMARK  status: ('A' for Active; 'I' for Inactive)
REMARK    1  A    between atoms: C_6  and  N_7
REMARK    2  A    between atoms: N_7  and  C_8
REMARK                            x       y       z     vdW  Elec       q    Type
REMARK                         _______ _______ _______ _____ _____    ______ ____
ROOT
ATOM      1  C   UNL     1       5.435   5.597  18.522  0.00  0.00    +0.000 A 
ATOM      2  N   UNL     1       6.296   5.448  19.547  0.00  0.00    +0.000 NA
ATOM      3  C   UNL     1       7.531   5.050  19.245  0.00  0.00    +0.000 A 
ATOM      4  N   UNL     1       7.987   4.760  18.024  0.00  0.00    +0.000 NA
ATOM      5  C   UNL     1       7.127   4.910  17.012  0.00  0.00    +0.000 A 
ATOM      6  C   UNL     1       7.553   4.572  15.735  0.00  0.00    +0.000 A 
ATOM      7  C   UNL     1       6.720   4.696  14.621  0.00  0.00    +0.000 A 
ATOM      8  C   UNL     1       5.427   5.181  14.778  0.00  0.00    +0.000 A 
ATOM      9  C   UNL     1       4.971   5.514  16.053  0.00  0.00    +0.000 A 
ATOM     10  C   UNL     1       5.814   5.370  17.186  0.00  0.00    +0.000 A 
ENDROOT
BRANCH   1  11
ATOM     11  N   UNL     1       4.100   5.970  18.826  0.00  0.00    +0.000 N 
ATOM     12  H   UNL     1       4.101   6.725  19.502  0.00  0.00    +0.000 HD
BRANCH  11  18
ATOM     13 BR   UNL     1       1.569   2.506  21.934  0.00  0.00    +0.000 Br
ATOM     14  C   UNL     1       1.802   3.426  20.299  0.00  0.00    +0.000 A 
ATOM     15  C   UNL     1       0.958   3.163  19.226  0.00  0.00    +0.000 A 
ATOM     16  C   UNL     1       1.154   3.833  18.019  0.00  0.00    +0.000 A 
ATOM     17  C   UNL     1       2.188   4.770  17.892  0.00  0.00    +0.000 A 
ATOM     18  C   UNL     1       3.019   5.070  18.977  0.00  0.00    +0.000 A 
ATOM     19  C   UNL     1       2.829   4.362  20.175  0.00  0.00    +0.000 A 
ENDBRANCH  11  18
ENDBRANCH   1  11
TORSDOF 2
ENDMDL
MODEL 8
REMARK VINA RESULT:      -7.1      3.342      6.322
REMARK  Name = 
REMARK  2 active torsions:
REMARK  status: ('A' for Active; 'I' for Inactive)
REMARK    1  A    between atoms: C_6  and  N_7
REMARK    2  A    between atoms: N_7  and  C_8
REMARK                            x       y       z     vdW  Elec       q    Type
REMARK                         _______ _______ _______ _____ _____    ______ ____
ROOT
ATOM      1  C   UNL     1       4.920   4.930  17.023  0.00  0.00    +0.000 A 
ATOM      2  N   UNL     1       4.959   6.274  17.102  0.00  0.00    +0.000 NA
ATOM      3  C   UNL     1       3.903   6.877  17.647  0.00  0.00    +0.000 A 
ATOM      4  N   UNL     1       2.799   6.275  18.098  0.00  0.00    +0.000 NA
ATOM      5  C   UNL     1       2.768   4.942  18.016  0.00  0.00    +0.000 A 
ATOM      6  C   UNL     1       1.617   4.287  18.431  0.00  0.00    +0.000 A 
ATOM      7  C   UNL     1       1.499   2.897  18.379  0.00  0.00    +0.000 A 
ATOM      8  C   UNL     1       2.559   2.132  17.909  0.00  0.00    +0.000 A 
ATOM      9  C   UNL     1       3.721   2.767  17.472  0.00  0.00    +0.000 A 
ATOM     10  C   UNL     1       3.832   4.181  17.510  0.00  0.00    +0.000 A 
ENDROOT
BRANCH   1  11
ATOM     11  N   UNL     1       6.010   4.271  16.399  0.00  0.00    +0.000 N 
ATOM     12  H   UNL     1       6.817   4.288  17.012  0.00  0.00    +0.000 HD
BRANCH  11  18
ATOM     13 BR   UNL     1       4.997   2.681  11.447  0.00  0.00    +0.000 Br
ATOM     14  C   UNL     1       5.991   3.669  12.716  0.00  0.00    +0.000 A 
ATOM     15  C   UNL     1       7.085   4.423  12.308  0.00  0.00    +0.000 A 
ATOM     16  C   UNL     1       7.822   5.130  13.257  0.00  0.00    +0.000 A 
ATOM     17  C   UNL     1       7.458   5.087  14.609  0.00  0.00    +0.000 A 
ATOM     18  C   UNL     1       6.336   4.361  15.025  0.00  0.00    +0.000 A 
ATOM     19  C   UNL     1       5.624   3.629  14.061  0.00  0.00    +0.000 A 
ENDBRANCH  11  18
ENDBRANCH   1  11
TORSDOF 2
ENDMDL
MODEL 9
REMARK VINA RESULT:      -7.0      2.194      2.832
REMARK  Name = 
REMARK  2 active torsions:
REMARK  status: ('A' for Active; 'I' for Inactive)
REMARK    1  A    between atoms: C_6  and  N_7
REMARK    2  A    between atoms: N_7  and  C_8
REMARK                            x       y       z     vdW  Elec       q    Type
REMARK                         _______ _______ _______ _____ _____    ______ ____
ROOT
ATOM      1  C   UNL     1       4.961   5.406  18.605  0.00  0.00    +0.000 A 
ATOM      2  N   UNL     1       5.775   5.576  19.665  0.00  0.00    +0.000 NA
ATOM      3  C   UNL     1       7.077   5.368  19.465  0.00  0.00    +0.000 A 
ATOM      4  N   UNL     1       7.644   4.983  18.319  0.00  0.00    +0.000 NA
ATOM      5  C   UNL     1       6.830   4.817  17.273  0.00  0.00    +0.000 A 
ATOM      6  C   UNL     1       7.380   4.371  16.079  0.00  0.00    +0.000 A 
ATOM      7  C   UNL     1       6.602   4.169  14.937  0.00  0.00    +0.000 A 
ATOM      8  C   UNL     1       5.237   4.428  14.979  0.00  0.00    +0.000 A 
ATOM      9  C   UNL     1       4.658   4.863  16.170  0.00  0.00    +0.000 A 
ATOM     10  C   UNL     1       5.448   5.050  17.334  0.00  0.00    +0.000 A 
ENDROOT
BRANCH   1  11
ATOM     11  N   UNL     1       3.566   5.570  18.809  0.00  0.00    +0.000 N 
ATOM     12  H   UNL     1       3.059   4.862  18.291  0.00  0.00    +0.000 HD
BRANCH  11  18
ATOM     13 BR   UNL     1       0.424   8.808  21.586  0.00  0.00    +0.000 Br
ATOM     14  C   UNL     1       1.422   8.364  20.043  0.00  0.00    +0.000 A 
ATOM     15  C   UNL     1       1.437   9.225  18.952  0.00  0.00    +0.000 A 
ATOM     16  C   UNL     1       2.160   8.875  17.812  0.00  0.00    +0.000 A 
ATOM     17  C   UNL     1       2.873   7.671  17.771  0.00  0.00    +0.000 A 
ATOM     18  C   UNL     1       2.896   6.814  18.878  0.00  0.00    +0.000 A 
ATOM     19  C   UNL     1       2.136   7.166  20.005  0.00  0.00    +0.000 A 
ENDBRANCH  11  18
ENDBRANCH   1  11
TORSDOF 2
ENDMDL
