MODEL 1
REMARK VINA RESULT:      -6.5      0.000      0.000
REMARK  Name = 
REMARK  18 active torsions:
REMARK  status: ('A' for Active; 'I' for Inactive)
REMARK    1  A    between atoms: C_1  and  C_2
REMARK    2  A    between atoms: C_2  and  C_3
REMARK    3  A    between atoms: C_3  and  C_4
REMARK    4  A    between atoms: C_4  and  C_5
REMARK    5  A    between atoms: C_5  and  C_6
REMARK    6  A    between atoms: C_6  and  C_7
REMARK    7  A    between atoms: C_8  and  C_9
REMARK    8  A    between atoms: C_9  and  C_10
REMARK    9  A    between atoms: C_10  and  C_11
REMARK   10  A    between atoms: C_11  and  C_12
REMARK   11  A    between atoms: C_12  and  C_13
REMARK   12  A    between atoms: C_13  and  C_14
REMARK   13  A    between atoms: C_14  and  C_15
REMARK   14  A    between atoms: C_15  and  C_16
REMARK   15  A    between atoms: C_16  and  C_17
REMARK   16  A    between atoms: C_17  and  C_18
REMARK   17  A    between atoms: C_20  and  O_21
REMARK   18  A    between atoms: C_24  and  O_25
REMARK                            x       y       z     vdW  Elec       q    Type
REMARK                         _______ _______ _______ _____ _____    ______ ____
ROOT
ATOM      1  C   UNL     1       2.974   2.045  18.194  0.00  0.00    +0.000 C 
ENDROOT
BRANCH   1   2
ATOM      2  C   UNL     1       2.842   3.087  17.094  0.00  0.00    +0.000 C 
BRANCH   2   3
ATOM      3  C   UNL     1       4.175   3.778  16.849  0.00  0.00    +0.000 C 
BRANCH   3   4
ATOM      4  C   UNL     1       4.131   5.220  17.347  0.00  0.00    +0.000 C 
BRANCH   4   5
ATOM      5  C   UNL     1       5.504   5.690  17.745  0.00  0.00    +0.000 A 
ATOM      6  C   UNL     1       6.043   5.282  18.973  0.00  0.00    +0.000 A 
ATOM      7  C   UNL     1       7.291   5.748  19.368  0.00  0.00    +0.000 A 
ATOM      8  C   UNL     1       8.015   6.619  18.562  0.00  0.00    +0.000 A 
ATOM      9  C   UNL     1       7.485   7.037  17.341  0.00  0.00    +0.000 A 
ATOM     10  C   UNL     1       6.233   6.575  16.943  0.00  0.00    +0.000 A 
BRANCH  10  11
ATOM     11  O   UNL     1       5.693   6.989  15.758  0.00  0.00    +0.000 OA
ATOM     12  H   UNL     1       6.101   7.834  15.508  0.00  0.00    +0.000 HD
ENDBRANCH  10  11
BRANCH   7  13
ATOM     13  O   UNL     1       7.841   5.371  20.555  0.00  0.00    +0.000 OA
ATOM     14  H   UNL     1       8.726   5.763  20.628  0.00  0.00    +0.000 HD
ENDBRANCH   7  13
ENDBRANCH   4   5
ENDBRANCH   3   4
ENDBRANCH   2   3
ENDBRANCH   1   2
BRANCH   1  15
ATOM     15  C   UNL     1       3.693   2.630  19.402  0.00  0.00    +0.000 C 
BRANCH  15  16
ATOM     16  C   UNL     1       2.755   2.632  20.597  0.00  0.00    +0.000 C 
BRANCH  16  17
ATOM     17  C   UNL     1       1.309   2.882  20.180  0.00  0.00    +0.000 C 
BRANCH  17  18
ATOM     18  C   UNL     1       0.890   4.328  20.442  0.00  0.00    +0.000 C 
BRANCH  18  19
ATOM     19  C   UNL     1       2.039   5.259  20.837  0.00  0.00    +0.000 C 
BRANCH  19  21
ATOM     20  C   UNL     1       1.881   7.676  20.145  0.00  0.00    +0.000 C 
ATOM     21  C   UNL     1       2.210   6.403  19.877  0.00  0.00    +0.000 C 
BRANCH  20  22
ATOM     22  C   UNL     1       1.329   8.100  21.469  0.00  0.00    +0.000 C 
BRANCH  22  23
ATOM     23  C   UNL     1      -0.142   8.477  21.405  0.00  0.00    +0.000 C 
BRANCH  23  24
ATOM     24  C   UNL     1      -0.265   9.992  21.268  0.00  0.00    +0.000 C 
BRANCH  24  25
ATOM     25  C   UNL     1      -0.508  10.383  19.818  0.00  0.00    +0.000 C 
BRANCH  25  27
ATOM     26  C   UNL     1       1.507  10.894  18.425  0.00  0.00    +0.000 C 
ATOM     27  C   UNL     1       0.471  11.465  19.375  0.00  0.00    +0.000 C 
ENDBRANCH  25  27
ENDBRANCH  24  25
ENDBRANCH  23  24
ENDBRANCH  22  23
ENDBRANCH  20  22
ENDBRANCH  19  21
ENDBRANCH  18  19
ENDBRANCH  17  18
ENDBRANCH  16  17
ENDBRANCH  15  16
ENDBRANCH   1  15
TORSDOF 17
ENDMDL
MODEL 2
REMARK VINA RESULT:      -6.5      1.080      3.009
REMARK  Name = 
REMARK  18 active torsions:
REMARK  status: ('A' for Active; 'I' for Inactive)
REMARK    1  A    between atoms: C_1  and  C_2
REMARK    2  A    between atoms: C_2  and  C_3
REMARK    3  A    between atoms: C_3  and  C_4
REMARK    4  A    between atoms: C_4  and  C_5
REMARK    5  A    between atoms: C_5  and  C_6
REMARK    6  A    between atoms: C_6  and  C_7
REMARK    7  A    between atoms: C_8  and  C_9
REMARK    8  A    between atoms: C_9  and  C_10
REMARK    9  A    between atoms: C_10  and  C_11
REMARK   10  A    between atoms: C_11  and  C_12
REMARK   11  A    between atoms: C_12  and  C_13
REMARK   12  A    between atoms: C_13  and  C_14
REMARK   13  A    between atoms: C_14  and  C_15
REMARK   14  A    between atoms: C_15  and  C_16
REMARK   15  A    between atoms: C_16  and  C_17
REMARK   16  A    between atoms: C_17  and  C_18
REMARK   17  A    between atoms: C_20  and  O_21
REMARK   18  A    between atoms: C_24  and  O_25
REMARK                            x       y       z     vdW  Elec       q    Type
REMARK                         _______ _______ _______ _____ _____    ______ ____
ROOT
ATOM      1  C   UNL     1       3.122   2.820  21.058  0.00  0.00    +0.000 C 
ENDROOT
BRANCH   1   2
ATOM      2  C   UNL     1       3.507   2.188  19.729  0.00  0.00    +0.000 C 
BRANCH   2   3
ATOM      3  C   UNL     1       4.224   3.198  18.844  0.00  0.00    +0.000 C 
BRANCH   3   4
ATOM      4  C   UNL     1       5.125   4.099  19.683  0.00  0.00    +0.000 C 
BRANCH   4   5
ATOM      5  C   UNL     1       5.820   5.115  18.816  0.00  0.00    +0.000 A 
ATOM      6  C   UNL     1       5.240   5.494  17.597  0.00  0.00    +0.000 A 
ATOM      7  C   UNL     1       5.896   6.397  16.772  0.00  0.00    +0.000 A 
ATOM      8  C   UNL     1       7.128   6.930  17.134  0.00  0.00    +0.000 A 
ATOM      9  C   UNL     1       7.718   6.555  18.341  0.00  0.00    +0.000 A 
ATOM     10  C   UNL     1       7.064   5.647  19.171  0.00  0.00    +0.000 A 
BRANCH  10  11
ATOM     11  O   UNL     1       7.639   5.257  20.348  0.00  0.00    +0.000 OA
ATOM     12  H   UNL     1       8.334   4.608  20.155  0.00  0.00    +0.000 HD
ENDBRANCH  10  11
BRANCH   7  13
ATOM     13  O   UNL     1       5.359   6.784  15.582  0.00  0.00    +0.000 OA
ATOM     14  H   UNL     1       4.460   6.423  15.512  0.00  0.00    +0.000 HD
ENDBRANCH   7  13
ENDBRANCH   4   5
ENDBRANCH   3   4
ENDBRANCH   2   3
ENDBRANCH   1   2
BRANCH   1  15
ATOM     15  C   UNL     1       1.624   2.689  21.300  0.00  0.00    +0.000 C 
BRANCH  15  16
ATOM     16  C   UNL     1       0.885   3.726  20.473  0.00  0.00    +0.000 C 
BRANCH  16  17
ATOM     17  C   UNL     1       1.519   5.108  20.601  0.00  0.00    +0.000 C 
BRANCH  17  18
ATOM     18  C   UNL     1       1.827   5.715  19.233  0.00  0.00    +0.000 C 
BRANCH  18  19
ATOM     19  C   UNL     1       2.396   7.136  19.286  0.00  0.00    +0.000 C 
BRANCH  19  21
ATOM     20  C   UNL     1       2.213   9.021  17.625  0.00  0.00    +0.000 C 
ATOM     21  C   UNL     1       2.534   7.753  17.921  0.00  0.00    +0.000 C 
BRANCH  20  22
ATOM     22  C   UNL     1       1.706   9.981  18.653  0.00  0.00    +0.000 C 
BRANCH  22  23
ATOM     23  C   UNL     1       0.215  10.250  18.530  0.00  0.00    +0.000 C 
BRANCH  23  24
ATOM     24  C   UNL     1      -0.501   9.664  19.744  0.00  0.00    +0.000 C 
BRANCH  24  25
ATOM     25  C   UNL     1       0.122  10.175  21.034  0.00  0.00    +0.000 C 
BRANCH  25  27
ATOM     26  C   UNL     1      -0.206   9.553  23.436  0.00  0.00    +0.000 C 
ATOM     27  C   UNL     1       0.227   9.059  22.068  0.00  0.00    +0.000 C 
ENDBRANCH  25  27
ENDBRANCH  24  25
ENDBRANCH  23  24
ENDBRANCH  22  23
ENDBRANCH  20  22
ENDBRANCH  19  21
ENDBRANCH  18  19
ENDBRANCH  17  18
ENDBRANCH  16  17
ENDBRANCH  15  16
ENDBRANCH   1  15
TORSDOF 17
ENDMDL
MODEL 3
REMARK VINA RESULT:      -6.2      2.299      6.752
REMARK  Name = 
REMARK  18 active torsions:
REMARK  status: ('A' for Active; 'I' for Inactive)
REMARK    1  A    between atoms: C_1  and  C_2
REMARK    2  A    between atoms: C_2  and  C_3
REMARK    3  A    between atoms: C_3  and  C_4
REMARK    4  A    between atoms: C_4  and  C_5
REMARK    5  A    between atoms: C_5  and  C_6
REMARK    6  A    between atoms: C_6  and  C_7
REMARK    7  A    between atoms: C_8  and  C_9
REMARK    8  A    between atoms: C_9  and  C_10
REMARK    9  A    between atoms: C_10  and  C_11
REMARK   10  A    between atoms: C_11  and  C_12
REMARK   11  A    between atoms: C_12  and  C_13
REMARK   12  A    between atoms: C_13  and  C_14
REMARK   13  A    between atoms: C_14  and  C_15
REMARK   14  A    between atoms: C_15  and  C_16
REMARK   15  A    between atoms: C_16  and  C_17
REMARK   16  A    between atoms: C_17  and  C_18
REMARK   17  A    between atoms: C_20  and  O_21
REMARK   18  A    between atoms: C_24  and  O_25
REMARK                            x       y       z     vdW  Elec       q    Type
REMARK                         _______ _______ _______ _____ _____    ______ ____
ROOT
ATOM      1  C   UNL     1       1.320   8.430  21.026  0.00  0.00    +0.000 C 
ENDROOT
BRANCH   1   2
ATOM      2  C   UNL     1       0.913   6.983  21.260  0.00  0.00    +0.000 C 
BRANCH   2   3
ATOM      3  C   UNL     1       1.807   6.040  20.468  0.00  0.00    +0.000 C 
BRANCH   3   4
ATOM      4  C   UNL     1       1.188   4.647  20.399  0.00  0.00    +0.000 C 
BRANCH   4   5
ATOM      5  C   UNL     1       2.079   3.705  19.635  0.00  0.00    +0.000 A 
ATOM      6  C   UNL     1       3.180   3.123  20.279  0.00  0.00    +0.000 A 
ATOM      7  C   UNL     1       4.032   2.287  19.569  0.00  0.00    +0.000 A 
ATOM      8  C   UNL     1       3.811   2.020  18.222  0.00  0.00    +0.000 A 
ATOM      9  C   UNL     1       2.723   2.599  17.570  0.00  0.00    +0.000 A 
ATOM     10  C   UNL     1       1.868   3.440  18.277  0.00  0.00    +0.000 A 
BRANCH  10  11
ATOM     11  O   UNL     1       0.808   4.029  17.647  0.00  0.00    +0.000 OA
ATOM     12  H   UNL     1       1.020   4.962  17.486  0.00  0.00    +0.000 HD
ENDBRANCH  10  11
BRANCH   7  13
ATOM     13  O   UNL     1       5.111   1.707  20.166  0.00  0.00    +0.000 OA
ATOM     14  H   UNL     1       5.644   2.400  20.588  0.00  0.00    +0.000 HD
ENDBRANCH   7  13
ENDBRANCH   4   5
ENDBRANCH   3   4
ENDBRANCH   2   3
ENDBRANCH   1   2
BRANCH   1  15
ATOM     15  C   UNL     1       0.407   9.084  19.998  0.00  0.00    +0.000 C 
BRANCH  15  16
ATOM     16  C   UNL     1       1.044  10.371  19.503  0.00  0.00    +0.000 C 
BRANCH  16  17
ATOM     17  C   UNL     1       1.780  10.166  18.183  0.00  0.00    +0.000 C 
BRANCH  17  18
ATOM     18  C   UNL     1       1.847   8.688  17.799  0.00  0.00    +0.000 C 
BRANCH  18  19
ATOM     19  C   UNL     1       3.267   8.146  17.616  0.00  0.00    +0.000 C 
BRANCH  19  21
ATOM     20  C   UNL     1       4.466   5.931  17.678  0.00  0.00    +0.000 C 
ATOM     21  C   UNL     1       3.335   6.649  17.743  0.00  0.00    +0.000 C 
BRANCH  20  22
ATOM     22  C   UNL     1       5.809   6.564  17.500  0.00  0.00    +0.000 C 
BRANCH  22  23
ATOM     23  C   UNL     1       6.635   5.908  16.407  0.00  0.00    +0.000 C 
BRANCH  23  24
ATOM     24  C   UNL     1       6.524   4.391  16.537  0.00  0.00    +0.000 C 
BRANCH  24  25
ATOM     25  C   UNL     1       5.864   3.792  15.305  0.00  0.00    +0.000 C 
BRANCH  25  27
ATOM     26  C   UNL     1       6.014   3.560  12.818  0.00  0.00    +0.000 C 
ATOM     27  C   UNL     1       6.494   4.339  14.029  0.00  0.00    +0.000 C 
ENDBRANCH  25  27
ENDBRANCH  24  25
ENDBRANCH  23  24
ENDBRANCH  22  23
ENDBRANCH  20  22
ENDBRANCH  19  21
ENDBRANCH  18  19
ENDBRANCH  17  18
ENDBRANCH  16  17
ENDBRANCH  15  16
ENDBRANCH   1  15
TORSDOF 17
ENDMDL
MODEL 4
REMARK VINA RESULT:      -6.1      1.189      1.806
REMARK  Name = 
REMARK  18 active torsions:
REMARK  status: ('A' for Active; 'I' for Inactive)
REMARK    1  A    between atoms: C_1  and  C_2
REMARK    2  A    between atoms: C_2  and  C_3
REMARK    3  A    between atoms: C_3  and  C_4
REMARK    4  A    between atoms: C_4  and  C_5
REMARK    5  A    between atoms: C_5  and  C_6
REMARK    6  A    between atoms: C_6  and  C_7
REMARK    7  A    between atoms: C_8  and  C_9
REMARK    8  A    between atoms: C_9  and  C_10
REMARK    9  A    between atoms: C_10  and  C_11
REMARK   10  A    between atoms: C_11  and  C_12
REMARK   11  A    between atoms: C_12  and  C_13
REMARK   12  A    between atoms: C_13  and  C_14
REMARK   13  A    between atoms: C_14  and  C_15
REMARK   14  A    between atoms: C_15  and  C_16
REMARK   15  A    between atoms: C_16  and  C_17
REMARK   16  A    between atoms: C_17  and  C_18
REMARK   17  A    between atoms: C_20  and  O_21
REMARK   18  A    between atoms: C_24  and  O_25
REMARK                            x       y       z     vdW  Elec       q    Type
REMARK                         _______ _______ _______ _____ _____    ______ ____
ROOT
ATOM      1  C   UNL     1       3.642   1.728  18.684  0.00  0.00    +0.000 C 
ENDROOT
BRANCH   1   2
ATOM      2  C   UNL     1       4.284   3.107  18.681  0.00  0.00    +0.000 C 
BRANCH   2   3
ATOM      3  C   UNL     1       4.237   3.716  17.287  0.00  0.00    +0.000 C 
BRANCH   3   4
ATOM      4  C   UNL     1       4.244   5.240  17.368  0.00  0.00    +0.000 C 
BRANCH   4   5
ATOM      5  C   UNL     1       5.604   5.747  17.765  0.00  0.00    +0.000 A 
ATOM      6  C   UNL     1       6.162   5.342  18.985  0.00  0.00    +0.000 A 
ATOM      7  C   UNL     1       7.398   5.841  19.378  0.00  0.00    +0.000 A 
ATOM      8  C   UNL     1       8.091   6.742  18.578  0.00  0.00    +0.000 A 
ATOM      9  C   UNL     1       7.542   7.157  17.365  0.00  0.00    +0.000 A 
ATOM     10  C   UNL     1       6.302   6.662  16.968  0.00  0.00    +0.000 A 
BRANCH  10  11
ATOM     11  O   UNL     1       5.744   7.073  15.790  0.00  0.00    +0.000 OA
ATOM     12  H   UNL     1       5.480   8.003  15.878  0.00  0.00    +0.000 HD
ENDBRANCH  10  11
BRANCH   7  13
ATOM     13  O   UNL     1       7.965   5.468  20.559  0.00  0.00    +0.000 OA
ATOM     14  H   UNL     1       7.810   4.519  20.694  0.00  0.00    +0.000 HD
ENDBRANCH   7  13
ENDBRANCH   4   5
ENDBRANCH   3   4
ENDBRANCH   2   3
ENDBRANCH   1   2
BRANCH   1  15
ATOM     15  C   UNL     1       2.131   1.840  18.528  0.00  0.00    +0.000 C 
BRANCH  15  16
ATOM     16  C   UNL     1       1.510   2.204  19.866  0.00  0.00    +0.000 C 
BRANCH  16  17
ATOM     17  C   UNL     1       0.773   3.538  19.802  0.00  0.00    +0.000 C 
BRANCH  17  18
ATOM     18  C   UNL     1       1.445   4.596  20.676  0.00  0.00    +0.000 C 
BRANCH  18  19
ATOM     19  C   UNL     1       1.905   5.844  19.919  0.00  0.00    +0.000 C 
BRANCH  19  21
ATOM     20  C   UNL     1       1.715   8.344  20.168  0.00  0.00    +0.000 C 
ATOM     21  C   UNL     1       1.662   7.110  20.693  0.00  0.00    +0.000 C 
BRANCH  20  22
ATOM     22  C   UNL     1       1.996   8.587  18.719  0.00  0.00    +0.000 C 
BRANCH  22  23
ATOM     23  C   UNL     1       1.399   9.888  18.209  0.00  0.00    +0.000 C 
BRANCH  23  24
ATOM     24  C   UNL     1      -0.077   9.669  17.887  0.00  0.00    +0.000 C 
BRANCH  24  25
ATOM     25  C   UNL     1      -0.953  10.583  18.730  0.00  0.00    +0.000 C 
BRANCH  25  27
ATOM     26  C   UNL     1      -2.472  10.140  16.791  0.00  0.00    +0.000 C 
ATOM     27  C   UNL     1      -2.401  10.542  18.252  0.00  0.00    +0.000 C 
ENDBRANCH  25  27
ENDBRANCH  24  25
ENDBRANCH  23  24
ENDBRANCH  22  23
ENDBRANCH  20  22
ENDBRANCH  19  21
ENDBRANCH  18  19
ENDBRANCH  17  18
ENDBRANCH  16  17
ENDBRANCH  15  16
ENDBRANCH   1  15
TORSDOF 17
ENDMDL
MODEL 5
REMARK VINA RESULT:      -6.1      1.370      3.068
REMARK  Name = 
REMARK  18 active torsions:
REMARK  status: ('A' for Active; 'I' for Inactive)
REMARK    1  A    between atoms: C_1  and  C_2
REMARK    2  A    between atoms: C_2  and  C_3
REMARK    3  A    between atoms: C_3  and  C_4
REMARK    4  A    between atoms: C_4  and  C_5
REMARK    5  A    between atoms: C_5  and  C_6
REMARK    6  A    between atoms: C_6  and  C_7
REMARK    7  A    between atoms: C_8  and  C_9
REMARK    8  A    between atoms: C_9  and  C_10
REMARK    9  A    between atoms: C_10  and  C_11
REMARK   10  A    between atoms: C_11  and  C_12
REMARK   11  A    between atoms: C_12  and  C_13
REMARK   12  A    between atoms: C_13  and  C_14
REMARK   13  A    between atoms: C_14  and  C_15
REMARK   14  A    between atoms: C_15  and  C_16
REMARK   15  A    between atoms: C_16  and  C_17
REMARK   16  A    between atoms: C_17  and  C_18
REMARK   17  A    between atoms: C_20  and  O_21
REMARK   18  A    between atoms: C_24  and  O_25
REMARK                            x       y       z     vdW  Elec       q    Type
REMARK                         _______ _______ _______ _____ _____    ______ ____
ROOT
ATOM      1  C   UNL     1       1.189   2.532  19.541  0.00  0.00    +0.000 C 
ENDROOT
BRANCH   1   2
ATOM      2  C   UNL     1       2.314   1.949  18.699  0.00  0.00    +0.000 C 
BRANCH   2   3
ATOM      3  C   UNL     1       2.546   2.795  17.456  0.00  0.00    +0.000 C 
BRANCH   3   4
ATOM      4  C   UNL     1       3.990   2.666  16.982  0.00  0.00    +0.000 C 
BRANCH   4   5
ATOM      5  C   UNL     1       4.711   3.982  17.099  0.00  0.00    +0.000 A 
ATOM      6  C   UNL     1       4.619   4.914  16.056  0.00  0.00    +0.000 A 
ATOM      7  C   UNL     1       5.317   6.112  16.137  0.00  0.00    +0.000 A 
ATOM      8  C   UNL     1       6.112   6.401  17.240  0.00  0.00    +0.000 A 
ATOM      9  C   UNL     1       6.216   5.479  18.281  0.00  0.00    +0.000 A 
ATOM     10  C   UNL     1       5.521   4.275  18.203  0.00  0.00    +0.000 A 
BRANCH  10  11
ATOM     11  O   UNL     1       5.627   3.354  19.206  0.00  0.00    +0.000 OA
ATOM     12  H   UNL     1       5.452   3.794  20.053  0.00  0.00    +0.000 HD
ENDBRANCH  10  11
BRANCH   7  13
ATOM     13  O   UNL     1       5.248   7.036  15.140  0.00  0.00    +0.000 OA
ATOM     14  H   UNL     1       5.656   7.862  15.449  0.00  0.00    +0.000 HD
ENDBRANCH   7  13
ENDBRANCH   4   5
ENDBRANCH   3   4
ENDBRANCH   2   3
ENDBRANCH   1   2
BRANCH   1  15
ATOM     15  C   UNL     1       1.546   2.480  21.021  0.00  0.00    +0.000 C 
BRANCH  15  16
ATOM     16  C   UNL     1       1.751   3.892  21.542  0.00  0.00    +0.000 C 
BRANCH  16  17
ATOM     17  C   UNL     1       1.436   4.939  20.478  0.00  0.00    +0.000 C 
BRANCH  17  18
ATOM     18  C   UNL     1       2.652   5.810  20.166  0.00  0.00    +0.000 C 
BRANCH  18  19
ATOM     19  C   UNL     1       2.312   7.238  19.731  0.00  0.00    +0.000 C 
BRANCH  19  21
ATOM     20  C   UNL     1       2.045   8.549  17.597  0.00  0.00    +0.000 C 
ATOM     21  C   UNL     1       2.307   7.400  18.236  0.00  0.00    +0.000 C 
BRANCH  20  22
ATOM     22  C   UNL     1       1.758   9.824  18.324  0.00  0.00    +0.000 C 
BRANCH  22  23
ATOM     23  C   UNL     1       0.271  10.108  18.460  0.00  0.00    +0.000 C 
BRANCH  23  24
ATOM     24  C   UNL     1       0.046  11.040  19.648  0.00  0.00    +0.000 C 
BRANCH  24  25
ATOM     25  C   UNL     1      -0.305  10.244  20.896  0.00  0.00    +0.000 C 
BRANCH  25  27
ATOM     26  C   UNL     1      -1.172  10.708  23.197  0.00  0.00    +0.000 C 
ATOM     27  C   UNL     1      -0.148  11.100  22.148  0.00  0.00    +0.000 C 
ENDBRANCH  25  27
ENDBRANCH  24  25
ENDBRANCH  23  24
ENDBRANCH  22  23
ENDBRANCH  20  22
ENDBRANCH  19  21
ENDBRANCH  18  19
ENDBRANCH  17  18
ENDBRANCH  16  17
ENDBRANCH  15  16
ENDBRANCH   1  15
TORSDOF 17
ENDMDL
MODEL 6
REMARK VINA RESULT:      -6.1      1.354      1.995
REMARK  Name = 
REMARK  18 active torsions:
REMARK  status: ('A' for Active; 'I' for Inactive)
REMARK    1  A    between atoms: C_1  and  C_2
REMARK    2  A    between atoms: C_2  and  C_3
REMARK    3  A    between atoms: C_3  and  C_4
REMARK    4  A    between atoms: C_4  and  C_5
REMARK    5  A    between atoms: C_5  and  C_6
REMARK    6  A    between atoms: C_6  and  C_7
REMARK    7  A    between atoms: C_8  and  C_9
REMARK    8  A    between atoms: C_9  and  C_10
REMARK    9  A    between atoms: C_10  and  C_11
REMARK   10  A    between atoms: C_11  and  C_12
REMARK   11  A    between atoms: C_12  and  C_13
REMARK   12  A    between atoms: C_13  and  C_14
REMARK   13  A    between atoms: C_14  and  C_15
REMARK   14  A    between atoms: C_15  and  C_16
REMARK   15  A    between atoms: C_16  and  C_17
REMARK   16  A    between atoms: C_17  and  C_18
REMARK   17  A    between atoms: C_20  and  O_21
REMARK   18  A    between atoms: C_24  and  O_25
REMARK                            x       y       z     vdW  Elec       q    Type
REMARK                         _______ _______ _______ _____ _____    ______ ____
ROOT
ATOM      1  C   UNL     1       2.063   2.020  18.566  0.00  0.00    +0.000 C 
ENDROOT
BRANCH   1   2
ATOM      2  C   UNL     1       2.702   2.743  17.389  0.00  0.00    +0.000 C 
BRANCH   2   3
ATOM      3  C   UNL     1       4.018   3.384  17.806  0.00  0.00    +0.000 C 
BRANCH   3   4
ATOM      4  C   UNL     1       4.074   4.838  17.348  0.00  0.00    +0.000 C 
BRANCH   4   5
ATOM      5  C   UNL     1       5.393   5.463  17.713  0.00  0.00    +0.000 A 
ATOM      6  C   UNL     1       6.031   5.082  18.902  0.00  0.00    +0.000 A 
ATOM      7  C   UNL     1       7.227   5.687  19.268  0.00  0.00    +0.000 A 
ATOM      8  C   UNL     1       7.801   6.671  18.472  0.00  0.00    +0.000 A 
ATOM      9  C   UNL     1       7.173   7.063  17.291  0.00  0.00    +0.000 A 
ATOM     10  C   UNL     1       5.972   6.461  16.921  0.00  0.00    +0.000 A 
BRANCH  10  11
ATOM     11  O   UNL     1       5.335   6.847  15.775  0.00  0.00    +0.000 OA
ATOM     12  H   UNL     1       5.389   7.814  15.699  0.00  0.00    +0.000 HD
ENDBRANCH  10  11
BRANCH   7  13
ATOM     13  O   UNL     1       7.869   5.339  20.417  0.00  0.00    +0.000 OA
ATOM     14  H   UNL     1       7.215   5.260  21.130  0.00  0.00    +0.000 HD
ENDBRANCH   7  13
ENDBRANCH   4   5
ENDBRANCH   3   4
ENDBRANCH   2   3
ENDBRANCH   1   2
BRANCH   1  15
ATOM     15  C   UNL     1       2.740   2.417  19.870  0.00  0.00    +0.000 C 
BRANCH  15  16
ATOM     16  C   UNL     1       1.804   3.298  20.680  0.00  0.00    +0.000 C 
BRANCH  16  17
ATOM     17  C   UNL     1       2.428   4.655  20.986  0.00  0.00    +0.000 C 
BRANCH  17  18
ATOM     18  C   UNL     1       1.642   5.796  20.341  0.00  0.00    +0.000 C 
BRANCH  18  19
ATOM     19  C   UNL     1       2.482   7.027  19.995  0.00  0.00    +0.000 C 
BRANCH  19  21
ATOM     20  C   UNL     1       1.728   8.652  18.223  0.00  0.00    +0.000 C 
ATOM     21  C   UNL     1       2.282   7.482  18.576  0.00  0.00    +0.000 C 
BRANCH  20  22
ATOM     22  C   UNL     1       1.272   9.659  19.231  0.00  0.00    +0.000 C 
BRANCH  22  23
ATOM     23  C   UNL     1       0.468  10.792  18.616  0.00  0.00    +0.000 C 
BRANCH  23  24
ATOM     24  C   UNL     1       1.226  12.104  18.804  0.00  0.00    +0.000 C 
BRANCH  24  25
ATOM     25  C   UNL     1       0.357  13.130  19.515  0.00  0.00    +0.000 C 
BRANCH  25  27
ATOM     26  C   UNL     1      -0.085  15.531  18.965  0.00  0.00    +0.000 C 
ATOM     27  C   UNL     1      -0.275  14.094  18.516  0.00  0.00    +0.000 C 
ENDBRANCH  25  27
ENDBRANCH  24  25
ENDBRANCH  23  24
ENDBRANCH  22  23
ENDBRANCH  20  22
ENDBRANCH  19  21
ENDBRANCH  18  19
ENDBRANCH  17  18
ENDBRANCH  16  17
ENDBRANCH  15  16
ENDBRANCH   1  15
TORSDOF 17
ENDMDL
MODEL 7
REMARK VINA RESULT:      -6.1      4.238      6.855
REMARK  Name = 
REMARK  18 active torsions:
REMARK  status: ('A' for Active; 'I' for Inactive)
REMARK    1  A    between atoms: C_1  and  C_2
REMARK    2  A    between atoms: C_2  and  C_3
REMARK    3  A    between atoms: C_3  and  C_4
REMARK    4  A    between atoms: C_4  and  C_5
REMARK    5  A    between atoms: C_5  and  C_6
REMARK    6  A    between atoms: C_6  and  C_7
REMARK    7  A    between atoms: C_8  and  C_9
REMARK    8  A    between atoms: C_9  and  C_10
REMARK    9  A    between atoms: C_10  and  C_11
REMARK   10  A    between atoms: C_11  and  C_12
REMARK   11  A    between atoms: C_12  and  C_13
REMARK   12  A    between atoms: C_13  and  C_14
REMARK   13  A    between atoms: C_14  and  C_15
REMARK   14  A    between atoms: C_15  and  C_16
REMARK   15  A    between atoms: C_16  and  C_17
REMARK   16  A    between atoms: C_17  and  C_18
REMARK   17  A    between atoms: C_20  and  O_21
REMARK   18  A    between atoms: C_24  and  O_25
REMARK                            x       y       z     vdW  Elec       q    Type
REMARK                         _______ _______ _______ _____ _____    ______ ____
ROOT
ATOM      1  C   UNL     1       8.043   7.261  17.750  0.00  0.00    +0.000 C 
ENDROOT
BRANCH   1   2
ATOM      2  C   UNL     1       7.686   8.739  17.703  0.00  0.00    +0.000 C 
BRANCH   2   3
ATOM      3  C   UNL     1       8.699   9.559  18.487  0.00  0.00    +0.000 C 
BRANCH   3   4
ATOM      4  C   UNL     1       8.779  10.980  17.937  0.00  0.00    +0.000 C 
BRANCH   4   5
ATOM      5  C   UNL     1       9.720  11.819  18.759  0.00  0.00    +0.000 A 
ATOM      6  C   UNL     1       9.267  12.390  19.957  0.00  0.00    +0.000 A 
ATOM      7  C   UNL     1      10.116  13.202  20.698  0.00  0.00    +0.000 A 
ATOM      8  C   UNL     1      11.412  13.462  20.267  0.00  0.00    +0.000 A 
ATOM      9  C   UNL     1      11.871  12.905  19.074  0.00  0.00    +0.000 A 
ATOM     10  C   UNL     1      11.022  12.092  18.326  0.00  0.00    +0.000 A 
BRANCH  10  11
ATOM     11  O   UNL     1      11.452  11.554  17.145  0.00  0.00    +0.000 OA
ATOM     12  H   UNL     1      11.124  12.102  16.415  0.00  0.00    +0.000 HD
ENDBRANCH  10  11
BRANCH   7  13
ATOM     13  O   UNL     1       9.705  13.772  21.865  0.00  0.00    +0.000 OA
ATOM     14  H   UNL     1       9.576  13.073  22.526  0.00  0.00    +0.000 HD
ENDBRANCH   7  13
ENDBRANCH   4   5
ENDBRANCH   3   4
ENDBRANCH   2   3
ENDBRANCH   1   2
BRANCH   1  15
ATOM     15  C   UNL     1       6.892   6.415  17.224  0.00  0.00    +0.000 C 
BRANCH  15  16
ATOM     16  C   UNL     1       6.852   5.092  17.970  0.00  0.00    +0.000 C 
BRANCH  16  17
ATOM     17  C   UNL     1       5.529   4.897  18.703  0.00  0.00    +0.000 C 
BRANCH  17  18
ATOM     18  C   UNL     1       4.561   6.050  18.436  0.00  0.00    +0.000 C 
BRANCH  18  19
ATOM     19  C   UNL     1       3.093   5.631  18.329  0.00  0.00    +0.000 C 
BRANCH  19  21
ATOM     20  C   UNL     1       1.846   5.900  20.501  0.00  0.00    +0.000 C 
ATOM     21  C   UNL     1       2.210   6.367  19.298  0.00  0.00    +0.000 C 
BRANCH  20  22
ATOM     22  C   UNL     1       2.319   4.582  21.026  0.00  0.00    +0.000 C 
BRANCH  22  23
ATOM     23  C   UNL     1       1.256   3.498  20.956  0.00  0.00    +0.000 C 
BRANCH  23  24
ATOM     24  C   UNL     1       1.757   2.362  20.068  0.00  0.00    +0.000 C 
BRANCH  24  25
ATOM     25  C   UNL     1       1.246   2.526  18.645  0.00  0.00    +0.000 C 
BRANCH  25  27
ATOM     26  C   UNL     1       3.592   1.715  18.332  0.00  0.00    +0.000 C 
ATOM     27  C   UNL     1       2.345   2.223  17.633  0.00  0.00    +0.000 C 
ENDBRANCH  25  27
ENDBRANCH  24  25
ENDBRANCH  23  24
ENDBRANCH  22  23
ENDBRANCH  20  22
ENDBRANCH  19  21
ENDBRANCH  18  19
ENDBRANCH  17  18
ENDBRANCH  16  17
ENDBRANCH  15  16
ENDBRANCH   1  15
TORSDOF 17
ENDMDL
MODEL 8
REMARK VINA RESULT:      -6.1      3.195      7.289
REMARK  Name = 
REMARK  18 active torsions:
REMARK  status: ('A' for Active; 'I' for Inactive)
REMARK    1  A    between atoms: C_1  and  C_2
REMARK    2  A    between atoms: C_2  and  C_3
REMARK    3  A    between atoms: C_3  and  C_4
REMARK    4  A    between atoms: C_4  and  C_5
REMARK    5  A    between atoms: C_5  and  C_6
REMARK    6  A    between atoms: C_6  and  C_7
REMARK    7  A    between atoms: C_8  and  C_9
REMARK    8  A    between atoms: C_9  and  C_10
REMARK    9  A    between atoms: C_10  and  C_11
REMARK   10  A    between atoms: C_11  and  C_12
REMARK   11  A    between atoms: C_12  and  C_13
REMARK   12  A    between atoms: C_13  and  C_14
REMARK   13  A    between atoms: C_14  and  C_15
REMARK   14  A    between atoms: C_15  and  C_16
REMARK   15  A    between atoms: C_16  and  C_17
REMARK   16  A    between atoms: C_17  and  C_18
REMARK   17  A    between atoms: C_20  and  O_21
REMARK   18  A    between atoms: C_24  and  O_25
REMARK                            x       y       z     vdW  Elec       q    Type
REMARK                         _______ _______ _______ _____ _____    ______ ____
ROOT
ATOM      1  C   UNL     1       3.218   5.616  18.259  0.00  0.00    +0.000 C 
ENDROOT
BRANCH   1   2
ATOM      2  C   UNL     1       1.789   5.458  18.755  0.00  0.00    +0.000 C 
BRANCH   2   3
ATOM      3  C   UNL     1       1.773   4.982  20.199  0.00  0.00    +0.000 C 
BRANCH   3   4
ATOM      4  C   UNL     1       1.334   3.523  20.277  0.00  0.00    +0.000 C 
BRANCH   4   5
ATOM      5  C   UNL     1       2.487   2.601  19.982  0.00  0.00    +0.000 A 
ATOM      6  C   UNL     1       3.485   2.414  20.949  0.00  0.00    +0.000 A 
ATOM      7  C   UNL     1       4.575   1.600  20.668  0.00  0.00    +0.000 A 
ATOM      8  C   UNL     1       4.694   0.969  19.435  0.00  0.00    +0.000 A 
ATOM      9  C   UNL     1       3.711   1.153  18.463  0.00  0.00    +0.000 A 
ATOM     10  C   UNL     1       2.618   1.971  18.740  0.00  0.00    +0.000 A 
BRANCH  10  11
ATOM     11  O   UNL     1       1.656   2.175  17.791  0.00  0.00    +0.000 OA
ATOM     12  H   UNL     1       2.083   2.483  16.975  0.00  0.00    +0.000 HD
ENDBRANCH  10  11
BRANCH   7  13
ATOM     13  O   UNL     1       5.560   1.399  21.586  0.00  0.00    +0.000 OA
ATOM     14  H   UNL     1       5.153   1.227  22.450  0.00  0.00    +0.000 HD
ENDBRANCH   7  13
ENDBRANCH   4   5
ENDBRANCH   3   4
ENDBRANCH   2   3
ENDBRANCH   1   2
BRANCH   1  15
ATOM     15  C   UNL     1       4.184   5.720  19.431  0.00  0.00    +0.000 C 
BRANCH  15  16
ATOM     16  C   UNL     1       5.372   4.803  19.192  0.00  0.00    +0.000 C 
BRANCH  16  17
ATOM     17  C   UNL     1       6.697   5.523  19.425  0.00  0.00    +0.000 C 
BRANCH  17  18
ATOM     18  C   UNL     1       7.560   5.536  18.164  0.00  0.00    +0.000 C 
BRANCH  18  19
ATOM     19  C   UNL     1       7.381   6.778  17.288  0.00  0.00    +0.000 C 
BRANCH  19  21
ATOM     20  C   UNL     1       5.755   5.766  15.652  0.00  0.00    +0.000 C 
ATOM     21  C   UNL     1       6.102   6.748  16.497  0.00  0.00    +0.000 C 
BRANCH  20  22
ATOM     22  C   UNL     1       6.609   4.558  15.430  0.00  0.00    +0.000 C 
BRANCH  22  23
ATOM     23  C   UNL     1       6.211   3.768  14.195  0.00  0.00    +0.000 C 
BRANCH  23  24
ATOM     24  C   UNL     1       6.862   4.397  12.966  0.00  0.00    +0.000 C 
BRANCH  24  25
ATOM     25  C   UNL     1       6.675   3.510  11.745  0.00  0.00    +0.000 C 
BRANCH  25  27
ATOM     26  C   UNL     1       4.232   3.247  11.272  0.00  0.00    +0.000 C 
ATOM     27  C   UNL     1       5.454   2.611  11.907  0.00  0.00    +0.000 C 
ENDBRANCH  25  27
ENDBRANCH  24  25
ENDBRANCH  23  24
ENDBRANCH  22  23
ENDBRANCH  20  22
ENDBRANCH  19  21
ENDBRANCH  18  19
ENDBRANCH  17  18
ENDBRANCH  16  17
ENDBRANCH  15  16
ENDBRANCH   1  15
TORSDOF 17
ENDMDL
MODEL 9
REMARK VINA RESULT:      -6.0      4.248      7.046
REMARK  Name = 
REMARK  18 active torsions:
REMARK  status: ('A' for Active; 'I' for Inactive)
REMARK    1  A    between atoms: C_1  and  C_2
REMARK    2  A    between atoms: C_2  and  C_3
REMARK    3  A    between atoms: C_3  and  C_4
REMARK    4  A    between atoms: C_4  and  C_5
REMARK    5  A    between atoms: C_5  and  C_6
REMARK    6  A    between atoms: C_6  and  C_7
REMARK    7  A    between atoms: C_8  and  C_9
REMARK    8  A    between atoms: C_9  and  C_10
REMARK    9  A    between atoms: C_10  and  C_11
REMARK   10  A    between atoms: C_11  and  C_12
REMARK   11  A    between atoms: C_12  and  C_13
REMARK   12  A    between atoms: C_13  and  C_14
REMARK   13  A    between atoms: C_14  and  C_15
REMARK   14  A    between atoms: C_15  and  C_16
REMARK   15  A    between atoms: C_16  and  C_17
REMARK   16  A    between atoms: C_17  and  C_18
REMARK   17  A    between atoms: C_20  and  O_21
REMARK   18  A    between atoms: C_24  and  O_25
REMARK                            x       y       z     vdW  Elec       q    Type
REMARK                         _______ _______ _______ _____ _____    ______ ____
ROOT
ATOM      1  C   UNL     1       8.201   7.643  18.504  0.00  0.00    +0.000 C 
ENDROOT
BRANCH   1   2
ATOM      2  C   UNL     1       7.809   8.906  17.752  0.00  0.00    +0.000 C 
BRANCH   2   3
ATOM      3  C   UNL     1       8.862   9.988  17.938  0.00  0.00    +0.000 C 
BRANCH   3   4
ATOM      4  C   UNL     1       9.253  10.107  19.408  0.00  0.00    +0.000 C 
BRANCH   4   5
ATOM      5  C   UNL     1       9.819  11.470  19.701  0.00  0.00    +0.000 A 
ATOM      6  C   UNL     1      10.518  12.157  18.699  0.00  0.00    +0.000 A 
ATOM      7  C   UNL     1      11.081  13.396  18.976  0.00  0.00    +0.000 A 
ATOM      8  C   UNL     1      10.965  13.966  20.238  0.00  0.00    +0.000 A 
ATOM      9  C   UNL     1      10.278  13.289  21.245  0.00  0.00    +0.000 A 
ATOM     10  C   UNL     1       9.715  12.045  20.973  0.00  0.00    +0.000 A 
BRANCH  10  11
ATOM     11  O   UNL     1       9.054  11.361  21.955  0.00  0.00    +0.000 OA
ATOM     12  H   UNL     1       8.747  10.514  21.592  0.00  0.00    +0.000 HD
ENDBRANCH  10  11
BRANCH   7  13
ATOM     13  O   UNL     1      11.766  14.088  18.024  0.00  0.00    +0.000 OA
ATOM     14  H   UNL     1      11.419  13.846  17.150  0.00  0.00    +0.000 HD
ENDBRANCH   7  13
ENDBRANCH   4   5
ENDBRANCH   3   4
ENDBRANCH   2   3
ENDBRANCH   1   2
BRANCH   1  15
ATOM     15  C   UNL     1       7.447   6.438  17.958  0.00  0.00    +0.000 C 
BRANCH  15  16
ATOM     16  C   UNL     1       7.161   5.464  19.088  0.00  0.00    +0.000 C 
BRANCH  16  17
ATOM     17  C   UNL     1       5.670   5.169  19.215  0.00  0.00    +0.000 C 
BRANCH  17  18
ATOM     18  C   UNL     1       4.853   5.932  18.172  0.00  0.00    +0.000 C 
BRANCH  18  19
ATOM     19  C   UNL     1       3.664   5.153  17.606  0.00  0.00    +0.000 C 
BRANCH  19  21
ATOM     20  C   UNL     1       4.026   2.669  17.390  0.00  0.00    +0.000 C 
ATOM     21  C   UNL     1       4.085   3.907  16.877  0.00  0.00    +0.000 C 
BRANCH  20  22
ATOM     22  C   UNL     1       3.492   2.393  18.759  0.00  0.00    +0.000 C 
BRANCH  22  23
ATOM     23  C   UNL     1       1.997   2.123  18.770  0.00  0.00    +0.000 C 
BRANCH  23  24
ATOM     24  C   UNL     1       1.439   2.451  20.152  0.00  0.00    +0.000 C 
BRANCH  24  25
ATOM     25  C   UNL     1       2.075   3.719  20.702  0.00  0.00    +0.000 C 
BRANCH  25  27
ATOM     26  C   UNL     1       1.949   6.214  20.558  0.00  0.00    +0.000 C 
ATOM     27  C   UNL     1       1.158   4.920  20.499  0.00  0.00    +0.000 C 
ENDBRANCH  25  27
ENDBRANCH  24  25
ENDBRANCH  23  24
ENDBRANCH  22  23
ENDBRANCH  20  22
ENDBRANCH  19  21
ENDBRANCH  18  19
ENDBRANCH  17  18
ENDBRANCH  16  17
ENDBRANCH  15  16
ENDBRANCH   1  15
TORSDOF 17
ENDMDL
