MODEL 1
REMARK VINA RESULT:      -8.3      0.000      0.000
REMARK  Name = 
REMARK  3 active torsions:
REMARK  status: ('A' for Active; 'I' for Inactive)
REMARK    1  A    between atoms: C_1  and  C_2
REMARK    2  A    between atoms: C_2  and  C_3
REMARK    3  A    between atoms: C_5  and  N_6
REMARK                            x       y       z     vdW  Elec       q    Type
REMARK                         _______ _______ _______ _____ _____    ______ ____
ROOT
ATOM      1  C   UNL     1       6.592   4.853  17.517  0.00  0.00    +0.000 C 
ATOM      2  C   UNL     1       5.433   4.405  16.595  0.00  0.00    +0.000 C 
ATOM      3  C   UNL     1       4.852   3.037  16.941  0.00  0.00    +0.000 C 
ATOM      4  S   UNL     1       4.050   2.996  18.513  0.00  0.00    +0.000 S 
ATOM      5  O   UNL     1       5.063   3.187  19.534  0.00  0.00    +0.000 OA
ATOM      6  O   UNL     1       3.275   1.764  18.526  0.00  0.00    +0.000 OA
ATOM      7  C   UNL     1       2.935   4.427  18.480  0.00  0.00    +0.000 C 
ATOM      8  C   UNL     1       2.190   4.625  19.843  0.00  0.00    +0.000 C 
ATOM      9  C   UNL     1       1.026   3.788  19.288  0.00  0.00    +0.000 C 
ATOM     10  C   UNL     1       1.528   4.124  17.872  0.00  0.00    +0.000 C 
ATOM     11  C   UNL     1       3.687   5.635  17.851  0.00  0.00    +0.000 C 
ATOM     12  N   UNL     1       3.681   6.847  18.304  0.00  0.00    +0.000 NA
ATOM     13  N   UNL     1       4.375   5.421  16.692  0.00  0.00    +0.000 N 
ATOM     14  H   UNL     1       3.142   6.938  19.170  0.00  0.00    +0.000 HD
ATOM     15  H   UNL     1       4.740   6.335  16.413  0.00  0.00    +0.000 HD
ENDROOT
BRANCH   2  16
ATOM     16  C   UNL     1       5.959   4.348  15.138  0.00  0.00    +0.000 A 
ATOM     17  C   UNL     1       5.354   3.563  14.132  0.00  0.00    +0.000 A 
ATOM     18  C   UNL     1       5.855   3.567  12.816  0.00  0.00    +0.000 A 
ATOM     19  C   UNL     1       6.978   4.331  12.480  0.00  0.00    +0.000 A 
ATOM     20  C   UNL     1       7.598   5.095  13.465  0.00  0.00    +0.000 A 
ATOM     21  C   UNL     1       7.092   5.099  14.766  0.00  0.00    +0.000 A 
ATOM     22  F   UNL     1       7.729   5.847  15.677  0.00  0.00    +0.000 F 
BRANCH  18  23
ATOM     23  N   UNL     1       5.188   2.764  11.779  0.00  0.00    +0.000 N 
ATOM     24  O   UNL     1       5.738   1.713  11.424  0.00  0.00    +0.000 OA
ATOM     25  O   UNL     1       4.115   3.187  11.328  0.00  0.00    +0.000 OA
ENDBRANCH  18  23
ENDBRANCH   2  16
TORSDOF 2
ENDMDL
MODEL 2
REMARK VINA RESULT:      -8.3      3.818      7.430
REMARK  Name = 
REMARK  3 active torsions:
REMARK  status: ('A' for Active; 'I' for Inactive)
REMARK    1  A    between atoms: C_1  and  C_2
REMARK    2  A    between atoms: C_2  and  C_3
REMARK    3  A    between atoms: C_5  and  N_6
REMARK                            x       y       z     vdW  Elec       q    Type
REMARK                         _______ _______ _______ _____ _____    ______ ____
ROOT
ATOM      1  C   UNL     1       2.976   5.018  20.131  0.00  0.00    +0.000 C 
ATOM      2  C   UNL     1       3.183   6.042  18.989  0.00  0.00    +0.000 C 
ATOM      3  C   UNL     1       4.634   6.473  18.792  0.00  0.00    +0.000 C 
ATOM      4  S   UNL     1       5.684   5.164  18.246  0.00  0.00    +0.000 S 
ATOM      5  O   UNL     1       5.776   4.192  19.320  0.00  0.00    +0.000 OA
ATOM      6  O   UNL     1       6.905   5.806  17.785  0.00  0.00    +0.000 OA
ATOM      7  C   UNL     1       4.796   4.440  16.840  0.00  0.00    +0.000 C 
ATOM      8  C   UNL     1       5.529   3.180  16.265  0.00  0.00    +0.000 C 
ATOM      9  C   UNL     1       6.242   4.099  15.259  0.00  0.00    +0.000 C 
ATOM     10  C   UNL     1       5.111   5.121  15.469  0.00  0.00    +0.000 C 
ATOM     11  C   UNL     1       3.286   4.333  17.199  0.00  0.00    +0.000 C 
ATOM     12  N   UNL     1       2.528   3.307  16.978  0.00  0.00    +0.000 NA
ATOM     13  N   UNL     1       2.686   5.427  17.750  0.00  0.00    +0.000 N 
ATOM     14  H   UNL     1       3.040   2.526  16.557  0.00  0.00    +0.000 HD
ATOM     15  H   UNL     1       1.698   5.179  17.853  0.00  0.00    +0.000 HD
ENDROOT
BRANCH   2  16
ATOM     16  C   UNL     1       2.345   7.307  19.308  0.00  0.00    +0.000 A 
ATOM     17  C   UNL     1       1.716   7.518  20.554  0.00  0.00    +0.000 A 
ATOM     18  C   UNL     1       0.987   8.697  20.803  0.00  0.00    +0.000 A 
ATOM     19  C   UNL     1       0.850   9.676  19.813  0.00  0.00    +0.000 A 
ATOM     20  C   UNL     1       1.449   9.474  18.572  0.00  0.00    +0.000 A 
ATOM     21  C   UNL     1       2.181   8.310  18.332  0.00  0.00    +0.000 A 
ATOM     22  F   UNL     1       2.731   8.162  17.119  0.00  0.00    +0.000 F 
BRANCH  18  23
ATOM     23  N   UNL     1       0.367   8.907  22.121  0.00  0.00    +0.000 N 
ATOM     24  O   UNL     1      -0.760   8.430  22.308  0.00  0.00    +0.000 OA
ATOM     25  O   UNL     1       1.012   9.545  22.964  0.00  0.00    +0.000 OA
ENDBRANCH  18  23
ENDBRANCH   2  16
TORSDOF 2
ENDMDL
MODEL 3
REMARK VINA RESULT:      -8.1      1.387      1.781
REMARK  Name = 
REMARK  3 active torsions:
REMARK  status: ('A' for Active; 'I' for Inactive)
REMARK    1  A    between atoms: C_1  and  C_2
REMARK    2  A    between atoms: C_2  and  C_3
REMARK    3  A    between atoms: C_5  and  N_6
REMARK                            x       y       z     vdW  Elec       q    Type
REMARK                         _______ _______ _______ _____ _____    ______ ____
ROOT
ATOM      1  C   UNL     1       4.436   6.232  16.824  0.00  0.00    +0.000 C 
ATOM      2  C   UNL     1       4.671   4.718  16.611  0.00  0.00    +0.000 C 
ATOM      3  C   UNL     1       5.436   4.038  17.743  0.00  0.00    +0.000 C 
ATOM      4  S   UNL     1       4.553   4.017  19.270  0.00  0.00    +0.000 S 
ATOM      5  O   UNL     1       4.435   5.387  19.734  0.00  0.00    +0.000 OA
ATOM      6  O   UNL     1       5.250   3.057  20.113  0.00  0.00    +0.000 OA
ATOM      7  C   UNL     1       2.915   3.377  18.827  0.00  0.00    +0.000 C 
ATOM      8  C   UNL     1       1.934   3.371  20.048  0.00  0.00    +0.000 C 
ATOM      9  C   UNL     1       2.353   1.920  20.332  0.00  0.00    +0.000 C 
ATOM     10  C   UNL     1       2.809   1.819  18.866  0.00  0.00    +0.000 C 
ATOM     11  C   UNL     1       2.457   4.043  17.498  0.00  0.00    +0.000 C 
ATOM     12  N   UNL     1       1.280   4.525  17.260  0.00  0.00    +0.000 NA
ATOM     13  N   UNL     1       3.351   4.084  16.468  0.00  0.00    +0.000 N 
ATOM     14  H   UNL     1       0.658   4.456  18.072  0.00  0.00    +0.000 HD
ATOM     15  H   UNL     1       2.847   4.497  15.679  0.00  0.00    +0.000 HD
ENDROOT
BRANCH   2  16
ATOM     16  C   UNL     1       5.478   4.526  15.302  0.00  0.00    +0.000 A 
ATOM     17  C   UNL     1       4.988   3.796  14.197  0.00  0.00    +0.000 A 
ATOM     18  C   UNL     1       5.750   3.673  13.019  0.00  0.00    +0.000 A 
ATOM     19  C   UNL     1       7.019   4.253  12.924  0.00  0.00    +0.000 A 
ATOM     20  C   UNL     1       7.525   4.959  14.012  0.00  0.00    +0.000 A 
ATOM     21  C   UNL     1       6.762   5.090  15.174  0.00  0.00    +0.000 A 
ATOM     22  F   UNL     1       7.298   5.774  16.194  0.00  0.00    +0.000 F 
BRANCH  18  23
ATOM     23  N   UNL     1       5.203   2.934  11.870  0.00  0.00    +0.000 N 
ATOM     24  O   UNL     1       4.151   3.351  11.367  0.00  0.00    +0.000 OA
ATOM     25  O   UNL     1       5.830   1.942  11.474  0.00  0.00    +0.000 OA
ENDBRANCH  18  23
ENDBRANCH   2  16
TORSDOF 2
ENDMDL
MODEL 4
REMARK VINA RESULT:      -8.0      3.835      7.532
REMARK  Name = 
REMARK  3 active torsions:
REMARK  status: ('A' for Active; 'I' for Inactive)
REMARK    1  A    between atoms: C_1  and  C_2
REMARK    2  A    between atoms: C_2  and  C_3
REMARK    3  A    between atoms: C_5  and  N_6
REMARK                            x       y       z     vdW  Elec       q    Type
REMARK                         _______ _______ _______ _____ _____    ______ ____
ROOT
ATOM      1  C   UNL     1       2.108   5.753  17.499  0.00  0.00    +0.000 C 
ATOM      2  C   UNL     1       3.061   6.620  18.357  0.00  0.00    +0.000 C 
ATOM      3  C   UNL     1       3.730   5.866  19.503  0.00  0.00    +0.000 C 
ATOM      4  S   UNL     1       4.841   4.608  18.957  0.00  0.00    +0.000 S 
ATOM      5  O   UNL     1       4.057   3.577  18.303  0.00  0.00    +0.000 OA
ATOM      6  O   UNL     1       5.627   4.244  20.126  0.00  0.00    +0.000 OA
ATOM      7  C   UNL     1       5.893   5.443  17.739  0.00  0.00    +0.000 C 
ATOM      8  C   UNL     1       6.900   4.456  17.055  0.00  0.00    +0.000 C 
ATOM      9  C   UNL     1       7.941   4.838  18.120  0.00  0.00    +0.000 C 
ATOM     10  C   UNL     1       7.150   6.137  18.353  0.00  0.00    +0.000 C 
ATOM     11  C   UNL     1       5.002   6.349  16.841  0.00  0.00    +0.000 C 
ATOM     12  N   UNL     1       5.075   6.442  15.553  0.00  0.00    +0.000 NA
ATOM     13  N   UNL     1       4.094   7.158  17.460  0.00  0.00    +0.000 N 
ATOM     14  H   UNL     1       5.780   5.815  15.155  0.00  0.00    +0.000 HD
ATOM     15  H   UNL     1       3.660   7.709  16.715  0.00  0.00    +0.000 HD
ENDROOT
BRANCH   2  16
ATOM     16  C   UNL     1       2.245   7.790  18.963  0.00  0.00    +0.000 A 
ATOM     17  C   UNL     1       1.827   7.818  20.311  0.00  0.00    +0.000 A 
ATOM     18  C   UNL     1       1.110   8.918  20.821  0.00  0.00    +0.000 A 
ATOM     19  C   UNL     1       0.777   9.999  19.998  0.00  0.00    +0.000 A 
ATOM     20  C   UNL     1       1.165   9.977  18.661  0.00  0.00    +0.000 A 
ATOM     21  C   UNL     1       1.886   8.891  18.161  0.00  0.00    +0.000 A 
ATOM     22  F   UNL     1       2.230   8.918  16.866  0.00  0.00    +0.000 F 
BRANCH  18  23
ATOM     23  N   UNL     1       0.713   8.937  22.238  0.00  0.00    +0.000 N 
ATOM     24  O   UNL     1       1.553   9.317  23.065  0.00  0.00    +0.000 OA
ATOM     25  O   UNL     1      -0.438   8.576  22.517  0.00  0.00    +0.000 OA
ENDBRANCH  18  23
ENDBRANCH   2  16
TORSDOF 2
ENDMDL
MODEL 5
REMARK VINA RESULT:      -7.9      4.104      7.290
REMARK  Name = 
REMARK  3 active torsions:
REMARK  status: ('A' for Active; 'I' for Inactive)
REMARK    1  A    between atoms: C_1  and  C_2
REMARK    2  A    between atoms: C_2  and  C_3
REMARK    3  A    between atoms: C_5  and  N_6
REMARK                            x       y       z     vdW  Elec       q    Type
REMARK                         _______ _______ _______ _____ _____    ______ ____
ROOT
ATOM      1  C   UNL     1       2.055   5.650  17.461  0.00  0.00    +0.000 C 
ATOM      2  C   UNL     1       3.020   6.401  18.409  0.00  0.00    +0.000 C 
ATOM      3  C   UNL     1       3.710   5.506  19.435  0.00  0.00    +0.000 C 
ATOM      4  S   UNL     1       4.813   4.334  18.712  0.00  0.00    +0.000 S 
ATOM      5  O   UNL     1       4.020   3.394  17.942  0.00  0.00    +0.000 OA
ATOM      6  O   UNL     1       5.620   3.824  19.810  0.00  0.00    +0.000 OA
ATOM      7  C   UNL     1       5.843   5.325  17.595  0.00  0.00    +0.000 C 
ATOM      8  C   UNL     1       6.840   4.440  16.772  0.00  0.00    +0.000 C 
ATOM      9  C   UNL     1       7.898   4.683  17.860  0.00  0.00    +0.000 C 
ATOM     10  C   UNL     1       7.110   5.938  18.274  0.00  0.00    +0.000 C 
ATOM     11  C   UNL     1       4.936   6.337  16.839  0.00  0.00    +0.000 C 
ATOM     12  N   UNL     1       4.987   6.598  15.572  0.00  0.00    +0.000 NA
ATOM     13  N   UNL     1       4.037   7.055  17.573  0.00  0.00    +0.000 N 
ATOM     14  H   UNL     1       5.686   6.030  15.084  0.00  0.00    +0.000 HD
ATOM     15  H   UNL     1       3.590   7.697  16.914  0.00  0.00    +0.000 HD
ENDROOT
BRANCH   2  16
ATOM     16  C   UNL     1       2.214   7.479  19.177  0.00  0.00    +0.000 A 
ATOM     17  C   UNL     1       1.968   8.769  18.657  0.00  0.00    +0.000 A 
ATOM     18  C   UNL     1       1.206   9.705  19.383  0.00  0.00    +0.000 A 
ATOM     19  C   UNL     1       0.695   9.387  20.646  0.00  0.00    +0.000 A 
ATOM     20  C   UNL     1       0.946   8.126  21.180  0.00  0.00    +0.000 A 
ATOM     21  C   UNL     1       1.690   7.196  20.454  0.00  0.00    +0.000 A 
ATOM     22  F   UNL     1       1.908   5.999  21.016  0.00  0.00    +0.000 F 
BRANCH  18  23
ATOM     23  N   UNL     1       0.937  11.032  18.806  0.00  0.00    +0.000 N 
ATOM     24  O   UNL     1       1.905  11.777  18.604  0.00  0.00    +0.000 OA
ATOM     25  O   UNL     1      -0.240  11.320  18.553  0.00  0.00    +0.000 OA
ENDBRANCH  18  23
ENDBRANCH   2  16
TORSDOF 2
ENDMDL
MODEL 6
REMARK VINA RESULT:      -7.6      3.479      6.569
REMARK  Name = 
REMARK  3 active torsions:
REMARK  status: ('A' for Active; 'I' for Inactive)
REMARK    1  A    between atoms: C_1  and  C_2
REMARK    2  A    between atoms: C_2  and  C_3
REMARK    3  A    between atoms: C_5  and  N_6
REMARK                            x       y       z     vdW  Elec       q    Type
REMARK                         _______ _______ _______ _____ _____    ______ ____
ROOT
ATOM      1  C   UNL     1       5.138   3.236  16.509  0.00  0.00    +0.000 C 
ATOM      2  C   UNL     1       4.757   4.214  17.646  0.00  0.00    +0.000 C 
ATOM      3  C   UNL     1       5.831   4.377  18.717  0.00  0.00    +0.000 C 
ATOM      4  S   UNL     1       7.307   5.137  18.118  0.00  0.00    +0.000 S 
ATOM      5  O   UNL     1       7.924   4.225  17.174  0.00  0.00    +0.000 OA
ATOM      6  O   UNL     1       8.058   5.524  19.302  0.00  0.00    +0.000 OA
ATOM      7  C   UNL     1       6.721   6.617  17.246  0.00  0.00    +0.000 C 
ATOM      8  C   UNL     1       7.891   7.391  16.548  0.00  0.00    +0.000 C 
ATOM      9  C   UNL     1       8.018   8.262  17.809  0.00  0.00    +0.000 C 
ATOM     10  C   UNL     1       6.571   7.875  18.160  0.00  0.00    +0.000 C 
ATOM     11  C   UNL     1       5.462   6.244  16.412  0.00  0.00    +0.000 C 
ATOM     12  N   UNL     1       5.235   6.600  15.188  0.00  0.00    +0.000 NA
ATOM     13  N   UNL     1       4.484   5.521  17.029  0.00  0.00    +0.000 N 
ATOM     14  H   UNL     1       6.005   7.145  14.790  0.00  0.00    +0.000 HD
ATOM     15  H   UNL     1       3.729   5.434  16.343  0.00  0.00    +0.000 HD
ENDROOT
BRANCH   2  16
ATOM     16  C   UNL     1       3.469   3.691  18.331  0.00  0.00    +0.000 A 
ATOM     17  C   UNL     1       3.429   3.287  19.684  0.00  0.00    +0.000 A 
ATOM     18  C   UNL     1       2.227   2.843  20.268  0.00  0.00    +0.000 A 
ATOM     19  C   UNL     1       1.049   2.770  19.516  0.00  0.00    +0.000 A 
ATOM     20  C   UNL     1       1.078   3.146  18.175  0.00  0.00    +0.000 A 
ATOM     21  C   UNL     1       2.267   3.597  17.602  0.00  0.00    +0.000 A 
ATOM     22  F   UNL     1       2.241   3.941  16.307  0.00  0.00    +0.000 F 
BRANCH  18  23
ATOM     23  N   UNL     1       2.204   2.458  21.688  0.00  0.00    +0.000 N 
ATOM     24  O   UNL     1       1.132   2.573  22.297  0.00  0.00    +0.000 OA
ATOM     25  O   UNL     1       3.258   2.038  22.186  0.00  0.00    +0.000 OA
ENDBRANCH  18  23
ENDBRANCH   2  16
TORSDOF 2
ENDMDL
MODEL 7
REMARK VINA RESULT:      -7.6      2.758      3.561
REMARK  Name = 
REMARK  3 active torsions:
REMARK  status: ('A' for Active; 'I' for Inactive)
REMARK    1  A    between atoms: C_1  and  C_2
REMARK    2  A    between atoms: C_2  and  C_3
REMARK    3  A    between atoms: C_5  and  N_6
REMARK                            x       y       z     vdW  Elec       q    Type
REMARK                         _______ _______ _______ _____ _____    ______ ____
ROOT
ATOM      1  C   UNL     1       3.308   3.277  16.153  0.00  0.00    +0.000 C 
ATOM      2  C   UNL     1       4.033   3.904  17.369  0.00  0.00    +0.000 C 
ATOM      3  C   UNL     1       3.195   4.920  18.140  0.00  0.00    +0.000 C 
ATOM      4  S   UNL     1       1.788   4.208  18.933  0.00  0.00    +0.000 S 
ATOM      5  O   UNL     1       0.878   3.753  17.899  0.00  0.00    +0.000 OA
ATOM      6  O   UNL     1       1.320   5.211  19.877  0.00  0.00    +0.000 OA
ATOM      7  C   UNL     1       2.460   2.781  19.829  0.00  0.00    +0.000 C 
ATOM      8  C   UNL     1       1.337   1.945  20.533  0.00  0.00    +0.000 C 
ATOM      9  C   UNL     1       1.569   2.773  21.807  0.00  0.00    +0.000 C 
ATOM     10  C   UNL     1       2.970   3.115  21.268  0.00  0.00    +0.000 C 
ATOM     11  C   UNL     1       3.481   2.047  18.913  0.00  0.00    +0.000 C 
ATOM     12  N   UNL     1       3.558   0.767  18.742  0.00  0.00    +0.000 NA
ATOM     13  N   UNL     1       4.414   2.806  18.268  0.00  0.00    +0.000 N 
ATOM     14  H   UNL     1       2.835   0.259  19.259  0.00  0.00    +0.000 HD
ATOM     15  H   UNL     1       5.019   2.143  17.776  0.00  0.00    +0.000 HD
ENDROOT
BRANCH   2  16
ATOM     16  C   UNL     1       5.310   4.621  16.861  0.00  0.00    +0.000 A 
ATOM     17  C   UNL     1       5.787   4.496  15.538  0.00  0.00    +0.000 A 
ATOM     18  C   UNL     1       6.939   5.189  15.119  0.00  0.00    +0.000 A 
ATOM     19  C   UNL     1       7.651   5.999  16.010  0.00  0.00    +0.000 A 
ATOM     20  C   UNL     1       7.205   6.116  17.324  0.00  0.00    +0.000 A 
ATOM     21  C   UNL     1       6.056   5.438  17.733  0.00  0.00    +0.000 A 
ATOM     22  F   UNL     1       5.673   5.581  19.010  0.00  0.00    +0.000 F 
BRANCH  18  23
ATOM     23  N   UNL     1       7.397   5.067  13.726  0.00  0.00    +0.000 N 
ATOM     24  O   UNL     1       8.324   5.803  13.360  0.00  0.00    +0.000 OA
ATOM     25  O   UNL     1       6.831   4.234  13.006  0.00  0.00    +0.000 OA
ENDBRANCH  18  23
ENDBRANCH   2  16
TORSDOF 2
ENDMDL
MODEL 8
REMARK VINA RESULT:      -7.5      2.673      3.439
REMARK  Name = 
REMARK  3 active torsions:
REMARK  status: ('A' for Active; 'I' for Inactive)
REMARK    1  A    between atoms: C_1  and  C_2
REMARK    2  A    between atoms: C_2  and  C_3
REMARK    3  A    between atoms: C_5  and  N_6
REMARK                            x       y       z     vdW  Elec       q    Type
REMARK                         _______ _______ _______ _____ _____    ______ ____
ROOT
ATOM      1  C   UNL     1       4.588   2.201  16.922  0.00  0.00    +0.000 C 
ATOM      2  C   UNL     1       4.595   3.532  17.712  0.00  0.00    +0.000 C 
ATOM      3  C   UNL     1       3.238   4.226  17.779  0.00  0.00    +0.000 C 
ATOM      4  S   UNL     1       2.031   3.316  18.688  0.00  0.00    +0.000 S 
ATOM      5  O   UNL     1       1.740   2.102  17.948  0.00  0.00    +0.000 OA
ATOM      6  O   UNL     1       0.945   4.249  18.944  0.00  0.00    +0.000 OA
ATOM      7  C   UNL     1       2.868   2.899  20.243  0.00  0.00    +0.000 C 
ATOM      8  C   UNL     1       1.982   1.993  21.164  0.00  0.00    +0.000 C 
ATOM      9  C   UNL     1       1.467   3.265  21.858  0.00  0.00    +0.000 C 
ATOM     10  C   UNL     1       2.728   3.989  21.353  0.00  0.00    +0.000 C 
ATOM     11  C   UNL     1       4.325   2.453  19.926  0.00  0.00    +0.000 C 
ATOM     12  N   UNL     1       4.929   1.429  20.436  0.00  0.00    +0.000 NA
ATOM     13  N   UNL     1       5.055   3.231  19.076  0.00  0.00    +0.000 N 
ATOM     14  H   UNL     1       4.326   0.895  21.069  0.00  0.00    +0.000 HD
ATOM     15  H   UNL     1       5.988   2.810  19.047  0.00  0.00    +0.000 HD
ENDROOT
BRANCH   2  16
ATOM     16  C   UNL     1       5.598   4.500  17.033  0.00  0.00    +0.000 A 
ATOM     17  C   UNL     1       6.061   4.324  15.712  0.00  0.00    +0.000 A 
ATOM     18  C   UNL     1       6.952   5.247  15.131  0.00  0.00    +0.000 A 
ATOM     19  C   UNL     1       7.417   6.348  15.858  0.00  0.00    +0.000 A 
ATOM     20  C   UNL     1       6.984   6.525  17.170  0.00  0.00    +0.000 A 
ATOM     21  C   UNL     1       6.092   5.615  17.739  0.00  0.00    +0.000 A 
ATOM     22  F   UNL     1       5.712   5.828  19.006  0.00  0.00    +0.000 F 
BRANCH  18  23
ATOM     23  N   UNL     1       7.396   5.057  13.741  0.00  0.00    +0.000 N 
ATOM     24  O   UNL     1       6.788   4.227  13.052  0.00  0.00    +0.000 OA
ATOM     25  O   UNL     1       8.347   5.743  13.343  0.00  0.00    +0.000 OA
ENDBRANCH  18  23
ENDBRANCH   2  16
TORSDOF 2
ENDMDL
MODEL 9
REMARK VINA RESULT:      -7.5      2.777      3.531
REMARK  Name = 
REMARK  3 active torsions:
REMARK  status: ('A' for Active; 'I' for Inactive)
REMARK    1  A    between atoms: C_1  and  C_2
REMARK    2  A    between atoms: C_2  and  C_3
REMARK    3  A    between atoms: C_5  and  N_6
REMARK                            x       y       z     vdW  Elec       q    Type
REMARK                         _______ _______ _______ _____ _____    ______ ____
ROOT
ATOM      1  C   UNL     1       4.164   2.011  17.070  0.00  0.00    +0.000 C 
ATOM      2  C   UNL     1       3.962   3.396  17.731  0.00  0.00    +0.000 C 
ATOM      3  C   UNL     1       2.500   3.790  17.920  0.00  0.00    +0.000 C 
ATOM      4  S   UNL     1       1.640   2.757  19.064  0.00  0.00    +0.000 S 
ATOM      5  O   UNL     1       1.547   1.431  18.482  0.00  0.00    +0.000 OA
ATOM      6  O   UNL     1       0.408   3.463  19.382  0.00  0.00    +0.000 OA
ATOM      7  C   UNL     1       2.721   2.712  20.520  0.00  0.00    +0.000 C 
ATOM      8  C   UNL     1       2.173   1.753  21.631  0.00  0.00    +0.000 C 
ATOM      9  C   UNL     1       1.467   2.959  22.273  0.00  0.00    +0.000 C 
ATOM     10  C   UNL     1       2.466   3.870  21.538  0.00  0.00    +0.000 C 
ATOM     11  C   UNL     1       4.195   2.551  20.048  0.00  0.00    +0.000 C 
ATOM     12  N   UNL     1       5.068   1.745  20.560  0.00  0.00    +0.000 NA
ATOM     13  N   UNL     1       4.630   3.361  19.040  0.00  0.00    +0.000 N 
ATOM     14  H   UNL     1       4.677   1.173  21.315  0.00  0.00    +0.000 HD
ATOM     15  H   UNL     1       5.623   3.147  18.921  0.00  0.00    +0.000 HD
ENDROOT
BRANCH   2  16
ATOM     16  C   UNL     1       4.637   4.468  16.838  0.00  0.00    +0.000 A 
ATOM     17  C   UNL     1       5.477   4.144  15.750  0.00  0.00    +0.000 A 
ATOM     18  C   UNL     1       6.046   5.156  14.952  0.00  0.00    +0.000 A 
ATOM     19  C   UNL     1       5.810   6.506  15.233  0.00  0.00    +0.000 A 
ATOM     20  C   UNL     1       5.000   6.842  16.315  0.00  0.00    +0.000 A 
ATOM     21  C   UNL     1       4.427   5.837  17.096  0.00  0.00    +0.000 A 
ATOM     22  F   UNL     1       3.661   6.215  18.128  0.00  0.00    +0.000 F 
BRANCH  18  23
ATOM     23  N   UNL     1       6.892   4.791  13.805  0.00  0.00    +0.000 N 
ATOM     24  O   UNL     1       7.907   5.471  13.602  0.00  0.00    +0.000 OA
ATOM     25  O   UNL     1       6.540   3.825  13.116  0.00  0.00    +0.000 OA
ENDBRANCH  18  23
ENDBRANCH   2  16
TORSDOF 2
ENDMDL
