MODEL 1
REMARK VINA RESULT:      -8.7      0.000      0.000
REMARK  Name = 
REMARK  11 active torsions:
REMARK  status: ('A' for Active; 'I' for Inactive)
REMARK    1  A    between atoms: P_2  and  O_3
REMARK    2  A    between atoms: P_2  and  O_4
REMARK    3  A    between atoms: P_2  and  C_5
REMARK    4  A    between atoms: C_5  and  C_6
REMARK    5  A    between atoms: C_5  and  N_16
REMARK    6  A    between atoms: C_6  and  C_7
REMARK    7  A    between atoms: N_16  and  C_17
REMARK    8  A    between atoms: C_17  and  C_18
REMARK    9  A    between atoms: C_17  and  C_31
REMARK   10  A    between atoms: C_18  and  C_19
REMARK   11  A    between atoms: C_22  and  C_23
REMARK                            x       y       z     vdW  Elec       q    Type
REMARK                         _______ _______ _______ _____ _____    ______ ____
ROOT
ATOM      1  C   UNL     1       6.006   4.638  16.221  0.00  0.00    +0.000 C 
ENDROOT
BRANCH   1   2
ATOM      2  C   UNL     1       6.461   4.479  14.789  0.00  0.00    +0.000 A 
ATOM      3  N   UNL     1       7.386   5.201  14.177  0.00  0.00    +0.000 NA
ATOM      4  N   UNL     1       7.462   4.724  12.893  0.00  0.00    +0.000 NA
ATOM      5  N   UNL     1       6.622   3.718  12.712  0.00  0.00    +0.000 NA
ATOM      6  N   UNL     1       5.990   3.570  13.879  0.00  0.00    +0.000 N 
ATOM      7  H   UNL     1       5.272   2.865  13.970  0.00  0.00    +0.000 HD
ENDBRANCH   1   2
BRANCH   1   8
ATOM      8  N   UNL     1       5.011   3.586  16.504  0.00  0.00    +0.000 NA
ATOM      9  H   UNL     1       4.708   3.259  15.575  0.00  0.00    +0.000 HD
BRANCH   8  10
ATOM     10  C   UNL     1       3.768   3.993  17.213  0.00  0.00    +0.000 C 
BRANCH  10  12
ATOM     11  O   UNL     1       2.597   1.721  19.423  0.00  0.00    +0.000 OA
ATOM     12  P   UNL     1       3.134   2.762  18.411  0.00  0.00    +0.000 P 
BRANCH  12  13
ATOM     13  O   UNL     1       4.104   1.608  17.743  0.00  0.00    +0.000 OA
ATOM     14  H   UNL     1       5.020   1.780  18.044  0.00  0.00    +0.000 HD
ENDBRANCH  12  13
BRANCH  12  15
ATOM     15  O   UNL     1       1.814   2.519  17.467  0.00  0.00    +0.000 OA
ATOM     16  H   UNL     1       1.452   3.409  17.267  0.00  0.00    +0.000 HD
ENDBRANCH  12  15
ENDBRANCH  10  12
BRANCH  10  17
ATOM     17  C   UNL     1       4.126   5.088  18.274  0.00  0.00    +0.000 C 
BRANCH  17  18
ATOM     18  C   UNL     1       3.329   6.342  18.341  0.00  0.00    +0.000 A 
ATOM     19  C   UNL     1       3.497   7.361  17.388  0.00  0.00    +0.000 A 
ATOM     20  C   UNL     1       2.873   8.607  17.552  0.00  0.00    +0.000 A 
ATOM     21  C   UNL     1       2.063   8.843  18.662  0.00  0.00    +0.000 A 
ATOM     22  C   UNL     1       1.888   7.816  19.570  0.00  0.00    +0.000 A 
ATOM     23  C   UNL     1       2.500   6.597  19.409  0.00  0.00    +0.000 A 
ATOM     24  O   UNL     1       2.243   5.739  20.434  0.00  0.00    +0.000 OA
ATOM     25  C   UNL     1       1.292   6.515  21.187  0.00  0.00    +0.000 C 
ATOM     26  O   UNL     1       1.153   7.870  20.712  0.00  0.00    +0.000 OA
ENDBRANCH  17  18
ENDBRANCH  10  17
ENDBRANCH   8  10
ENDBRANCH   1   8
BRANCH   1  27
ATOM     27  C   UNL     1       7.150   4.804  17.256  0.00  0.00    +0.000 C 
BRANCH  27  28
ATOM     28  C   UNL     1       7.492   6.187  17.764  0.00  0.00    +0.000 A 
ATOM     29  C   UNL     1       7.106   7.290  16.995  0.00  0.00    +0.000 A 
ATOM     30  C   UNL     1       7.539   8.574  17.331  0.00  0.00    +0.000 A 
ATOM     31  C   UNL     1       8.350   8.807  18.455  0.00  0.00    +0.000 A 
ATOM     32  C   UNL     1       8.644   7.703  19.271  0.00  0.00    +0.000 A 
ATOM     33  C   UNL     1       8.210   6.414  18.941  0.00  0.00    +0.000 A 
BRANCH  31  34
ATOM     34  C   UNL     1       8.920  10.151  18.710  0.00  0.00    +0.000 A 
ATOM     35  C   UNL     1       8.757  11.201  17.789  0.00  0.00    +0.000 A 
ATOM     36  C   UNL     1       9.401  12.431  17.961  0.00  0.00    +0.000 A 
ATOM     37  C   UNL     1      10.206  12.645  19.074  0.00  0.00    +0.000 A 
ATOM     38  C   UNL     1      10.349  11.639  20.024  0.00  0.00    +0.000 A 
ATOM     39  C   UNL     1       9.713  10.406  19.844  0.00  0.00    +0.000 A 
ENDBRANCH  31  34
ENDBRANCH  27  28
ENDBRANCH   1  27
TORSDOF 11
ENDMDL
MODEL 2
REMARK VINA RESULT:      -8.6      4.667      7.843
REMARK  Name = 
REMARK  11 active torsions:
REMARK  status: ('A' for Active; 'I' for Inactive)
REMARK    1  A    between atoms: P_2  and  O_3
REMARK    2  A    between atoms: P_2  and  O_4
REMARK    3  A    between atoms: P_2  and  C_5
REMARK    4  A    between atoms: C_5  and  C_6
REMARK    5  A    between atoms: C_5  and  N_16
REMARK    6  A    between atoms: C_6  and  C_7
REMARK    7  A    between atoms: N_16  and  C_17
REMARK    8  A    between atoms: C_17  and  C_18
REMARK    9  A    between atoms: C_17  and  C_31
REMARK   10  A    between atoms: C_18  and  C_19
REMARK   11  A    between atoms: C_22  and  C_23
REMARK                            x       y       z     vdW  Elec       q    Type
REMARK                         _______ _______ _______ _____ _____    ______ ____
ROOT
ATOM      1  C   UNL     1       3.716   4.966  18.627  0.00  0.00    +0.000 C 
ENDROOT
BRANCH   1   2
ATOM      2  C   UNL     1       2.746   3.842  18.906  0.00  0.00    +0.000 A 
ATOM      3  N   UNL     1       2.777   3.021  19.943  0.00  0.00    +0.000 NA
ATOM      4  N   UNL     1       1.725   2.156  19.784  0.00  0.00    +0.000 NA
ATOM      5  N   UNL     1       1.042   2.439  18.686  0.00  0.00    +0.000 NA
ATOM      6  N   UNL     1       1.676   3.475  18.132  0.00  0.00    +0.000 N 
ATOM      7  H   UNL     1       1.343   3.852  17.257  0.00  0.00    +0.000 HD
ENDBRANCH   1   2
BRANCH   1   8
ATOM      8  N   UNL     1       4.921   4.386  18.006  0.00  0.00    +0.000 NA
ATOM      9  H   UNL     1       5.508   4.095  18.801  0.00  0.00    +0.000 HD
BRANCH   8  10
ATOM     10  C   UNL     1       5.774   5.291  17.188  0.00  0.00    +0.000 C 
BRANCH  10  12
ATOM     11  O   UNL     1       8.292   6.773  18.885  0.00  0.00    +0.000 OA
ATOM     12  P   UNL     1       7.137   6.095  18.108  0.00  0.00    +0.000 P 
BRANCH  12  13
ATOM     13  O   UNL     1       7.723   6.721  16.699  0.00  0.00    +0.000 OA
ATOM     14  H   UNL     1       7.037   6.596  16.011  0.00  0.00    +0.000 HD
ENDBRANCH  12  13
BRANCH  12  15
ATOM     15  O   UNL     1       7.980   4.686  18.094  0.00  0.00    +0.000 OA
ATOM     16  H   UNL     1       7.532   4.093  18.735  0.00  0.00    +0.000 HD
ENDBRANCH  12  15
ENDBRANCH  10  12
BRANCH  10  17
ATOM     17  C   UNL     1       6.688   4.422  16.260  0.00  0.00    +0.000 C 
BRANCH  17  18
ATOM     18  C   UNL     1       6.352   4.274  14.819  0.00  0.00    +0.000 A 
ATOM     19  C   UNL     1       5.283   3.463  14.402  0.00  0.00    +0.000 A 
ATOM     20  C   UNL     1       5.078   3.189  13.041  0.00  0.00    +0.000 A 
ATOM     21  C   UNL     1       5.929   3.735  12.081  0.00  0.00    +0.000 A 
ATOM     22  C   UNL     1       6.955   4.555  12.513  0.00  0.00    +0.000 A 
ATOM     23  C   UNL     1       7.156   4.822  13.845  0.00  0.00    +0.000 A 
ATOM     24  O   UNL     1       8.245   5.607  14.067  0.00  0.00    +0.000 OA
ATOM     25  C   UNL     1       8.624   5.911  12.711  0.00  0.00    +0.000 C 
ATOM     26  O   UNL     1       7.887   5.157  11.727  0.00  0.00    +0.000 OA
ENDBRANCH  17  18
ENDBRANCH  10  17
ENDBRANCH   8  10
ENDBRANCH   1   8
BRANCH   1  27
ATOM     27  C   UNL     1       3.099   6.201  17.917  0.00  0.00    +0.000 C 
BRANCH  27  28
ATOM     28  C   UNL     1       2.432   7.273  18.749  0.00  0.00    +0.000 A 
ATOM     29  C   UNL     1       2.151   6.994  20.090  0.00  0.00    +0.000 A 
ATOM     30  C   UNL     1       1.391   7.881  20.855  0.00  0.00    +0.000 A 
ATOM     31  C   UNL     1       0.903   9.085  20.318  0.00  0.00    +0.000 A 
ATOM     32  C   UNL     1       1.279   9.396  19.001  0.00  0.00    +0.000 A 
ATOM     33  C   UNL     1       2.044   8.512  18.232  0.00  0.00    +0.000 A 
BRANCH  31  34
ATOM     34  C   UNL     1      -0.023   9.940  21.097  0.00  0.00    +0.000 A 
ATOM     35  C   UNL     1      -0.661  11.048  20.512  0.00  0.00    +0.000 A 
ATOM     36  C   UNL     1      -1.432  11.934  21.272  0.00  0.00    +0.000 A 
ATOM     37  C   UNL     1      -1.599  11.717  22.635  0.00  0.00    +0.000 A 
ATOM     38  C   UNL     1      -1.016  10.603  23.232  0.00  0.00    +0.000 A 
ATOM     39  C   UNL     1      -0.237   9.726  22.471  0.00  0.00    +0.000 A 
ENDBRANCH  31  34
ENDBRANCH  27  28
ENDBRANCH   1  27
TORSDOF 11
ENDMDL
MODEL 3
REMARK VINA RESULT:      -8.5      2.403      3.123
REMARK  Name = 
REMARK  11 active torsions:
REMARK  status: ('A' for Active; 'I' for Inactive)
REMARK    1  A    between atoms: P_2  and  O_3
REMARK    2  A    between atoms: P_2  and  O_4
REMARK    3  A    between atoms: P_2  and  C_5
REMARK    4  A    between atoms: C_5  and  C_6
REMARK    5  A    between atoms: C_5  and  N_16
REMARK    6  A    between atoms: C_6  and  C_7
REMARK    7  A    between atoms: N_16  and  C_17
REMARK    8  A    between atoms: C_17  and  C_18
REMARK    9  A    between atoms: C_17  and  C_31
REMARK   10  A    between atoms: C_18  and  C_19
REMARK   11  A    between atoms: C_22  and  C_23
REMARK                            x       y       z     vdW  Elec       q    Type
REMARK                         _______ _______ _______ _____ _____    ______ ____
ROOT
ATOM      1  C   UNL     1       4.577   4.836  18.211  0.00  0.00    +0.000 C 
ENDROOT
BRANCH   1   2
ATOM      2  C   UNL     1       3.882   3.533  17.892  0.00  0.00    +0.000 A 
ATOM      3  N   UNL     1       2.879   3.368  17.046  0.00  0.00    +0.000 NA
ATOM      4  N   UNL     1       2.556   2.035  17.083  0.00  0.00    +0.000 NA
ATOM      5  N   UNL     1       3.348   1.380  17.918  0.00  0.00    +0.000 NA
ATOM      6  N   UNL     1       4.163   2.305  18.431  0.00  0.00    +0.000 N 
ATOM      7  H   UNL     1       4.848   2.035  19.123  0.00  0.00    +0.000 HD
ENDBRANCH   1   2
BRANCH   1   8
ATOM      8  N   UNL     1       4.052   5.332  19.497  0.00  0.00    +0.000 NA
ATOM      9  H   UNL     1       4.371   4.641  20.191  0.00  0.00    +0.000 HD
BRANCH   8  10
ATOM     10  C   UNL     1       2.574   5.404  19.651  0.00  0.00    +0.000 C 
BRANCH  10  12
ATOM     11  O   UNL     1       1.272   3.172  21.828  0.00  0.00    +0.000 OA
ATOM     12  P   UNL     1       1.869   4.196  20.831  0.00  0.00    +0.000 P 
BRANCH  12  13
ATOM     13  O   UNL     1       3.339   3.461  20.963  0.00  0.00    +0.000 OA
ATOM     14  H   UNL     1       3.187   2.549  21.286  0.00  0.00    +0.000 HD
ENDBRANCH  12  13
BRANCH  12  15
ATOM     15  O   UNL     1       1.287   3.308  19.579  0.00  0.00    +0.000 OA
ATOM     16  H   UNL     1       0.463   3.754  19.287  0.00  0.00    +0.000 HD
ENDBRANCH  12  15
ENDBRANCH  10  12
BRANCH  10  17
ATOM     17  C   UNL     1       2.214   6.680  20.485  0.00  0.00    +0.000 C 
BRANCH  17  18
ATOM     18  C   UNL     1       1.775   7.920  19.788  0.00  0.00    +0.000 A 
ATOM     19  C   UNL     1       2.164   8.185  18.464  0.00  0.00    +0.000 A 
ATOM     20  C   UNL     1       1.896   9.428  17.873  0.00  0.00    +0.000 A 
ATOM     21  C   UNL     1       1.221  10.414  18.592  0.00  0.00    +0.000 A 
ATOM     22  C   UNL     1       0.821  10.120  19.882  0.00  0.00    +0.000 A 
ATOM     23  C   UNL     1       1.087   8.902  20.461  0.00  0.00    +0.000 A 
ATOM     24  O   UNL     1       0.656   8.827  21.750  0.00  0.00    +0.000 OA
ATOM     25  C   UNL     1      -0.026  10.090  21.868  0.00  0.00    +0.000 C 
ATOM     26  O   UNL     1       0.174  10.959  20.734  0.00  0.00    +0.000 OA
ENDBRANCH  17  18
ENDBRANCH  10  17
ENDBRANCH   8  10
ENDBRANCH   1   8
BRANCH   1  27
ATOM     27  C   UNL     1       6.122   4.807  18.060  0.00  0.00    +0.000 C 
BRANCH  27  28
ATOM     28  C   UNL     1       6.885   6.112  18.028  0.00  0.00    +0.000 A 
ATOM     29  C   UNL     1       7.939   6.287  18.931  0.00  0.00    +0.000 A 
ATOM     30  C   UNL     1       8.566   7.527  19.057  0.00  0.00    +0.000 A 
ATOM     31  C   UNL     1       8.182   8.630  18.274  0.00  0.00    +0.000 A 
ATOM     32  C   UNL     1       7.191   8.410  17.303  0.00  0.00    +0.000 A 
ATOM     33  C   UNL     1       6.561   7.167  17.171  0.00  0.00    +0.000 A 
BRANCH  31  34
ATOM     34  C   UNL     1       8.756   9.972  18.524  0.00  0.00    +0.000 A 
ATOM     35  C   UNL     1       8.525  11.042  17.641  0.00  0.00    +0.000 A 
ATOM     36  C   UNL     1       9.169  12.274  17.800  0.00  0.00    +0.000 A 
ATOM     37  C   UNL     1      10.044  12.469  18.863  0.00  0.00    +0.000 A 
ATOM     38  C   UNL     1      10.257  11.442  19.778  0.00  0.00    +0.000 A 
ATOM     39  C   UNL     1       9.620  10.208  19.609  0.00  0.00    +0.000 A 
ENDBRANCH  31  34
ENDBRANCH  27  28
ENDBRANCH   1  27
TORSDOF 11
ENDMDL
MODEL 4
REMARK VINA RESULT:      -8.4      7.021     10.003
REMARK  Name = 
REMARK  11 active torsions:
REMARK  status: ('A' for Active; 'I' for Inactive)
REMARK    1  A    between atoms: P_2  and  O_3
REMARK    2  A    between atoms: P_2  and  O_4
REMARK    3  A    between atoms: P_2  and  C_5
REMARK    4  A    between atoms: C_5  and  C_6
REMARK    5  A    between atoms: C_5  and  N_16
REMARK    6  A    between atoms: C_6  and  C_7
REMARK    7  A    between atoms: N_16  and  C_17
REMARK    8  A    between atoms: C_17  and  C_18
REMARK    9  A    between atoms: C_17  and  C_31
REMARK   10  A    between atoms: C_18  and  C_19
REMARK   11  A    between atoms: C_22  and  C_23
REMARK                            x       y       z     vdW  Elec       q    Type
REMARK                         _______ _______ _______ _____ _____    ______ ____
ROOT
ATOM      1  C   UNL     1      -0.503  11.474  19.181  0.00  0.00    +0.000 C 
ENDROOT
BRANCH   1   2
ATOM      2  C   UNL     1      -1.537  11.129  18.135  0.00  0.00    +0.000 A 
ATOM      3  N   UNL     1      -2.236  10.008  18.065  0.00  0.00    +0.000 NA
ATOM      4  N   UNL     1      -3.035  10.119  16.956  0.00  0.00    +0.000 NA
ATOM      5  N   UNL     1      -2.856  11.286  16.359  0.00  0.00    +0.000 NA
ATOM      6  N   UNL     1      -1.920  11.911  17.077  0.00  0.00    +0.000 N 
ATOM      7  H   UNL     1      -1.599  12.824  16.788  0.00  0.00    +0.000 HD
ENDBRANCH   1   2
BRANCH   1   8
ATOM      8  N   UNL     1      -0.955  12.687  19.888  0.00  0.00    +0.000 NA
ATOM      9  H   UNL     1      -0.090  13.116  20.247  0.00  0.00    +0.000 HD
BRANCH   8  10
ATOM     10  C   UNL     1      -1.834  12.501  21.074  0.00  0.00    +0.000 C 
BRANCH  10  12
ATOM     11  O   UNL     1      -0.730  13.997  23.896  0.00  0.00    +0.000 OA
ATOM     12  P   UNL     1      -1.236  13.312  22.602  0.00  0.00    +0.000 P 
BRANCH  12  13
ATOM     13  O   UNL     1       0.293  13.358  21.985  0.00  0.00    +0.000 OA
ATOM     14  H   UNL     1       0.453  14.267  21.658  0.00  0.00    +0.000 HD
ENDBRANCH  12  13
BRANCH  12  15
ATOM     15  O   UNL     1      -1.135  11.851  23.342  0.00  0.00    +0.000 OA
ATOM     16  H   UNL     1      -1.961  11.749  23.862  0.00  0.00    +0.000 HD
ENDBRANCH  12  15
ENDBRANCH  10  12
BRANCH  10  17
ATOM     17  C   UNL     1      -3.111  13.392  20.902  0.00  0.00    +0.000 C 
BRANCH  17  18
ATOM     18  C   UNL     1      -4.432  12.753  20.661  0.00  0.00    +0.000 A 
ATOM     19  C   UNL     1      -4.788  12.280  19.386  0.00  0.00    +0.000 A 
ATOM     20  C   UNL     1      -6.093  11.838  19.124  0.00  0.00    +0.000 A 
ATOM     21  C   UNL     1      -7.053  11.849  20.136  0.00  0.00    +0.000 A 
ATOM     22  C   UNL     1      -6.671  12.289  21.390  0.00  0.00    +0.000 A 
ATOM     23  C   UNL     1      -5.393  12.723  21.645  0.00  0.00    +0.000 A 
ATOM     24  O   UNL     1      -5.231  13.162  22.923  0.00  0.00    +0.000 OA
ATOM     25  C   UNL     1      -6.519  12.828  23.475  0.00  0.00    +0.000 C 
ATOM     26  O   UNL     1      -7.470  12.385  22.485  0.00  0.00    +0.000 OA
ENDBRANCH  17  18
ENDBRANCH  10  17
ENDBRANCH   8  10
ENDBRANCH   1   8
BRANCH   1  27
ATOM     27  C   UNL     1      -0.050  10.285  20.070  0.00  0.00    +0.000 C 
BRANCH  27  28
ATOM     28  C   UNL     1       0.997   9.328  19.546  0.00  0.00    +0.000 A 
ATOM     29  C   UNL     1       1.508   9.543  18.261  0.00  0.00    +0.000 A 
ATOM     30  C   UNL     1       2.348   8.600  17.667  0.00  0.00    +0.000 A 
ATOM     31  C   UNL     1       2.727   7.424  18.336  0.00  0.00    +0.000 A 
ATOM     32  C   UNL     1       2.287   7.273  19.661  0.00  0.00    +0.000 A 
ATOM     33  C   UNL     1       1.446   8.217  20.264  0.00  0.00    +0.000 A 
BRANCH  31  34
ATOM     34  C   UNL     1       3.497   6.369  17.636  0.00  0.00    +0.000 A 
ATOM     35  C   UNL     1       3.154   5.011  17.759  0.00  0.00    +0.000 A 
ATOM     36  C   UNL     1       3.952   4.003  17.209  0.00  0.00    +0.000 A 
ATOM     37  C   UNL     1       5.103   4.334  16.503  0.00  0.00    +0.000 A 
ATOM     38  C   UNL     1       5.443   5.672  16.328  0.00  0.00    +0.000 A 
ATOM     39  C   UNL     1       4.648   6.677  16.889  0.00  0.00    +0.000 A 
ENDBRANCH  31  34
ENDBRANCH  27  28
ENDBRANCH   1  27
TORSDOF 11
ENDMDL
MODEL 5
REMARK VINA RESULT:      -8.3      3.877      6.205
REMARK  Name = 
REMARK  11 active torsions:
REMARK  status: ('A' for Active; 'I' for Inactive)
REMARK    1  A    between atoms: P_2  and  O_3
REMARK    2  A    between atoms: P_2  and  O_4
REMARK    3  A    between atoms: P_2  and  C_5
REMARK    4  A    between atoms: C_5  and  C_6
REMARK    5  A    between atoms: C_5  and  N_16
REMARK    6  A    between atoms: C_6  and  C_7
REMARK    7  A    between atoms: N_16  and  C_17
REMARK    8  A    between atoms: C_17  and  C_18
REMARK    9  A    between atoms: C_17  and  C_31
REMARK   10  A    between atoms: C_18  and  C_19
REMARK   11  A    between atoms: C_22  and  C_23
REMARK                            x       y       z     vdW  Elec       q    Type
REMARK                         _______ _______ _______ _____ _____    ______ ____
ROOT
ATOM      1  C   UNL     1       4.404   6.170  17.012  0.00  0.00    +0.000 C 
ENDROOT
BRANCH   1   2
ATOM      2  C   UNL     1       5.509   5.865  16.027  0.00  0.00    +0.000 A 
ATOM      3  N   UNL     1       6.754   6.308  16.086  0.00  0.00    +0.000 NA
ATOM      4  N   UNL     1       7.399   5.798  14.988  0.00  0.00    +0.000 NA
ATOM      5  N   UNL     1       6.584   5.041  14.271  0.00  0.00    +0.000 NA
ATOM      6  N   UNL     1       5.409   5.089  14.903  0.00  0.00    +0.000 N 
ATOM      7  H   UNL     1       4.616   4.597  14.515  0.00  0.00    +0.000 HD
ENDBRANCH   1   2
BRANCH   1   8
ATOM      8  N   UNL     1       4.824   5.676  18.337  0.00  0.00    +0.000 NA
ATOM      9  H   UNL     1       5.342   6.463  18.755  0.00  0.00    +0.000 HD
BRANCH   8  10
ATOM     10  C   UNL     1       5.757   4.517  18.372  0.00  0.00    +0.000 C 
BRANCH  10  12
ATOM     11  O   UNL     1       8.637   5.074  20.049  0.00  0.00    +0.000 OA
ATOM     12  P   UNL     1       7.317   4.819  19.281  0.00  0.00    +0.000 P 
BRANCH  12  13
ATOM     13  O   UNL     1       7.251   6.415  18.872  0.00  0.00    +0.000 OA
ATOM     14  H   UNL     1       8.094   6.827  19.151  0.00  0.00    +0.000 HD
ENDBRANCH  12  13
BRANCH  12  15
ATOM     15  O   UNL     1       8.177   4.291  17.986  0.00  0.00    +0.000 OA
ATOM     16  H   UNL     1       8.288   5.068  17.397  0.00  0.00    +0.000 HD
ENDBRANCH  12  15
ENDBRANCH  10  12
BRANCH  10  17
ATOM     17  C   UNL     1       5.192   3.444  19.363  0.00  0.00    +0.000 C 
BRANCH  17  18
ATOM     18  C   UNL     1       3.821   2.901  19.162  0.00  0.00    +0.000 A 
ATOM     19  C   UNL     1       3.373   2.514  17.888  0.00  0.00    +0.000 A 
ATOM     20  C   UNL     1       2.030   2.168  17.674  0.00  0.00    +0.000 A 
ATOM     21  C   UNL     1       1.125   2.189  18.734  0.00  0.00    +0.000 A 
ATOM     22  C   UNL     1       1.596   2.542  19.985  0.00  0.00    +0.000 A 
ATOM     23  C   UNL     1       2.910   2.883  20.193  0.00  0.00    +0.000 A 
ATOM     24  O   UNL     1       3.163   3.248  21.479  0.00  0.00    +0.000 OA
ATOM     25  C   UNL     1       1.885   2.969  22.082  0.00  0.00    +0.000 C 
ATOM     26  O   UNL     1       0.859   2.635  21.124  0.00  0.00    +0.000 OA
ENDBRANCH  17  18
ENDBRANCH  10  17
ENDBRANCH   8  10
ENDBRANCH   1   8
BRANCH   1  27
ATOM     27  C   UNL     1       3.860   7.622  16.956  0.00  0.00    +0.000 C 
BRANCH  27  28
ATOM     28  C   UNL     1       2.796   8.050  17.941  0.00  0.00    +0.000 A 
ATOM     29  C   UNL     1       2.058   9.205  17.660  0.00  0.00    +0.000 A 
ATOM     30  C   UNL     1       1.183   9.735  18.609  0.00  0.00    +0.000 A 
ATOM     31  C   UNL     1       0.995   9.124  19.861  0.00  0.00    +0.000 A 
ATOM     32  C   UNL     1       1.667   7.912  20.087  0.00  0.00    +0.000 A 
ATOM     33  C   UNL     1       2.543   7.374  19.137  0.00  0.00    +0.000 A 
BRANCH  31  34
ATOM     34  C   UNL     1       0.178   9.780  20.908  0.00  0.00    +0.000 A 
ATOM     35  C   UNL     1      -0.463  11.009  20.672  0.00  0.00    +0.000 A 
ATOM     36  C   UNL     1      -1.126  11.696  21.694  0.00  0.00    +0.000 A 
ATOM     37  C   UNL     1      -1.181  11.156  22.974  0.00  0.00    +0.000 A 
ATOM     38  C   UNL     1      -0.594   9.920  23.226  0.00  0.00    +0.000 A 
ATOM     39  C   UNL     1       0.078   9.240  22.204  0.00  0.00    +0.000 A 
ENDBRANCH  31  34
ENDBRANCH  27  28
ENDBRANCH   1  27
TORSDOF 11
ENDMDL
MODEL 6
REMARK VINA RESULT:      -8.2      5.460      7.402
REMARK  Name = 
REMARK  11 active torsions:
REMARK  status: ('A' for Active; 'I' for Inactive)
REMARK    1  A    between atoms: P_2  and  O_3
REMARK    2  A    between atoms: P_2  and  O_4
REMARK    3  A    between atoms: P_2  and  C_5
REMARK    4  A    between atoms: C_5  and  C_6
REMARK    5  A    between atoms: C_5  and  N_16
REMARK    6  A    between atoms: C_6  and  C_7
REMARK    7  A    between atoms: N_16  and  C_17
REMARK    8  A    between atoms: C_17  and  C_18
REMARK    9  A    between atoms: C_17  and  C_31
REMARK   10  A    between atoms: C_18  and  C_19
REMARK   11  A    between atoms: C_22  and  C_23
REMARK                            x       y       z     vdW  Elec       q    Type
REMARK                         _______ _______ _______ _____ _____    ______ ____
ROOT
ATOM      1  C   UNL     1       2.568   6.375  19.865  0.00  0.00    +0.000 C 
ENDROOT
BRANCH   1   2
ATOM      2  C   UNL     1       2.065   5.065  20.423  0.00  0.00    +0.000 A 
ATOM      3  N   UNL     1       1.163   4.273  19.868  0.00  0.00    +0.000 NA
ATOM      4  N   UNL     1       1.002   3.211  20.721  0.00  0.00    +0.000 NA
ATOM      5  N   UNL     1       1.797   3.325  21.773  0.00  0.00    +0.000 NA
ATOM      6  N   UNL     1       2.448   4.477  21.600  0.00  0.00    +0.000 N 
ATOM      7  H   UNL     1       3.102   4.789  22.305  0.00  0.00    +0.000 HD
ENDBRANCH   1   2
BRANCH   1   8
ATOM      8  N   UNL     1       2.190   7.448  20.806  0.00  0.00    +0.000 NA
ATOM      9  H   UNL     1       2.003   6.960  21.694  0.00  0.00    +0.000 HD
BRANCH   8  10
ATOM     10  C   UNL     1       0.954   8.219  20.503  0.00  0.00    +0.000 C 
BRANCH  10  12
ATOM     11  O   UNL     1       0.226  10.649  22.735  0.00  0.00    +0.000 OA
ATOM     12  P   UNL     1       0.560   9.536  21.711  0.00  0.00    +0.000 P 
BRANCH  12  13
ATOM     13  O   UNL     1       1.835   9.065  22.646  0.00  0.00    +0.000 OA
ATOM     14  H   UNL     1       2.650   9.180  22.114  0.00  0.00    +0.000 HD
ENDBRANCH  12  13
BRANCH  12  15
ATOM     15  O   UNL     1      -0.582   8.574  22.391  0.00  0.00    +0.000 OA
ATOM     16  H   UNL     1      -0.403   7.665  22.068  0.00  0.00    +0.000 HD
ENDBRANCH  12  15
ENDBRANCH  10  12
BRANCH  10  17
ATOM     17  C   UNL     1       1.241   9.179  19.298  0.00  0.00    +0.000 C 
BRANCH  17  18
ATOM     18  C   UNL     1       0.261  10.243  18.951  0.00  0.00    +0.000 A 
ATOM     19  C   UNL     1      -1.033   9.921  18.506  0.00  0.00    +0.000 A 
ATOM     20  C   UNL     1      -1.892  10.916  18.016  0.00  0.00    +0.000 A 
ATOM     21  C   UNL     1      -1.473  12.246  17.980  0.00  0.00    +0.000 A 
ATOM     22  C   UNL     1      -0.208  12.543  18.451  0.00  0.00    +0.000 A 
ATOM     23  C   UNL     1       0.633  11.567  18.929  0.00  0.00    +0.000 A 
ATOM     24  O   UNL     1       1.849  12.054  19.297  0.00  0.00    +0.000 OA
ATOM     25  C   UNL     1       1.626  13.466  19.119  0.00  0.00    +0.000 C 
ATOM     26  O   UNL     1       0.372  13.772  18.475  0.00  0.00    +0.000 OA
ENDBRANCH  17  18
ENDBRANCH  10  17
ENDBRANCH   8  10
ENDBRANCH   1   8
BRANCH   1  27
ATOM     27  C   UNL     1       4.046   6.361  19.393  0.00  0.00    +0.000 C 
BRANCH  27  28
ATOM     28  C   UNL     1       4.365   5.929  17.979  0.00  0.00    +0.000 A 
ATOM     29  C   UNL     1       4.396   4.560  17.694  0.00  0.00    +0.000 A 
ATOM     30  C   UNL     1       4.845   4.104  16.454  0.00  0.00    +0.000 A 
ATOM     31  C   UNL     1       5.257   4.994  15.447  0.00  0.00    +0.000 A 
ATOM     32  C   UNL     1       5.124   6.366  15.714  0.00  0.00    +0.000 A 
ATOM     33  C   UNL     1       4.671   6.829  16.955  0.00  0.00    +0.000 A 
BRANCH  31  34
ATOM     34  C   UNL     1       5.868   4.489  14.195  0.00  0.00    +0.000 A 
ATOM     35  C   UNL     1       7.088   5.003  13.719  0.00  0.00    +0.000 A 
ATOM     36  C   UNL     1       7.603   4.626  12.474  0.00  0.00    +0.000 A 
ATOM     37  C   UNL     1       6.918   3.708  11.686  0.00  0.00    +0.000 A 
ATOM     38  C   UNL     1       5.731   3.150  12.152  0.00  0.00    +0.000 A 
ATOM     39  C   UNL     1       5.213   3.538  13.392  0.00  0.00    +0.000 A 
ENDBRANCH  31  34
ENDBRANCH  27  28
ENDBRANCH   1  27
TORSDOF 11
ENDMDL
MODEL 7
REMARK VINA RESULT:      -8.1      3.901      6.327
REMARK  Name = 
REMARK  11 active torsions:
REMARK  status: ('A' for Active; 'I' for Inactive)
REMARK    1  A    between atoms: P_2  and  O_3
REMARK    2  A    between atoms: P_2  and  O_4
REMARK    3  A    between atoms: P_2  and  C_5
REMARK    4  A    between atoms: C_5  and  C_6
REMARK    5  A    between atoms: C_5  and  N_16
REMARK    6  A    between atoms: C_6  and  C_7
REMARK    7  A    between atoms: N_16  and  C_17
REMARK    8  A    between atoms: C_17  and  C_18
REMARK    9  A    between atoms: C_17  and  C_31
REMARK   10  A    between atoms: C_18  and  C_19
REMARK   11  A    between atoms: C_22  and  C_23
REMARK                            x       y       z     vdW  Elec       q    Type
REMARK                         _______ _______ _______ _____ _____    ______ ____
ROOT
ATOM      1  C   UNL     1       4.396   6.211  17.103  0.00  0.00    +0.000 C 
ENDROOT
BRANCH   1   2
ATOM      2  C   UNL     1       5.372   5.804  16.024  0.00  0.00    +0.000 A 
ATOM      3  N   UNL     1       5.120   5.002  15.003  0.00  0.00    +0.000 NA
ATOM      4  N   UNL     1       6.289   4.901  14.292  0.00  0.00    +0.000 NA
ATOM      5  N   UNL     1       7.242   5.636  14.843  0.00  0.00    +0.000 NA
ATOM      6  N   UNL     1       6.684   6.188  15.922  0.00  0.00    +0.000 N 
ATOM      7  H   UNL     1       7.240   6.779  16.522  0.00  0.00    +0.000 HD
ENDBRANCH   1   2
BRANCH   1   8
ATOM      8  N   UNL     1       5.068   6.061  18.407  0.00  0.00    +0.000 NA
ATOM      9  H   UNL     1       5.805   6.782  18.404  0.00  0.00    +0.000 HD
BRANCH   8  10
ATOM     10  C   UNL     1       5.766   4.774  18.674  0.00  0.00    +0.000 C 
BRANCH  10  12
ATOM     11  O   UNL     1       8.821   5.092  20.084  0.00  0.00    +0.000 OA
ATOM     12  P   UNL     1       7.420   4.946  19.439  0.00  0.00    +0.000 P 
BRANCH  12  13
ATOM     13  O   UNL     1       7.537   6.482  18.849  0.00  0.00    +0.000 OA
ATOM     14  H   UNL     1       6.882   7.033  19.326  0.00  0.00    +0.000 HD
ENDBRANCH  12  13
BRANCH  12  15
ATOM     15  O   UNL     1       8.094   4.165  18.162  0.00  0.00    +0.000 OA
ATOM     16  H   UNL     1       9.033   4.451  18.131  0.00  0.00    +0.000 HD
ENDBRANCH  12  15
ENDBRANCH  10  12
BRANCH  10  17
ATOM     17  C   UNL     1       5.088   4.077  19.902  0.00  0.00    +0.000 C 
BRANCH  17  18
ATOM     18  C   UNL     1       3.611   3.899  19.929  0.00  0.00    +0.000 A 
ATOM     19  C   UNL     1       2.846   4.344  21.021  0.00  0.00    +0.000 A 
ATOM     20  C   UNL     1       1.485   4.022  21.122  0.00  0.00    +0.000 A 
ATOM     21  C   UNL     1       0.869   3.265  20.126  0.00  0.00    +0.000 A 
ATOM     22  C   UNL     1       1.634   2.865  19.046  0.00  0.00    +0.000 A 
ATOM     23  C   UNL     1       2.968   3.179  18.949  0.00  0.00    +0.000 A 
ATOM     24  O   UNL     1       3.554   2.652  17.840  0.00  0.00    +0.000 OA
ATOM     25  C   UNL     1       2.403   2.083  17.186  0.00  0.00    +0.000 C 
ATOM     26  O   UNL     1       1.210   2.111  17.997  0.00  0.00    +0.000 OA
ENDBRANCH  17  18
ENDBRANCH  10  17
ENDBRANCH   8  10
ENDBRANCH   1   8
BRANCH   1  27
ATOM     27  C   UNL     1       3.667   7.558  16.852  0.00  0.00    +0.000 C 
BRANCH  27  28
ATOM     28  C   UNL     1       2.680   8.065  17.878  0.00  0.00    +0.000 A 
ATOM     29  C   UNL     1       2.026   9.276  17.628  0.00  0.00    +0.000 A 
ATOM     30  C   UNL     1       1.234   9.871  18.612  0.00  0.00    +0.000 A 
ATOM     31  C   UNL     1       1.047   9.271  19.869  0.00  0.00    +0.000 A 
ATOM     32  C   UNL     1       1.629   8.008  20.067  0.00  0.00    +0.000 A 
ATOM     33  C   UNL     1       2.421   7.406  19.083  0.00  0.00    +0.000 A 
BRANCH  31  34
ATOM     34  C   UNL     1       0.327   9.985  20.949  0.00  0.00    +0.000 A 
ATOM     35  C   UNL     1       0.162   9.410  22.222  0.00  0.00    +0.000 A 
ATOM     36  C   UNL     1      -0.627  10.021  23.203  0.00  0.00    +0.000 A 
ATOM     37  C   UNL     1      -1.252  11.234  22.938  0.00  0.00    +0.000 A 
ATOM     38  C   UNL     1      -1.070  11.847  21.702  0.00  0.00    +0.000 A 
ATOM     39  C   UNL     1      -0.289  11.229  20.719  0.00  0.00    +0.000 A 
ENDBRANCH  31  34
ENDBRANCH  27  28
ENDBRANCH   1  27
TORSDOF 11
ENDMDL
MODEL 8
REMARK VINA RESULT:      -8.1      2.013      3.374
REMARK  Name = 
REMARK  11 active torsions:
REMARK  status: ('A' for Active; 'I' for Inactive)
REMARK    1  A    between atoms: P_2  and  O_3
REMARK    2  A    between atoms: P_2  and  O_4
REMARK    3  A    between atoms: P_2  and  C_5
REMARK    4  A    between atoms: C_5  and  C_6
REMARK    5  A    between atoms: C_5  and  N_16
REMARK    6  A    between atoms: C_6  and  C_7
REMARK    7  A    between atoms: N_16  and  C_17
REMARK    8  A    between atoms: C_17  and  C_18
REMARK    9  A    between atoms: C_17  and  C_31
REMARK   10  A    between atoms: C_18  and  C_19
REMARK   11  A    between atoms: C_22  and  C_23
REMARK                            x       y       z     vdW  Elec       q    Type
REMARK                         _______ _______ _______ _____ _____    ______ ____
ROOT
ATOM      1  C   UNL     1       5.934   5.709  15.798  0.00  0.00    +0.000 C 
ENDROOT
BRANCH   1   2
ATOM      2  C   UNL     1       6.331   4.998  14.525  0.00  0.00    +0.000 A 
ATOM      3  N   UNL     1       7.383   5.273  13.771  0.00  0.00    +0.000 NA
ATOM      4  N   UNL     1       7.344   4.396  12.717  0.00  0.00    +0.000 NA
ATOM      5  N   UNL     1       6.306   3.581  12.819  0.00  0.00    +0.000 NA
ATOM      6  N   UNL     1       5.668   3.957  13.930  0.00  0.00    +0.000 N 
ATOM      7  H   UNL     1       4.817   3.485  14.198  0.00  0.00    +0.000 HD
ENDBRANCH   1   2
BRANCH   1   8
ATOM      8  N   UNL     1       4.528   5.372  16.089  0.00  0.00    +0.000 NA
ATOM      9  H   UNL     1       4.009   6.244  15.908  0.00  0.00    +0.000 HD
BRANCH   8  10
ATOM     10  C   UNL     1       4.191   4.987  17.487  0.00  0.00    +0.000 C 
BRANCH  10  12
ATOM     11  O   UNL     1       2.236   7.199  19.129  0.00  0.00    +0.000 OA
ATOM     12  P   UNL     1       3.131   6.185  18.376  0.00  0.00    +0.000 P 
BRANCH  12  13
ATOM     13  O   UNL     1       3.852   7.428  17.566  0.00  0.00    +0.000 OA
ATOM     14  H   UNL     1       3.317   8.234  17.723  0.00  0.00    +0.000 HD
ENDBRANCH  12  13
BRANCH  12  15
ATOM     15  O   UNL     1       4.150   6.136  19.662  0.00  0.00    +0.000 OA
ATOM     16  H   UNL     1       3.737   6.689  20.359  0.00  0.00    +0.000 HD
ENDBRANCH  12  15
ENDBRANCH  10  12
BRANCH  10  17
ATOM     17  C   UNL     1       3.138   3.827  17.452  0.00  0.00    +0.000 C 
BRANCH  17  18
ATOM     18  C   UNL     1       2.542   3.331  18.721  0.00  0.00    +0.000 A 
ATOM     19  C   UNL     1       1.190   3.565  19.028  0.00  0.00    +0.000 A 
ATOM     20  C   UNL     1       0.677   3.250  20.295  0.00  0.00    +0.000 A 
ATOM     21  C   UNL     1       1.504   2.682  21.263  0.00  0.00    +0.000 A 
ATOM     22  C   UNL     1       2.822   2.433  20.928  0.00  0.00    +0.000 A 
ATOM     23  C   UNL     1       3.324   2.744  19.688  0.00  0.00    +0.000 A 
ATOM     24  O   UNL     1       4.652   2.468  19.573  0.00  0.00    +0.000 OA
ATOM     25  C   UNL     1       4.893   1.826  20.839  0.00  0.00    +0.000 C 
ATOM     26  O   UNL     1       3.773   1.905  21.745  0.00  0.00    +0.000 OA
ENDBRANCH  17  18
ENDBRANCH  10  17
ENDBRANCH   8  10
ENDBRANCH   1   8
BRANCH   1  27
ATOM     27  C   UNL     1       6.938   5.558  16.971  0.00  0.00    +0.000 C 
BRANCH  27  28
ATOM     28  C   UNL     1       7.460   6.799  17.660  0.00  0.00    +0.000 A 
ATOM     29  C   UNL     1       7.212   8.041  17.066  0.00  0.00    +0.000 A 
ATOM     30  C   UNL     1       7.810   9.199  17.568  0.00  0.00    +0.000 A 
ATOM     31  C   UNL     1       8.656   9.164  18.689  0.00  0.00    +0.000 A 
ATOM     32  C   UNL     1       8.814   7.925  19.333  0.00  0.00    +0.000 A 
ATOM     33  C   UNL     1       8.214   6.762  18.836  0.00  0.00    +0.000 A 
BRANCH  31  34
ATOM     34  C   UNL     1       9.396  10.374  19.116  0.00  0.00    +0.000 A 
ATOM     35  C   UNL     1       9.457  10.754  20.470  0.00  0.00    +0.000 A 
ATOM     36  C   UNL     1      10.041  11.962  20.863  0.00  0.00    +0.000 A 
ATOM     37  C   UNL     1      10.599  12.809  19.912  0.00  0.00    +0.000 A 
ATOM     38  C   UNL     1      10.593  12.437  18.571  0.00  0.00    +0.000 A 
ATOM     39  C   UNL     1       9.998  11.233  18.179  0.00  0.00    +0.000 A 
ENDBRANCH  31  34
ENDBRANCH  27  28
ENDBRANCH   1  27
TORSDOF 11
ENDMDL
MODEL 9
REMARK VINA RESULT:      -8.0      0.876      1.427
REMARK  Name = 
REMARK  11 active torsions:
REMARK  status: ('A' for Active; 'I' for Inactive)
REMARK    1  A    between atoms: P_2  and  O_3
REMARK    2  A    between atoms: P_2  and  O_4
REMARK    3  A    between atoms: P_2  and  C_5
REMARK    4  A    between atoms: C_5  and  C_6
REMARK    5  A    between atoms: C_5  and  N_16
REMARK    6  A    between atoms: C_6  and  C_7
REMARK    7  A    between atoms: N_16  and  C_17
REMARK    8  A    between atoms: C_17  and  C_18
REMARK    9  A    between atoms: C_17  and  C_31
REMARK   10  A    between atoms: C_18  and  C_19
REMARK   11  A    between atoms: C_22  and  C_23
REMARK                            x       y       z     vdW  Elec       q    Type
REMARK                         _______ _______ _______ _____ _____    ______ ____
ROOT
ATOM      1  C   UNL     1       5.942   4.955  16.849  0.00  0.00    +0.000 C 
ENDROOT
BRANCH   1   2
ATOM      2  C   UNL     1       6.432   4.787  15.430  0.00  0.00    +0.000 A 
ATOM      3  N   UNL     1       5.896   4.008  14.505  0.00  0.00    +0.000 NA
ATOM      4  N   UNL     1       6.669   4.154  13.381  0.00  0.00    +0.000 NA
ATOM      5  N   UNL     1       7.651   5.017  13.591  0.00  0.00    +0.000 NA
ATOM      6  N   UNL     1       7.516   5.402  14.862  0.00  0.00    +0.000 N 
ATOM      7  H   UNL     1       8.182   6.051  15.258  0.00  0.00    +0.000 HD
ENDBRANCH   1   2
BRANCH   1   8
ATOM      8  N   UNL     1       5.035   3.833  17.156  0.00  0.00    +0.000 NA
ATOM      9  H   UNL     1       4.964   3.308  16.272  0.00  0.00    +0.000 HD
BRANCH   8  10
ATOM     10  C   UNL     1       3.636   4.168  17.538  0.00  0.00    +0.000 C 
BRANCH  10  12
ATOM     11  O   UNL     1       2.003   1.721  19.199  0.00  0.00    +0.000 OA
ATOM     12  P   UNL     1       2.751   2.842  18.437  0.00  0.00    +0.000 P 
BRANCH  12  13
ATOM     13  O   UNL     1       1.467   3.851  18.667  0.00  0.00    +0.000 OA
ATOM     14  H   UNL     1       1.619   4.340  19.501  0.00  0.00    +0.000 HD
ENDBRANCH  12  13
BRANCH  12  15
ATOM     15  O   UNL     1       3.576   3.216  19.806  0.00  0.00    +0.000 OA
ATOM     16  H   UNL     1       3.332   2.534  20.467  0.00  0.00    +0.000 HD
ENDBRANCH  12  15
ENDBRANCH  10  12
BRANCH  10  17
ATOM     17  C   UNL     1       3.667   5.185  18.729  0.00  0.00    +0.000 C 
BRANCH  17  18
ATOM     18  C   UNL     1       3.003   6.509  18.590  0.00  0.00    +0.000 A 
ATOM     19  C   UNL     1       3.280   7.348  17.497  0.00  0.00    +0.000 A 
ATOM     20  C   UNL     1       2.787   8.661  17.458  0.00  0.00    +0.000 A 
ATOM     21  C   UNL     1       2.000   9.144  18.503  0.00  0.00    +0.000 A 
ATOM     22  C   UNL     1       1.716   8.291  19.552  0.00  0.00    +0.000 A 
ATOM     23  C   UNL     1       2.200   7.006  19.590  0.00  0.00    +0.000 A 
ATOM     24  O   UNL     1       1.851   6.345  20.727  0.00  0.00    +0.000 OA
ATOM     25  C   UNL     1       0.982   7.319  21.335  0.00  0.00    +0.000 C 
ATOM     26  O   UNL     1       0.985   8.592  20.658  0.00  0.00    +0.000 OA
ENDBRANCH  17  18
ENDBRANCH  10  17
ENDBRANCH   8  10
ENDBRANCH   1   8
BRANCH   1  27
ATOM     27  C   UNL     1       7.051   5.252  17.893  0.00  0.00    +0.000 C 
BRANCH  27  28
ATOM     28  C   UNL     1       7.478   6.683  18.130  0.00  0.00    +0.000 A 
ATOM     29  C   UNL     1       6.910   7.685  17.336  0.00  0.00    +0.000 A 
ATOM     30  C   UNL     1       7.388   8.995  17.399  0.00  0.00    +0.000 A 
ATOM     31  C   UNL     1       8.430   9.359  18.269  0.00  0.00    +0.000 A 
ATOM     32  C   UNL     1       8.919   8.363  19.131  0.00  0.00    +0.000 A 
ATOM     33  C   UNL     1       8.441   7.048  19.074  0.00  0.00    +0.000 A 
BRANCH  31  34
ATOM     34  C   UNL     1       9.021  10.716  18.216  0.00  0.00    +0.000 A 
ATOM     35  C   UNL     1      10.293  10.981  18.757  0.00  0.00    +0.000 A 
ATOM     36  C   UNL     1      10.800  12.282  18.827  0.00  0.00    +0.000 A 
ATOM     37  C   UNL     1      10.054  13.348  18.337  0.00  0.00    +0.000 A 
ATOM     38  C   UNL     1       8.812  13.109  17.757  0.00  0.00    +0.000 A 
ATOM     39  C   UNL     1       8.302  11.808  17.698  0.00  0.00    +0.000 A 
ENDBRANCH  31  34
ENDBRANCH  27  28
ENDBRANCH   1  27
TORSDOF 11
ENDMDL
