MODEL 1
REMARK VINA RESULT:      -7.0      0.000      0.000
REMARK  Name = 
REMARK  9 active torsions:
REMARK  status: ('A' for Active; 'I' for Inactive)
REMARK    1  A    between atoms: C_1  and  C_2
REMARK    2  A    between atoms: C_2  and  N_3
REMARK    3  A    between atoms: N_3  and  C_4
REMARK    4  A    between atoms: N_3  and  C_6
REMARK    5  A    between atoms: C_4  and  C_5
REMARK    6  A    between atoms: C_9  and  C_10
REMARK    7  A    between atoms: C_10  and  N_11
REMARK    8  A    between atoms: N_11  and  S_12
REMARK    9  A    between atoms: S_12  and  C_15
REMARK                            x       y       z     vdW  Elec       q    Type
REMARK                         _______ _______ _______ _____ _____    ______ ____
ROOT
ATOM      1  C   UNL     1       1.025   9.539  19.536  0.00  0.00    +0.000 A 
ATOM      2  C   UNL     1       0.886   8.797  20.724  0.00  0.00    +0.000 A 
ATOM      3  C   UNL     1       1.426   7.509  20.889  0.00  0.00    +0.000 A 
ATOM      4  C   UNL     1       2.143   6.898  19.859  0.00  0.00    +0.000 A 
ATOM      5  C   UNL     1       2.338   7.619  18.683  0.00  0.00    +0.000 A 
ATOM      6  C   UNL     1       1.795   8.901  18.531  0.00  0.00    +0.000 A 
ATOM      7  F   UNL     1       2.050   9.501  17.357  0.00  0.00    +0.000 F 
ENDROOT
BRANCH   1   8
ATOM      8  N   UNL     1       0.422  10.801  19.379  0.00  0.00    +0.000 N 
BRANCH   8  10
ATOM      9  C   UNL     1      -1.380  10.225  17.780  0.00  0.00    +0.000 C 
ATOM     10  C   UNL     1      -1.012  10.922  19.085  0.00  0.00    +0.000 C 
ENDBRANCH   8  10
BRANCH   8  11
ATOM     11  C   UNL     1       1.248  12.002  19.615  0.00  0.00    +0.000 C 
ATOM     12  C   UNL     1       1.651  12.814  18.394  0.00  0.00    +0.000 C 
ENDBRANCH   8  11
ENDBRANCH   1   8
BRANCH   4  13
ATOM     13  C   UNL     1       2.662   5.491  20.000  0.00  0.00    +0.000 C 
BRANCH  13  14
ATOM     14  N   UNL     1       4.112   5.412  19.717  0.00  0.00    +0.000 NA
ATOM     15  H   UNL     1       4.632   5.416  20.597  0.00  0.00    +0.000 HD
BRANCH  14  16
ATOM     16  S   UNL     1       4.511   4.052  18.795  0.00  0.00    +0.000 S 
ATOM     17  O   UNL     1       4.901   3.038  19.753  0.00  0.00    +0.000 OA
ATOM     18  O   UNL     1       3.433   3.821  17.858  0.00  0.00    +0.000 OA
BRANCH  16  19
ATOM     19  C   UNL     1       5.980   4.589  17.921  0.00  0.00    +0.000 C 
ATOM     20  C   UNL     1       6.230   6.086  18.066  0.00  0.00    +0.000 C 
ATOM     21  C   UNL     1       7.407   6.509  17.201  0.00  0.00    +0.000 C 
ATOM     22  O   UNL     1       7.198   6.128  15.843  0.00  0.00    +0.000 OA
ATOM     23  C   UNL     1       7.089   4.717  15.680  0.00  0.00    +0.000 C 
ATOM     24  C   UNL     1       5.890   4.187  16.447  0.00  0.00    +0.000 C 
ENDBRANCH  16  19
ENDBRANCH  14  16
ENDBRANCH  13  14
ENDBRANCH   4  13
TORSDOF 7
ENDMDL
MODEL 2
REMARK VINA RESULT:      -6.8      2.290      3.845
REMARK  Name = 
REMARK  9 active torsions:
REMARK  status: ('A' for Active; 'I' for Inactive)
REMARK    1  A    between atoms: C_1  and  C_2
REMARK    2  A    between atoms: C_2  and  N_3
REMARK    3  A    between atoms: N_3  and  C_4
REMARK    4  A    between atoms: N_3  and  C_6
REMARK    5  A    between atoms: C_4  and  C_5
REMARK    6  A    between atoms: C_9  and  C_10
REMARK    7  A    between atoms: C_10  and  N_11
REMARK    8  A    between atoms: N_11  and  S_12
REMARK    9  A    between atoms: S_12  and  C_15
REMARK                            x       y       z     vdW  Elec       q    Type
REMARK                         _______ _______ _______ _____ _____    ______ ____
ROOT
ATOM      1  C   UNL     1       1.005   9.779  19.461  0.00  0.00    +0.000 A 
ATOM      2  C   UNL     1       1.495   9.736  18.142  0.00  0.00    +0.000 A 
ATOM      3  C   UNL     1       2.263   8.667  17.647  0.00  0.00    +0.000 A 
ATOM      4  C   UNL     1       2.577   7.577  18.458  0.00  0.00    +0.000 A 
ATOM      5  C   UNL     1       2.074   7.564  19.758  0.00  0.00    +0.000 A 
ATOM      6  C   UNL     1       1.310   8.634  20.240  0.00  0.00    +0.000 A 
ATOM      7  F   UNL     1       0.875   8.511  21.504  0.00  0.00    +0.000 F 
ENDROOT
BRANCH   1   8
ATOM      8  N   UNL     1       0.290  10.890  19.947  0.00  0.00    +0.000 N 
BRANCH   8  10
ATOM      9  C   UNL     1      -1.383  12.010  18.504  0.00  0.00    +0.000 C 
ATOM     10  C   UNL     1      -1.142  11.050  19.664  0.00  0.00    +0.000 C 
ENDBRANCH   8  10
BRANCH   8  11
ATOM     11  C   UNL     1       0.995  11.839  20.832  0.00  0.00    +0.000 C 
ATOM     12  C   UNL     1       1.883  12.877  20.163  0.00  0.00    +0.000 C 
ENDBRANCH   8  11
ENDBRANCH   1   8
BRANCH   4  13
ATOM     13  C   UNL     1       3.461   6.463  17.960  0.00  0.00    +0.000 C 
BRANCH  13  14
ATOM     14  N   UNL     1       4.139   5.763  19.073  0.00  0.00    +0.000 NA
ATOM     15  H   UNL     1       3.529   5.753  19.893  0.00  0.00    +0.000 HD
BRANCH  14  16
ATOM     16  S   UNL     1       4.600   4.191  18.654  0.00  0.00    +0.000 S 
ATOM     17  O   UNL     1       4.589   4.160  17.206  0.00  0.00    +0.000 OA
ATOM     18  O   UNL     1       5.796   3.866  19.401  0.00  0.00    +0.000 OA
BRANCH  16  19
ATOM     19  C   UNL     1       3.222   3.209  19.243  0.00  0.00    +0.000 C 
ATOM     20  C   UNL     1       2.134   3.038  18.187  0.00  0.00    +0.000 C 
ATOM     21  C   UNL     1       0.936   2.314  18.780  0.00  0.00    +0.000 C 
ATOM     22  O   UNL     1       0.457   2.992  19.938  0.00  0.00    +0.000 OA
ATOM     23  C   UNL     1       1.427   3.047  20.981  0.00  0.00    +0.000 C 
ATOM     24  C   UNL     1       2.652   3.821  20.524  0.00  0.00    +0.000 C 
ENDBRANCH  16  19
ENDBRANCH  14  16
ENDBRANCH  13  14
ENDBRANCH   4  13
TORSDOF 7
ENDMDL
MODEL 3
REMARK VINA RESULT:      -6.7      0.890      1.309
REMARK  Name = 
REMARK  9 active torsions:
REMARK  status: ('A' for Active; 'I' for Inactive)
REMARK    1  A    between atoms: C_1  and  C_2
REMARK    2  A    between atoms: C_2  and  N_3
REMARK    3  A    between atoms: N_3  and  C_4
REMARK    4  A    between atoms: N_3  and  C_6
REMARK    5  A    between atoms: C_4  and  C_5
REMARK    6  A    between atoms: C_9  and  C_10
REMARK    7  A    between atoms: C_10  and  N_11
REMARK    8  A    between atoms: N_11  and  S_12
REMARK    9  A    between atoms: S_12  and  C_15
REMARK                            x       y       z     vdW  Elec       q    Type
REMARK                         _______ _______ _______ _____ _____    ______ ____
ROOT
ATOM      1  C   UNL     1       0.961   9.730  19.559  0.00  0.00    +0.000 A 
ATOM      2  C   UNL     1       0.933   8.909  20.702  0.00  0.00    +0.000 A 
ATOM      3  C   UNL     1       1.546   7.645  20.750  0.00  0.00    +0.000 A 
ATOM      4  C   UNL     1       2.228   7.139  19.642  0.00  0.00    +0.000 A 
ATOM      5  C   UNL     1       2.313   7.942  18.506  0.00  0.00    +0.000 A 
ATOM      6  C   UNL     1       1.698   9.199  18.471  0.00  0.00    +0.000 A 
ATOM      7  F   UNL     1       1.848   9.885  17.326  0.00  0.00    +0.000 F 
ENDROOT
BRANCH   1   8
ATOM      8  N   UNL     1       0.286  10.965  19.521  0.00  0.00    +0.000 N 
BRANCH   8  10
ATOM      9  C   UNL     1      -1.686  10.269  18.194  0.00  0.00    +0.000 C 
ATOM     10  C   UNL     1      -1.178  11.024  19.417  0.00  0.00    +0.000 C 
ENDBRANCH   8  10
BRANCH   8  11
ATOM     11  C   UNL     1       1.081  12.199  19.689  0.00  0.00    +0.000 C 
ATOM     12  C   UNL     1       1.116  13.162  18.512  0.00  0.00    +0.000 C 
ENDBRANCH   8  11
ENDBRANCH   1   8
BRANCH   4  13
ATOM     13  C   UNL     1       2.824   5.756  19.659  0.00  0.00    +0.000 C 
BRANCH  13  14
ATOM     14  N   UNL     1       2.600   5.048  18.379  0.00  0.00    +0.000 NA
ATOM     15  H   UNL     1       2.670   5.711  17.605  0.00  0.00    +0.000 HD
BRANCH  14  16
ATOM     16  S   UNL     1       3.676   3.762  18.162  0.00  0.00    +0.000 S 
ATOM     17  O   UNL     1       4.046   3.340  19.497  0.00  0.00    +0.000 OA
ATOM     18  O   UNL     1       3.078   2.838  17.222  0.00  0.00    +0.000 OA
BRANCH  16  19
ATOM     19  C   UNL     1       5.096   4.562  17.417  0.00  0.00    +0.000 C 
ATOM     20  C   UNL     1       5.550   3.869  16.137  0.00  0.00    +0.000 C 
ATOM     21  C   UNL     1       6.832   4.505  15.621  0.00  0.00    +0.000 C 
ATOM     22  O   UNL     1       7.842   4.493  16.626  0.00  0.00    +0.000 OA
ATOM     23  C   UNL     1       7.477   5.246  17.779  0.00  0.00    +0.000 C 
ATOM     24  C   UNL     1       6.240   4.651  18.429  0.00  0.00    +0.000 C 
ENDBRANCH  16  19
ENDBRANCH  14  16
ENDBRANCH  13  14
ENDBRANCH   4  13
TORSDOF 7
ENDMDL
MODEL 4
REMARK VINA RESULT:      -6.6      2.410      4.075
REMARK  Name = 
REMARK  9 active torsions:
REMARK  status: ('A' for Active; 'I' for Inactive)
REMARK    1  A    between atoms: C_1  and  C_2
REMARK    2  A    between atoms: C_2  and  N_3
REMARK    3  A    between atoms: N_3  and  C_4
REMARK    4  A    between atoms: N_3  and  C_6
REMARK    5  A    between atoms: C_4  and  C_5
REMARK    6  A    between atoms: C_9  and  C_10
REMARK    7  A    between atoms: C_10  and  N_11
REMARK    8  A    between atoms: N_11  and  S_12
REMARK    9  A    between atoms: S_12  and  C_15
REMARK                            x       y       z     vdW  Elec       q    Type
REMARK                         _______ _______ _______ _____ _____    ______ ____
ROOT
ATOM      1  C   UNL     1       1.013   9.704  19.703  0.00  0.00    +0.000 A 
ATOM      2  C   UNL     1       1.359   9.646  18.340  0.00  0.00    +0.000 A 
ATOM      3  C   UNL     1       2.077   8.575  17.778  0.00  0.00    +0.000 A 
ATOM      4  C   UNL     1       2.483   7.496  18.565  0.00  0.00    +0.000 A 
ATOM      5  C   UNL     1       2.122   7.498  19.911  0.00  0.00    +0.000 A 
ATOM      6  C   UNL     1       1.407   8.571  20.459  0.00  0.00    +0.000 A 
ATOM      7  F   UNL     1       1.111   8.463  21.764  0.00  0.00    +0.000 F 
ENDROOT
BRANCH   1   8
ATOM      8  N   UNL     1       0.347  10.818  20.249  0.00  0.00    +0.000 N 
BRANCH   8  10
ATOM      9  C   UNL     1      -0.374  12.875  19.071  0.00  0.00    +0.000 C 
ATOM     10  C   UNL     1       0.727  12.185  19.871  0.00  0.00    +0.000 C 
ENDBRANCH   8  10
BRANCH   8  11
ATOM     11  C   UNL     1      -0.809  10.572  21.135  0.00  0.00    +0.000 C 
ATOM     12  C   UNL     1      -0.741  11.160  22.536  0.00  0.00    +0.000 C 
ENDBRANCH   8  11
ENDBRANCH   1   8
BRANCH   4  13
ATOM     13  C   UNL     1       3.315   6.381  17.989  0.00  0.00    +0.000 C 
BRANCH  13  14
ATOM     14  N   UNL     1       4.143   5.725  19.025  0.00  0.00    +0.000 NA
ATOM     15  H   UNL     1       3.646   5.736  19.917  0.00  0.00    +0.000 HD
BRANCH  14  16
ATOM     16  S   UNL     1       4.569   4.145  18.598  0.00  0.00    +0.000 S 
ATOM     17  O   UNL     1       4.523   4.112  17.151  0.00  0.00    +0.000 OA
ATOM     18  O   UNL     1       5.776   3.802  19.317  0.00  0.00    +0.000 OA
BRANCH  16  19
ATOM     19  C   UNL     1       3.189   3.186  19.221  0.00  0.00    +0.000 C 
ATOM     20  C   UNL     1       2.086   3.008  18.183  0.00  0.00    +0.000 C 
ATOM     21  C   UNL     1       0.889   2.305  18.803  0.00  0.00    +0.000 C 
ATOM     22  O   UNL     1       0.433   3.008  19.957  0.00  0.00    +0.000 OA
ATOM     23  C   UNL     1       1.416   3.070  20.985  0.00  0.00    +0.000 C 
ATOM     24  C   UNL     1       2.642   3.825  20.500  0.00  0.00    +0.000 C 
ENDBRANCH  16  19
ENDBRANCH  14  16
ENDBRANCH  13  14
ENDBRANCH   4  13
TORSDOF 7
ENDMDL
MODEL 5
REMARK VINA RESULT:      -6.6      1.423      2.337
REMARK  Name = 
REMARK  9 active torsions:
REMARK  status: ('A' for Active; 'I' for Inactive)
REMARK    1  A    between atoms: C_1  and  C_2
REMARK    2  A    between atoms: C_2  and  N_3
REMARK    3  A    between atoms: N_3  and  C_4
REMARK    4  A    between atoms: N_3  and  C_6
REMARK    5  A    between atoms: C_4  and  C_5
REMARK    6  A    between atoms: C_9  and  C_10
REMARK    7  A    between atoms: C_10  and  N_11
REMARK    8  A    between atoms: N_11  and  S_12
REMARK    9  A    between atoms: S_12  and  C_15
REMARK                            x       y       z     vdW  Elec       q    Type
REMARK                         _______ _______ _______ _____ _____    ______ ____
ROOT
ATOM      1  C   UNL     1       1.008  10.119  19.069  0.00  0.00    +0.000 A 
ATOM      2  C   UNL     1       1.645   9.588  17.931  0.00  0.00    +0.000 A 
ATOM      3  C   UNL     1       2.278   8.333  17.925  0.00  0.00    +0.000 A 
ATOM      4  C   UNL     1       2.300   7.538  19.072  0.00  0.00    +0.000 A 
ATOM      5  C   UNL     1       1.643   8.011  20.206  0.00  0.00    +0.000 A 
ATOM      6  C   UNL     1       1.017   9.264  20.200  0.00  0.00    +0.000 A 
ATOM      7  F   UNL     1       0.413   9.615  21.347  0.00  0.00    +0.000 F 
ENDROOT
BRANCH   1   8
ATOM      8  N   UNL     1       0.436  11.405  19.062  0.00  0.00    +0.000 N 
BRANCH   8  10
ATOM      9  C   UNL     1       1.719  12.901  20.563  0.00  0.00    +0.000 C 
ATOM     10  C   UNL     1       1.276  12.607  19.134  0.00  0.00    +0.000 C 
ENDBRANCH   8  10
BRANCH   8  11
ATOM     11  C   UNL     1      -1.026  11.515  18.881  0.00  0.00    +0.000 C 
ATOM     12  C   UNL     1      -1.724  10.360  18.179  0.00  0.00    +0.000 C 
ENDBRANCH   8  11
ENDBRANCH   1   8
BRANCH   4  13
ATOM     13  C   UNL     1       3.039   6.226  19.097  0.00  0.00    +0.000 C 
BRANCH  13  14
ATOM     14  N   UNL     1       3.093   5.603  17.755  0.00  0.00    +0.000 NA
ATOM     15  H   UNL     1       3.776   6.097  17.178  0.00  0.00    +0.000 HD
BRANCH  14  16
ATOM     16  S   UNL     1       3.457   3.954  17.830  0.00  0.00    +0.000 S 
ATOM     17  O   UNL     1       3.504   3.633  19.241  0.00  0.00    +0.000 OA
ATOM     18  O   UNL     1       2.558   3.261  16.933  0.00  0.00    +0.000 OA
BRANCH  16  19
ATOM     19  C   UNL     1       5.130   3.893  17.189  0.00  0.00    +0.000 C 
ATOM     20  C   UNL     1       6.138   4.548  18.128  0.00  0.00    +0.000 C 
ATOM     21  C   UNL     1       7.513   4.586  17.478  0.00  0.00    +0.000 C 
ATOM     22  O   UNL     1       7.455   5.239  16.212  0.00  0.00    +0.000 OA
ATOM     23  C   UNL     1       6.611   4.562  15.285  0.00  0.00    +0.000 C 
ATOM     24  C   UNL     1       5.182   4.528  15.798  0.00  0.00    +0.000 C 
ENDBRANCH  16  19
ENDBRANCH  14  16
ENDBRANCH  13  14
ENDBRANCH   4  13
TORSDOF 7
ENDMDL
MODEL 6
REMARK VINA RESULT:      -6.6      1.376      1.991
REMARK  Name = 
REMARK  9 active torsions:
REMARK  status: ('A' for Active; 'I' for Inactive)
REMARK    1  A    between atoms: C_1  and  C_2
REMARK    2  A    between atoms: C_2  and  N_3
REMARK    3  A    between atoms: N_3  and  C_4
REMARK    4  A    between atoms: N_3  and  C_6
REMARK    5  A    between atoms: C_4  and  C_5
REMARK    6  A    between atoms: C_9  and  C_10
REMARK    7  A    between atoms: C_10  and  N_11
REMARK    8  A    between atoms: N_11  and  S_12
REMARK    9  A    between atoms: S_12  and  C_15
REMARK                            x       y       z     vdW  Elec       q    Type
REMARK                         _______ _______ _______ _____ _____    ______ ____
ROOT
ATOM      1  C   UNL     1       0.927  10.124  19.031  0.00  0.00    +0.000 A 
ATOM      2  C   UNL     1       1.602   9.514  17.957  0.00  0.00    +0.000 A 
ATOM      3  C   UNL     1       2.217   8.254  18.058  0.00  0.00    +0.000 A 
ATOM      4  C   UNL     1       2.181   7.535  19.253  0.00  0.00    +0.000 A 
ATOM      5  C   UNL     1       1.485   8.087  20.326  0.00  0.00    +0.000 A 
ATOM      6  C   UNL     1       0.877   9.344  20.214  0.00  0.00    +0.000 A 
ATOM      7  F   UNL     1       0.232   9.774  21.310  0.00  0.00    +0.000 F 
ENDROOT
BRANCH   1   8
ATOM      8  N   UNL     1       0.372  11.413  18.918  0.00  0.00    +0.000 N 
BRANCH   8  10
ATOM      9  C   UNL     1      -1.745  10.412  18.112  0.00  0.00    +0.000 C 
ATOM     10  C   UNL     1      -1.078  11.604  18.790  0.00  0.00    +0.000 C 
ENDBRANCH   8  10
BRANCH   8  11
ATOM     11  C   UNL     1       1.279  12.574  19.033  0.00  0.00    +0.000 C 
ATOM     12  C   UNL     1       1.669  13.009  20.437  0.00  0.00    +0.000 C 
ENDBRANCH   8  11
ENDBRANCH   1   8
BRANCH   4  13
ATOM     13  C   UNL     1       2.900   6.218  19.392  0.00  0.00    +0.000 C 
BRANCH  13  14
ATOM     14  N   UNL     1       2.533   5.277  18.310  0.00  0.00    +0.000 NA
ATOM     15  H   UNL     1       2.505   5.776  17.419  0.00  0.00    +0.000 HD
BRANCH  14  16
ATOM     16  S   UNL     1       3.587   3.959  18.225  0.00  0.00    +0.000 S 
ATOM     17  O   UNL     1       3.906   3.631  19.599  0.00  0.00    +0.000 OA
ATOM     18  O   UNL     1       2.998   2.978  17.338  0.00  0.00    +0.000 OA
BRANCH  16  19
ATOM     19  C   UNL     1       5.046   4.673  17.468  0.00  0.00    +0.000 C 
ATOM     20  C   UNL     1       5.466   3.935  16.201  0.00  0.00    +0.000 C 
ATOM     21  C   UNL     1       6.778   4.497  15.676  0.00  0.00    +0.000 C 
ATOM     22  O   UNL     1       7.786   4.451  16.684  0.00  0.00    +0.000 OA
ATOM     23  C   UNL     1       7.458   5.241  17.823  0.00  0.00    +0.000 C 
ATOM     24  C   UNL     1       6.192   4.721  18.481  0.00  0.00    +0.000 C 
ENDBRANCH  16  19
ENDBRANCH  14  16
ENDBRANCH  13  14
ENDBRANCH   4  13
TORSDOF 7
ENDMDL
MODEL 7
REMARK VINA RESULT:      -6.6      1.020      1.892
REMARK  Name = 
REMARK  9 active torsions:
REMARK  status: ('A' for Active; 'I' for Inactive)
REMARK    1  A    between atoms: C_1  and  C_2
REMARK    2  A    between atoms: C_2  and  N_3
REMARK    3  A    between atoms: N_3  and  C_4
REMARK    4  A    between atoms: N_3  and  C_6
REMARK    5  A    between atoms: C_4  and  C_5
REMARK    6  A    between atoms: C_9  and  C_10
REMARK    7  A    between atoms: C_10  and  N_11
REMARK    8  A    between atoms: N_11  and  S_12
REMARK    9  A    between atoms: S_12  and  C_15
REMARK                            x       y       z     vdW  Elec       q    Type
REMARK                         _______ _______ _______ _____ _____    ______ ____
ROOT
ATOM      1  C   UNL     1       0.765   9.629  19.727  0.00  0.00    +0.000 A 
ATOM      2  C   UNL     1       0.850   8.755  20.827  0.00  0.00    +0.000 A 
ATOM      3  C   UNL     1       1.590   7.560  20.798  0.00  0.00    +0.000 A 
ATOM      4  C   UNL     1       2.291   7.180  19.653  0.00  0.00    +0.000 A 
ATOM      5  C   UNL     1       2.264   8.041  18.557  0.00  0.00    +0.000 A 
ATOM      6  C   UNL     1       1.524   9.229  18.598  0.00  0.00    +0.000 A 
ATOM      7  F   UNL     1       1.574   9.981  17.487  0.00  0.00    +0.000 F 
ENDROOT
BRANCH   1   8
ATOM      8  N   UNL     1      -0.033  10.788  19.765  0.00  0.00    +0.000 N 
BRANCH   8  10
ATOM      9  C   UNL     1       1.662  12.563  20.110  0.00  0.00    +0.000 C 
ATOM     10  C   UNL     1       0.352  11.943  20.586  0.00  0.00    +0.000 C 
ENDBRANCH   8  10
BRANCH   8  11
ATOM     11  C   UNL     1      -1.214  10.850  18.881  0.00  0.00    +0.000 C 
ATOM     12  C   UNL     1      -1.425  12.138  18.100  0.00  0.00    +0.000 C 
ENDBRANCH   8  11
ENDBRANCH   1   8
BRANCH   4  13
ATOM     13  C   UNL     1       3.025   5.867  19.587  0.00  0.00    +0.000 C 
BRANCH  13  14
ATOM     14  N   UNL     1       2.628   5.077  18.400  0.00  0.00    +0.000 NA
ATOM     15  H   UNL     1       2.585   5.687  17.583  0.00  0.00    +0.000 HD
BRANCH  14  16
ATOM     16  S   UNL     1       3.670   3.776  18.120  0.00  0.00    +0.000 S 
ATOM     17  O   UNL     1       4.046   3.294  19.433  0.00  0.00    +0.000 OA
ATOM     18  O   UNL     1       3.040   2.903  17.153  0.00  0.00    +0.000 OA
BRANCH  16  19
ATOM     19  C   UNL     1       5.100   4.571  17.388  0.00  0.00    +0.000 C 
ATOM     20  C   UNL     1       5.521   3.919  16.075  0.00  0.00    +0.000 C 
ATOM     21  C   UNL     1       6.811   4.545  15.568  0.00  0.00    +0.000 C 
ATOM     22  O   UNL     1       7.833   4.468  16.558  0.00  0.00    +0.000 OA
ATOM     23  C   UNL     1       7.501   5.182  17.745  0.00  0.00    +0.000 C 
ATOM     24  C   UNL     1       6.258   4.591  18.388  0.00  0.00    +0.000 C 
ENDBRANCH  16  19
ENDBRANCH  14  16
ENDBRANCH  13  14
ENDBRANCH   4  13
TORSDOF 7
ENDMDL
MODEL 8
REMARK VINA RESULT:      -6.6      2.293      3.870
REMARK  Name = 
REMARK  9 active torsions:
REMARK  status: ('A' for Active; 'I' for Inactive)
REMARK    1  A    between atoms: C_1  and  C_2
REMARK    2  A    between atoms: C_2  and  N_3
REMARK    3  A    between atoms: N_3  and  C_4
REMARK    4  A    between atoms: N_3  and  C_6
REMARK    5  A    between atoms: C_4  and  C_5
REMARK    6  A    between atoms: C_9  and  C_10
REMARK    7  A    between atoms: C_10  and  N_11
REMARK    8  A    between atoms: N_11  and  S_12
REMARK    9  A    between atoms: S_12  and  C_15
REMARK                            x       y       z     vdW  Elec       q    Type
REMARK                         _______ _______ _______ _____ _____    ______ ____
ROOT
ATOM      1  C   UNL     1       0.789   9.524  19.899  0.00  0.00    +0.000 A 
ATOM      2  C   UNL     1       1.181   8.374  20.609  0.00  0.00    +0.000 A 
ATOM      3  C   UNL     1       2.020   7.387  20.061  0.00  0.00    +0.000 A 
ATOM      4  C   UNL     1       2.513   7.509  18.762  0.00  0.00    +0.000 A 
ATOM      5  C   UNL     1       2.181   8.655  18.043  0.00  0.00    +0.000 A 
ATOM      6  C   UNL     1       1.345   9.631  18.599  0.00  0.00    +0.000 A 
ATOM      7  F   UNL     1       1.095  10.694  17.816  0.00  0.00    +0.000 F 
ENDROOT
BRANCH   1   8
ATOM      8  N   UNL     1      -0.100  10.466  20.452  0.00  0.00    +0.000 N 
BRANCH   8  10
ATOM      9  C   UNL     1      -1.321  12.424  19.550  0.00  0.00    +0.000 C 
ATOM     10  C   UNL     1      -1.289  10.907  19.711  0.00  0.00    +0.000 C 
ENDBRANCH   8  10
BRANCH   8  11
ATOM     11  C   UNL     1       0.141  10.922  21.835  0.00  0.00    +0.000 C 
ATOM     12  C   UNL     1      -0.795  10.390  22.910  0.00  0.00    +0.000 C 
ENDBRANCH   8  11
ENDBRANCH   1   8
BRANCH   4  13
ATOM     13  C   UNL     1       3.351   6.422  18.141  0.00  0.00    +0.000 C 
BRANCH  13  14
ATOM     14  N   UNL     1       4.128   5.681  19.160  0.00  0.00    +0.000 NA
ATOM     15  H   UNL     1       3.595   5.637  20.030  0.00  0.00    +0.000 HD
BRANCH  14  16
ATOM     16  S   UNL     1       4.548   4.129  18.639  0.00  0.00    +0.000 S 
ATOM     17  O   UNL     1       4.486   4.177  17.193  0.00  0.00    +0.000 OA
ATOM     18  O   UNL     1       5.764   3.746  19.324  0.00  0.00    +0.000 OA
BRANCH  16  19
ATOM     19  C   UNL     1       3.176   3.135  19.223  0.00  0.00    +0.000 C 
ATOM     20  C   UNL     1       2.057   3.023  18.193  0.00  0.00    +0.000 C 
ATOM     21  C   UNL     1       0.868   2.285  18.787  0.00  0.00    +0.000 C 
ATOM     22  O   UNL     1       0.430   2.915  19.989  0.00  0.00    +0.000 OA
ATOM     23  C   UNL     1       1.430   2.913  21.004  0.00  0.00    +0.000 C 
ATOM     24  C   UNL     1       2.650   3.694  20.547  0.00  0.00    +0.000 C 
ENDBRANCH  16  19
ENDBRANCH  14  16
ENDBRANCH  13  14
ENDBRANCH   4  13
TORSDOF 7
ENDMDL
MODEL 9
REMARK VINA RESULT:      -6.6      0.957      1.823
REMARK  Name = 
REMARK  9 active torsions:
REMARK  status: ('A' for Active; 'I' for Inactive)
REMARK    1  A    between atoms: C_1  and  C_2
REMARK    2  A    between atoms: C_2  and  N_3
REMARK    3  A    between atoms: N_3  and  C_4
REMARK    4  A    between atoms: N_3  and  C_6
REMARK    5  A    between atoms: C_4  and  C_5
REMARK    6  A    between atoms: C_9  and  C_10
REMARK    7  A    between atoms: C_10  and  N_11
REMARK    8  A    between atoms: N_11  and  S_12
REMARK    9  A    between atoms: S_12  and  C_15
REMARK                            x       y       z     vdW  Elec       q    Type
REMARK                         _______ _______ _______ _____ _____    ______ ____
ROOT
ATOM      1  C   UNL     1       0.929   9.701  19.632  0.00  0.00    +0.000 A 
ATOM      2  C   UNL     1       0.799   8.955  20.818  0.00  0.00    +0.000 A 
ATOM      3  C   UNL     1       1.360   7.676  20.982  0.00  0.00    +0.000 A 
ATOM      4  C   UNL     1       2.090   7.079  19.953  0.00  0.00    +0.000 A 
ATOM      5  C   UNL     1       2.276   7.805  18.779  0.00  0.00    +0.000 A 
ATOM      6  C   UNL     1       1.712   9.078  18.628  0.00  0.00    +0.000 A 
ATOM      7  F   UNL     1       1.960   9.685  17.456  0.00  0.00    +0.000 F 
ENDROOT
BRANCH   1   8
ATOM      8  N   UNL     1       0.305  10.953  19.476  0.00  0.00    +0.000 N 
BRANCH   8  10
ATOM      9  C   UNL     1       0.948  13.084  18.387  0.00  0.00    +0.000 C 
ATOM     10  C   UNL     1       1.066  12.200  19.624  0.00  0.00    +0.000 C 
ENDBRANCH   8  10
BRANCH   8  11
ATOM     11  C   UNL     1      -1.112  10.978  19.060  0.00  0.00    +0.000 C 
ATOM     12  C   UNL     1      -1.470  10.229  17.785  0.00  0.00    +0.000 C 
ENDBRANCH   8  11
ENDBRANCH   1   8
BRANCH   4  13
ATOM     13  C   UNL     1       2.632   5.680  20.092  0.00  0.00    +0.000 C 
BRANCH  13  14
ATOM     14  N   UNL     1       3.113   5.148  18.798  0.00  0.00    +0.000 NA
ATOM     15  H   UNL     1       3.103   5.893  18.099  0.00  0.00    +0.000 HD
BRANCH  14  16
ATOM     16  S   UNL     1       4.655   4.465  18.921  0.00  0.00    +0.000 S 
ATOM     17  O   UNL     1       5.427   5.398  19.715  0.00  0.00    +0.000 OA
ATOM     18  O   UNL     1       4.496   3.086  19.329  0.00  0.00    +0.000 OA
BRANCH  16  19
ATOM     19  C   UNL     1       5.252   4.542  17.233  0.00  0.00    +0.000 C 
ATOM     20  C   UNL     1       6.768   4.400  17.144  0.00  0.00    +0.000 C 
ATOM     21  C   UNL     1       7.232   4.604  15.711  0.00  0.00    +0.000 C 
ATOM     22  O   UNL     1       6.779   5.858  15.207  0.00  0.00    +0.000 OA
ATOM     23  C   UNL     1       5.358   5.952  15.167  0.00  0.00    +0.000 C 
ATOM     24  C   UNL     1       4.781   5.837  16.568  0.00  0.00    +0.000 C 
ENDBRANCH  16  19
ENDBRANCH  14  16
ENDBRANCH  13  14
ENDBRANCH   4  13
TORSDOF 7
ENDMDL
