MODEL 1
REMARK VINA RESULT:      -7.1      0.000      0.000
REMARK  Name = 
REMARK  5 active torsions:
REMARK  status: ('A' for Active; 'I' for Inactive)
REMARK    1  A    between atoms: C_1  and  C_2
REMARK    2  A    between atoms: C_2  and  C_3
REMARK    3  A    between atoms: C_6  and  C_7
REMARK    4  A    between atoms: N_9  and  C_10
REMARK    5  A    between atoms: C_10  and  C_11
REMARK                            x       y       z     vdW  Elec       q    Type
REMARK                         _______ _______ _______ _____ _____    ______ ____
ROOT
ATOM      1  C   UNL     1       2.902   4.900  19.772  0.00  0.00    +0.000 C 
ATOM      2  O   UNL     1       1.830   4.308  19.667  0.00  0.00    +0.000 OA
ATOM      3  N   UNL     1       2.965   6.184  20.253  0.00  0.00    +0.000 N 
ATOM      4  H   UNL     1       3.825   6.724  20.257  0.00  0.00    +0.000 HD
ENDROOT
BRANCH   1   8
ATOM      5  C   UNL     1       4.734   4.797  16.455  0.00  0.00    +0.000 C 
ATOM      6  C   UNL     1       3.713   3.763  16.955  0.00  0.00    +0.000 C 
ATOM      7  C   UNL     1       4.080   3.192  18.324  0.00  0.00    +0.000 C 
ATOM      8  C   UNL     1       4.247   4.293  19.380  0.00  0.00    +0.000 C 
ATOM      9  C   UNL     1       5.226   5.377  18.902  0.00  0.00    +0.000 C 
ATOM     10  C   UNL     1       4.896   5.911  17.502  0.00  0.00    +0.000 C 
BRANCH   5  12
ATOM     11  C   UNL     1       6.317   3.995  14.600  0.00  0.00    +0.000 C 
ATOM     12  C   UNL     1       6.106   4.190  16.095  0.00  0.00    +0.000 C 
ENDBRANCH   5  12
ENDBRANCH   1   8
BRANCH   3  13
ATOM     13  C   UNL     1       1.752   6.823  20.696  0.00  0.00    +0.000 C 
BRANCH  13  14
ATOM     14  C   UNL     1       1.535   8.210  20.086  0.00  0.00    +0.000 C 
ATOM     15  O   UNL     1       1.989   8.490  18.972  0.00  0.00    +0.000 OA
ATOM     16  N   UNL     1       0.827   9.124  20.873  0.00  0.00    +0.000 N 
ATOM     17  C   UNL     1       0.461   8.799  22.258  0.00  0.00    +0.000 C 
ATOM     18  C   UNL     1      -0.335   9.809  23.075  0.00  0.00    +0.000 C 
ATOM     19  N   UNL     1      -0.521  11.066  22.419  0.00  0.00    +0.000 N 
ATOM     20  C   UNL     1      -1.224  12.132  22.905  0.00  0.00    +0.000 A 
ATOM     21  N   UNL     1      -1.220  13.126  22.050  0.00  0.00    +0.000 NA
ATOM     22  C   UNL     1      -0.489  12.676  20.977  0.00  0.00    +0.000 A 
ATOM     23  C   UNL     1      -0.040  11.391  21.190  0.00  0.00    +0.000 A 
ATOM     24  C   UNL     1       0.787  10.493  20.368  0.00  0.00    +0.000 C 
ENDBRANCH  13  14
ENDBRANCH   3  13
TORSDOF 4
ENDMDL
MODEL 2
REMARK VINA RESULT:      -7.0      2.057      3.256
REMARK  Name = 
REMARK  5 active torsions:
REMARK  status: ('A' for Active; 'I' for Inactive)
REMARK    1  A    between atoms: C_1  and  C_2
REMARK    2  A    between atoms: C_2  and  C_3
REMARK    3  A    between atoms: C_6  and  C_7
REMARK    4  A    between atoms: N_9  and  C_10
REMARK    5  A    between atoms: C_10  and  C_11
REMARK                            x       y       z     vdW  Elec       q    Type
REMARK                         _______ _______ _______ _____ _____    ______ ____
ROOT
ATOM      1  C   UNL     1       2.435   6.954  19.436  0.00  0.00    +0.000 C 
ATOM      2  O   UNL     1       2.401   7.357  18.275  0.00  0.00    +0.000 OA
ATOM      3  N   UNL     1       1.897   7.690  20.462  0.00  0.00    +0.000 N 
ATOM      4  H   UNL     1       1.999   7.423  21.437  0.00  0.00    +0.000 HD
ENDROOT
BRANCH   1   8
ATOM      5  C   UNL     1       1.328   3.364  18.929  0.00  0.00    +0.000 C 
ATOM      6  C   UNL     1       0.947   4.268  20.113  0.00  0.00    +0.000 C 
ATOM      7  C   UNL     1       2.168   4.853  20.820  0.00  0.00    +0.000 C 
ATOM      8  C   UNL     1       3.072   5.633  19.855  0.00  0.00    +0.000 C 
ATOM      9  C   UNL     1       3.442   4.781  18.631  0.00  0.00    +0.000 C 
ATOM     10  C   UNL     1       2.224   4.143  17.952  0.00  0.00    +0.000 C 
BRANCH   5  12
ATOM     11  C   UNL     1       3.118   1.599  18.409  0.00  0.00    +0.000 C 
ATOM     12  C   UNL     1       2.009   2.045  19.351  0.00  0.00    +0.000 C 
ENDBRANCH   5  12
ENDBRANCH   1   8
BRANCH   3  13
ATOM     13  C   UNL     1       1.228   8.929  20.157  0.00  0.00    +0.000 C 
BRANCH  13  14
ATOM     14  C   UNL     1       0.233   9.365  21.235  0.00  0.00    +0.000 C 
ATOM     15  O   UNL     1      -0.480   8.539  21.812  0.00  0.00    +0.000 OA
ATOM     16  N   UNL     1       0.171  10.739  21.495  0.00  0.00    +0.000 N 
ATOM     17  C   UNL     1       0.913  11.696  20.663  0.00  0.00    +0.000 C 
ATOM     18  C   UNL     1       0.844  13.181  20.994  0.00  0.00    +0.000 C 
ATOM     19  N   UNL     1      -0.084  13.499  22.035  0.00  0.00    +0.000 N 
ATOM     20  C   UNL     1      -0.319  14.742  22.553  0.00  0.00    +0.000 A 
ATOM     21  N   UNL     1      -1.216  14.690  23.508  0.00  0.00    +0.000 NA
ATOM     22  C   UNL     1      -1.564  13.365  23.605  0.00  0.00    +0.000 A 
ATOM     23  C   UNL     1      -0.871  12.604  22.689  0.00  0.00    +0.000 A 
ATOM     24  C   UNL     1      -0.905  11.164  22.384  0.00  0.00    +0.000 C 
ENDBRANCH  13  14
ENDBRANCH   3  13
TORSDOF 4
ENDMDL
MODEL 3
REMARK VINA RESULT:      -6.9      1.673      2.153
REMARK  Name = 
REMARK  5 active torsions:
REMARK  status: ('A' for Active; 'I' for Inactive)
REMARK    1  A    between atoms: C_1  and  C_2
REMARK    2  A    between atoms: C_2  and  C_3
REMARK    3  A    between atoms: C_6  and  C_7
REMARK    4  A    between atoms: N_9  and  C_10
REMARK    5  A    between atoms: C_10  and  C_11
REMARK                            x       y       z     vdW  Elec       q    Type
REMARK                         _______ _______ _______ _____ _____    ______ ____
ROOT
ATOM      1  C   UNL     1       5.111   5.048  18.903  0.00  0.00    +0.000 C 
ATOM      2  O   UNL     1       5.726   5.763  19.692  0.00  0.00    +0.000 OA
ATOM      3  N   UNL     1       3.743   5.099  18.811  0.00  0.00    +0.000 N 
ATOM      4  H   UNL     1       3.210   4.451  18.238  0.00  0.00    +0.000 HD
ENDROOT
BRANCH   1   8
ATOM      5  C   UNL     1       6.107   5.281  15.253  0.00  0.00    +0.000 C 
ATOM      6  C   UNL     1       4.745   4.813  15.789  0.00  0.00    +0.000 C 
ATOM      7  C   UNL     1       4.872   3.670  16.795  0.00  0.00    +0.000 C 
ATOM      8  C   UNL     1       5.782   4.040  17.974  0.00  0.00    +0.000 C 
ATOM      9  C   UNL     1       7.143   4.559  17.482  0.00  0.00    +0.000 C 
ATOM     10  C   UNL     1       7.020   5.667  16.428  0.00  0.00    +0.000 C 
BRANCH   5  12
ATOM     11  C   UNL     1       5.940   3.769  13.185  0.00  0.00    +0.000 C 
ATOM     12  C   UNL     1       6.804   4.247  14.345  0.00  0.00    +0.000 C 
ENDBRANCH   5  12
ENDBRANCH   1   8
BRANCH   3  13
ATOM     13  C   UNL     1       3.025   6.056  19.613  0.00  0.00    +0.000 C 
BRANCH  13  14
ATOM     14  C   UNL     1       2.603   7.307  18.838  0.00  0.00    +0.000 C 
ATOM     15  O   UNL     1       3.028   7.521  17.699  0.00  0.00    +0.000 OA
ATOM     16  N   UNL     1       1.742   8.184  19.508  0.00  0.00    +0.000 N 
ATOM     17  C   UNL     1       1.404   7.973  20.922  0.00  0.00    +0.000 C 
ATOM     18  C   UNL     1       0.442   8.932  21.609  0.00  0.00    +0.000 C 
ATOM     19  N   UNL     1       0.071  10.055  20.805  0.00  0.00    +0.000 N 
ATOM     20  C   UNL     1      -0.802  11.046  21.157  0.00  0.00    +0.000 A 
ATOM     21  N   UNL     1      -0.938  11.918  20.188  0.00  0.00    +0.000 NA
ATOM     22  C   UNL     1      -0.123  11.465  19.178  0.00  0.00    +0.000 A 
ATOM     23  C   UNL     1       0.519  10.304  19.546  0.00  0.00    +0.000 A 
ATOM     24  C   UNL     1       1.496   9.458  18.840  0.00  0.00    +0.000 C 
ENDBRANCH  13  14
ENDBRANCH   3  13
TORSDOF 4
ENDMDL
MODEL 4
REMARK VINA RESULT:      -6.8      7.047      8.399
REMARK  Name = 
REMARK  5 active torsions:
REMARK  status: ('A' for Active; 'I' for Inactive)
REMARK    1  A    between atoms: C_1  and  C_2
REMARK    2  A    between atoms: C_2  and  C_3
REMARK    3  A    between atoms: C_6  and  C_7
REMARK    4  A    between atoms: N_9  and  C_10
REMARK    5  A    between atoms: C_10  and  C_11
REMARK                            x       y       z     vdW  Elec       q    Type
REMARK                         _______ _______ _______ _____ _____    ______ ____
ROOT
ATOM      1  C   UNL     1       7.747   7.075  17.873  0.00  0.00    +0.000 C 
ATOM      2  O   UNL     1       8.237   6.660  18.922  0.00  0.00    +0.000 OA
ATOM      3  N   UNL     1       7.818   8.402  17.529  0.00  0.00    +0.000 N 
ATOM      4  H   UNL     1       7.338   8.782  16.718  0.00  0.00    +0.000 HD
ENDROOT
BRANCH   1   8
ATOM      5  C   UNL     1       4.570   5.031  18.187  0.00  0.00    +0.000 C 
ATOM      6  C   UNL     1       5.992   4.547  18.516  0.00  0.00    +0.000 C 
ATOM      7  C   UNL     1       6.958   4.730  17.347  0.00  0.00    +0.000 C 
ATOM      8  C   UNL     1       7.015   6.187  16.871  0.00  0.00    +0.000 C 
ATOM      9  C   UNL     1       5.608   6.730  16.574  0.00  0.00    +0.000 C 
ATOM     10  C   UNL     1       4.618   6.495  17.722  0.00  0.00    +0.000 C 
BRANCH   5  12
ATOM     11  C   UNL     1       2.409   3.818  17.521  0.00  0.00    +0.000 C 
ATOM     12  C   UNL     1       3.844   4.156  17.144  0.00  0.00    +0.000 C 
ENDBRANCH   5  12
ENDBRANCH   1   8
BRANCH   3  13
ATOM     13  C   UNL     1       8.534   9.309  18.389  0.00  0.00    +0.000 C 
BRANCH  13  14
ATOM     14  C   UNL     1       8.469  10.767  17.926  0.00  0.00    +0.000 C 
ATOM     15  O   UNL     1       7.577  11.151  17.164  0.00  0.00    +0.000 OA
ATOM     16  N   UNL     1       9.485  11.606  18.394  0.00  0.00    +0.000 N 
ATOM     17  C   UNL     1      10.619  11.064  19.155  0.00  0.00    +0.000 C 
ATOM     18  C   UNL     1      11.691  12.012  19.673  0.00  0.00    +0.000 C 
ATOM     19  N   UNL     1      11.538  13.361  19.221  0.00  0.00    +0.000 N 
ATOM     20  C   UNL     1      12.333  14.420  19.560  0.00  0.00    +0.000 A 
ATOM     21  N   UNL     1      11.912  15.523  18.992  0.00  0.00    +0.000 NA
ATOM     22  C   UNL     1      10.806  15.156  18.265  0.00  0.00    +0.000 A 
ATOM     23  C   UNL     1      10.558  13.806  18.392  0.00  0.00    +0.000 A 
ATOM     24  C   UNL     1       9.524  12.940  17.802  0.00  0.00    +0.000 C 
ENDBRANCH  13  14
ENDBRANCH   3  13
TORSDOF 4
ENDMDL
MODEL 5
REMARK VINA RESULT:      -6.7      1.575      1.859
REMARK  Name = 
REMARK  5 active torsions:
REMARK  status: ('A' for Active; 'I' for Inactive)
REMARK    1  A    between atoms: C_1  and  C_2
REMARK    2  A    between atoms: C_2  and  C_3
REMARK    3  A    between atoms: C_6  and  C_7
REMARK    4  A    between atoms: N_9  and  C_10
REMARK    5  A    between atoms: C_10  and  C_11
REMARK                            x       y       z     vdW  Elec       q    Type
REMARK                         _______ _______ _______ _____ _____    ______ ____
ROOT
ATOM      1  C   UNL     1       3.231   6.664  18.233  0.00  0.00    +0.000 C 
ATOM      2  O   UNL     1       2.285   5.984  18.627  0.00  0.00    +0.000 OA
ATOM      3  N   UNL     1       3.048   7.945  17.778  0.00  0.00    +0.000 N 
ATOM      4  H   UNL     1       3.797   8.488  17.359  0.00  0.00    +0.000 HD
ENDROOT
BRANCH   1   8
ATOM      5  C   UNL     1       5.126   4.663  15.630  0.00  0.00    +0.000 C 
ATOM      6  C   UNL     1       4.304   4.083  16.792  0.00  0.00    +0.000 C 
ATOM      7  C   UNL     1       4.739   4.634  18.149  0.00  0.00    +0.000 C 
ATOM      8  C   UNL     1       4.673   6.166  18.195  0.00  0.00    +0.000 C 
ATOM      9  C   UNL     1       5.445   6.790  17.021  0.00  0.00    +0.000 C 
ATOM     10  C   UNL     1       5.054   6.198  15.662  0.00  0.00    +0.000 C 
BRANCH   5  12
ATOM     11  C   UNL     1       7.429   4.822  14.508  0.00  0.00    +0.000 C 
ATOM     12  C   UNL     1       6.594   4.191  15.614  0.00  0.00    +0.000 C 
ENDBRANCH   5  12
ENDBRANCH   1   8
BRANCH   3  13
ATOM     13  C   UNL     1       1.728   8.521  17.822  0.00  0.00    +0.000 C 
BRANCH  13  14
ATOM     14  C   UNL     1       1.716   9.984  18.269  0.00  0.00    +0.000 C 
ATOM     15  O   UNL     1       2.313  10.850  17.623  0.00  0.00    +0.000 OA
ATOM     16  N   UNL     1       1.019  10.261  19.451  0.00  0.00    +0.000 N 
ATOM     17  C   UNL     1       0.474   9.173  20.275  0.00  0.00    +0.000 C 
ATOM     18  C   UNL     1      -0.303   9.514  21.539  0.00  0.00    +0.000 C 
ATOM     19  N   UNL     1      -0.293  10.906  21.867  0.00  0.00    +0.000 N 
ATOM     20  C   UNL     1      -0.937  11.490  22.922  0.00  0.00    +0.000 A 
ATOM     21  N   UNL     1      -0.743  12.786  22.931  0.00  0.00    +0.000 NA
ATOM     22  C   UNL     1       0.053  13.039  21.839  0.00  0.00    +0.000 A 
ATOM     23  C   UNL     1       0.348  11.875  21.164  0.00  0.00    +0.000 A 
ATOM     24  C   UNL     1       1.168  11.617  19.969  0.00  0.00    +0.000 C 
ENDBRANCH  13  14
ENDBRANCH   3  13
TORSDOF 4
ENDMDL
MODEL 6
REMARK VINA RESULT:      -6.7      1.112      1.198
REMARK  Name = 
REMARK  5 active torsions:
REMARK  status: ('A' for Active; 'I' for Inactive)
REMARK    1  A    between atoms: C_1  and  C_2
REMARK    2  A    between atoms: C_2  and  C_3
REMARK    3  A    between atoms: C_6  and  C_7
REMARK    4  A    between atoms: N_9  and  C_10
REMARK    5  A    between atoms: C_10  and  C_11
REMARK                            x       y       z     vdW  Elec       q    Type
REMARK                         _______ _______ _______ _____ _____    ______ ____
ROOT
ATOM      1  C   UNL     1       3.231   4.908  19.769  0.00  0.00    +0.000 C 
ATOM      2  O   UNL     1       2.249   4.356  20.261  0.00  0.00    +0.000 OA
ATOM      3  N   UNL     1       3.277   6.270  19.605  0.00  0.00    +0.000 N 
ATOM      4  H   UNL     1       4.035   6.736  19.114  0.00  0.00    +0.000 HD
ENDROOT
BRANCH   1   8
ATOM      5  C   UNL     1       4.735   4.510  16.312  0.00  0.00    +0.000 C 
ATOM      6  C   UNL     1       3.671   3.599  16.944  0.00  0.00    +0.000 C 
ATOM      7  C   UNL     1       4.105   3.043  18.299  0.00  0.00    +0.000 C 
ATOM      8  C   UNL     1       4.470   4.159  19.287  0.00  0.00    +0.000 C 
ATOM      9  C   UNL     1       5.501   5.124  18.679  0.00  0.00    +0.000 C 
ATOM     10  C   UNL     1       5.097   5.638  17.291  0.00  0.00    +0.000 C 
BRANCH   5  12
ATOM     11  C   UNL     1       6.600   4.286  14.563  0.00  0.00    +0.000 C 
ATOM     12  C   UNL     1       6.005   3.759  15.861  0.00  0.00    +0.000 C 
ENDBRANCH   5  12
ENDBRANCH   1   8
BRANCH   3  13
ATOM     13  C   UNL     1       2.174   7.068  20.076  0.00  0.00    +0.000 C 
BRANCH  13  14
ATOM     14  C   UNL     1       1.807   8.217  19.133  0.00  0.00    +0.000 C 
ATOM     15  O   UNL     1       2.255   8.262  17.984  0.00  0.00    +0.000 OA
ATOM     16  N   UNL     1       0.970   9.204  19.665  0.00  0.00    +0.000 N 
ATOM     17  C   UNL     1       0.606   9.196  21.088  0.00  0.00    +0.000 C 
ATOM     18  C   UNL     1      -0.331  10.270  21.624  0.00  0.00    +0.000 C 
ATOM     19  N   UNL     1      -0.650  11.287  20.671  0.00  0.00    +0.000 N 
ATOM     20  C   UNL     1      -1.492  12.345  20.872  0.00  0.00    +0.000 A 
ATOM     21  N   UNL     1      -1.585  13.083  19.793  0.00  0.00    +0.000 NA
ATOM     22  C   UNL     1      -0.773  12.473  18.867  0.00  0.00    +0.000 A 
ATOM     23  C   UNL     1      -0.177  11.350  19.398  0.00  0.00    +0.000 A 
ATOM     24  C   UNL     1       0.777  10.385  18.829  0.00  0.00    +0.000 C 
ENDBRANCH  13  14
ENDBRANCH   3  13
TORSDOF 4
ENDMDL
MODEL 7
REMARK VINA RESULT:      -6.6      0.924      1.037
REMARK  Name = 
REMARK  5 active torsions:
REMARK  status: ('A' for Active; 'I' for Inactive)
REMARK    1  A    between atoms: C_1  and  C_2
REMARK    2  A    between atoms: C_2  and  C_3
REMARK    3  A    between atoms: C_6  and  C_7
REMARK    4  A    between atoms: N_9  and  C_10
REMARK    5  A    between atoms: C_10  and  C_11
REMARK                            x       y       z     vdW  Elec       q    Type
REMARK                         _______ _______ _______ _____ _____    ______ ____
ROOT
ATOM      1  C   UNL     1       3.406   5.944  18.728  0.00  0.00    +0.000 C 
ATOM      2  O   UNL     1       2.470   5.556  18.032  0.00  0.00    +0.000 OA
ATOM      3  N   UNL     1       3.202   6.783  19.795  0.00  0.00    +0.000 N 
ATOM      4  H   UNL     1       3.968   7.192  20.323  0.00  0.00    +0.000 HD
ENDROOT
BRANCH   1   8
ATOM      5  C   UNL     1       5.235   4.944  15.562  0.00  0.00    +0.000 C 
ATOM      6  C   UNL     1       4.496   3.993  16.516  0.00  0.00    +0.000 C 
ATOM      7  C   UNL     1       4.979   4.118  17.960  0.00  0.00    +0.000 C 
ATOM      8  C   UNL     1       4.861   5.555  18.483  0.00  0.00    +0.000 C 
ATOM      9  C   UNL     1       5.549   6.550  17.534  0.00  0.00    +0.000 C 
ATOM     10  C   UNL     1       5.110   6.388  16.074  0.00  0.00    +0.000 C 
BRANCH   5  12
ATOM     11  C   UNL     1       7.193   4.766  13.912  0.00  0.00    +0.000 C 
ATOM     12  C   UNL     1       6.718   4.575  15.345  0.00  0.00    +0.000 C 
ENDBRANCH   5  12
ENDBRANCH   1   8
BRANCH   3  13
ATOM     13  C   UNL     1       1.855   7.165  20.135  0.00  0.00    +0.000 C 
BRANCH  13  14
ATOM     14  C   UNL     1       1.492   8.583  19.688  0.00  0.00    +0.000 C 
ATOM     15  O   UNL     1       1.843   9.009  18.584  0.00  0.00    +0.000 OA
ATOM     16  N   UNL     1       0.774   9.353  20.609  0.00  0.00    +0.000 N 
ATOM     17  C   UNL     1       0.531   8.863  21.973  0.00  0.00    +0.000 C 
ATOM     18  C   UNL     1      -0.278   9.717  22.939  0.00  0.00    +0.000 C 
ATOM     19  N   UNL     1      -0.604  11.014  22.431  0.00  0.00    +0.000 N 
ATOM     20  C   UNL     1      -1.350  11.966  23.069  0.00  0.00    +0.000 A 
ATOM     21  N   UNL     1      -1.481  13.037  22.324  0.00  0.00    +0.000 NA
ATOM     22  C   UNL     1      -0.795  12.757  21.166  0.00  0.00    +0.000 A 
ATOM     23  C   UNL     1      -0.237  11.498  21.215  0.00  0.00    +0.000 A 
ATOM     24  C   UNL     1       0.596  10.757  20.254  0.00  0.00    +0.000 C 
ENDBRANCH  13  14
ENDBRANCH   3  13
TORSDOF 4
ENDMDL
MODEL 8
REMARK VINA RESULT:      -6.6      3.319      8.624
REMARK  Name = 
REMARK  5 active torsions:
REMARK  status: ('A' for Active; 'I' for Inactive)
REMARK    1  A    between atoms: C_1  and  C_2
REMARK    2  A    between atoms: C_2  and  C_3
REMARK    3  A    between atoms: C_6  and  C_7
REMARK    4  A    between atoms: N_9  and  C_10
REMARK    5  A    between atoms: C_10  and  C_11
REMARK                            x       y       z     vdW  Elec       q    Type
REMARK                         _______ _______ _______ _____ _____    ______ ____
ROOT
ATOM      1  C   UNL     1      -0.472  10.352  18.601  0.00  0.00    +0.000 C 
ATOM      2  O   UNL     1      -0.809  10.243  19.778  0.00  0.00    +0.000 OA
ATOM      3  N   UNL     1       0.687   9.785  18.134  0.00  0.00    +0.000 N 
ATOM      4  H   UNL     1       1.033   9.944  17.192  0.00  0.00    +0.000 HD
ENDROOT
BRANCH   1   8
ATOM      5  C   UNL     1      -4.210  10.767  18.124  0.00  0.00    +0.000 C 
ATOM      6  C   UNL     1      -3.343   9.646  17.530  0.00  0.00    +0.000 C 
ATOM      7  C   UNL     1      -2.161  10.183  16.725  0.00  0.00    +0.000 C 
ATOM      8  C   UNL     1      -1.278  11.121  17.557  0.00  0.00    +0.000 C 
ATOM      9  C   UNL     1      -2.112  12.235  18.210  0.00  0.00    +0.000 C 
ATOM     10  C   UNL     1      -3.333  11.704  18.970  0.00  0.00    +0.000 C 
BRANCH   5  12
ATOM     11  C   UNL     1      -5.979  12.568  17.659  0.00  0.00    +0.000 C 
ATOM     12  C   UNL     1      -4.994  11.571  17.066  0.00  0.00    +0.000 C 
ENDBRANCH   5  12
ENDBRANCH   1   8
BRANCH   3  13
ATOM     13  C   UNL     1       1.490   8.996  19.035  0.00  0.00    +0.000 C 
BRANCH  13  14
ATOM     14  C   UNL     1       2.418   8.012  18.319  0.00  0.00    +0.000 C 
ATOM     15  O   UNL     1       2.950   8.307  17.245  0.00  0.00    +0.000 OA
ATOM     16  N   UNL     1       2.594   6.771  18.941  0.00  0.00    +0.000 N 
ATOM     17  C   UNL     1       1.805   6.403  20.125  0.00  0.00    +0.000 C 
ATOM     18  C   UNL     1       2.045   5.056  20.791  0.00  0.00    +0.000 C 
ATOM     19  N   UNL     1       2.950   4.209  20.077  0.00  0.00    +0.000 N 
ATOM     20  C   UNL     1       3.369   2.968  20.465  0.00  0.00    +0.000 A 
ATOM     21  N   UNL     1       4.213   2.465  19.597  0.00  0.00    +0.000 NA
ATOM     22  C   UNL     1       4.339   3.423  18.620  0.00  0.00    +0.000 A 
ATOM     23  C   UNL     1       3.554   4.519  18.900  0.00  0.00    +0.000 A 
ATOM     24  C   UNL     1       3.325   5.774  18.165  0.00  0.00    +0.000 C 
ENDBRANCH  13  14
ENDBRANCH   3  13
TORSDOF 4
ENDMDL
MODEL 9
REMARK VINA RESULT:      -6.6      1.846      2.385
REMARK  Name = 
REMARK  5 active torsions:
REMARK  status: ('A' for Active; 'I' for Inactive)
REMARK    1  A    between atoms: C_1  and  C_2
REMARK    2  A    between atoms: C_2  and  C_3
REMARK    3  A    between atoms: C_6  and  C_7
REMARK    4  A    between atoms: N_9  and  C_10
REMARK    5  A    between atoms: C_10  and  C_11
REMARK                            x       y       z     vdW  Elec       q    Type
REMARK                         _______ _______ _______ _____ _____    ______ ____
ROOT
ATOM      1  C   UNL     1       4.737   6.630  17.789  0.00  0.00    +0.000 C 
ATOM      2  O   UNL     1       4.813   5.930  18.797  0.00  0.00    +0.000 OA
ATOM      3  N   UNL     1       3.643   7.423  17.551  0.00  0.00    +0.000 N 
ATOM      4  H   UNL     1       3.517   7.933  16.681  0.00  0.00    +0.000 HD
ENDROOT
BRANCH   1   8
ATOM      5  C   UNL     1       5.936   4.028  15.307  0.00  0.00    +0.000 C 
ATOM      6  C   UNL     1       6.474   4.231  16.732  0.00  0.00    +0.000 C 
ATOM      7  C   UNL     1       6.934   5.666  16.985  0.00  0.00    +0.000 C 
ATOM      8  C   UNL     1       5.818   6.684  16.713  0.00  0.00    +0.000 C 
ATOM      9  C   UNL     1       5.217   6.487  15.312  0.00  0.00    +0.000 C 
ATOM     10  C   UNL     1       4.808   5.035  15.032  0.00  0.00    +0.000 C 
BRANCH   5  12
ATOM     11  C   UNL     1       6.512   3.808  12.815  0.00  0.00    +0.000 C 
ATOM     12  C   UNL     1       7.022   4.121  14.215  0.00  0.00    +0.000 C 
ENDBRANCH   5  12
ENDBRANCH   1   8
BRANCH   3  13
ATOM     13  C   UNL     1       2.592   7.477  18.536  0.00  0.00    +0.000 C 
BRANCH  13  14
ATOM     14  C   UNL     1       1.798   8.786  18.507  0.00  0.00    +0.000 C 
ATOM     15  O   UNL     1       1.761   9.483  17.489  0.00  0.00    +0.000 OA
ATOM     16  N   UNL     1       1.155   9.140  19.698  0.00  0.00    +0.000 N 
ATOM     17  C   UNL     1       1.372   8.368  20.929  0.00  0.00    +0.000 C 
ATOM     18  C   UNL     1       0.633   8.767  22.199  0.00  0.00    +0.000 C 
ATOM     19  N   UNL     1      -0.112   9.982  22.078  0.00  0.00    +0.000 N 
ATOM     20  C   UNL     1      -0.892  10.549  23.046  0.00  0.00    +0.000 A 
ATOM     21  N   UNL     1      -1.455  11.650  22.610  0.00  0.00    +0.000 NA
ATOM     22  C   UNL     1      -1.019  11.790  21.315  0.00  0.00    +0.000 A 
ATOM     23  C   UNL     1      -0.175  10.758  20.965  0.00  0.00    +0.000 A 
ATOM     24  C   UNL     1       0.560  10.472  19.721  0.00  0.00    +0.000 C 
ENDBRANCH  13  14
ENDBRANCH   3  13
TORSDOF 4
ENDMDL
