MODEL 1
REMARK VINA RESULT:      -7.5      0.000      0.000
REMARK  Name = 
REMARK  4 active torsions:
REMARK  status: ('A' for Active; 'I' for Inactive)
REMARK    1  A    between atoms: C_1  and  N_2
REMARK    2  A    between atoms: N_2  and  C_20
REMARK    3  A    between atoms: C_10  and  C_11
REMARK    4  A    between atoms: C_11  and  C_12
REMARK                            x       y       z     vdW  Elec       q    Type
REMARK                         _______ _______ _______ _____ _____    ______ ____
ROOT
ATOM      1  C   UNL     1       1.209   8.271  20.356  0.00  0.00    +0.000 C 
ATOM      2  N   UNL     1       1.713   8.390  18.994  0.00  0.00    +0.000 N 
ATOM      3  C   UNL     1       2.663   7.450  18.624  0.00  0.00    +0.000 A 
ATOM      4  N   UNL     1       2.497   6.179  19.031  0.00  0.00    +0.000 NA
ATOM      5  C   UNL     1       3.212   5.155  18.484  0.00  0.00    +0.000 A 
ATOM      6  N   UNL     1       3.031   3.894  19.037  0.00  0.00    +0.000 N 
ATOM      7  C   UNL     1       4.054   2.856  18.986  0.00  0.00    +0.000 C 
ATOM      8  C   UNL     1       3.374   1.711  18.255  0.00  0.00    +0.000 C 
ATOM      9  C   UNL     1       1.949   1.794  18.776  0.00  0.00    +0.000 C 
ATOM     10  C   UNL     1       1.678   3.307  18.901  0.00  0.00    +0.000 C 
ATOM     11  C   UNL     1       4.017   5.480  17.383  0.00  0.00    +0.000 A 
ATOM     12  S   UNL     1       4.809   4.505  16.200  0.00  0.00    +0.000 S 
ATOM     13  C   UNL     1       5.478   5.849  15.402  0.00  0.00    +0.000 A 
ATOM     14  C   UNL     1       5.108   7.028  16.002  0.00  0.00    +0.000 A 
ATOM     15  C   UNL     1       4.224   6.824  17.101  0.00  0.00    +0.000 A 
ATOM     16  N   UNL     1       3.617   7.815  17.778  0.00  0.00    +0.000 NA
ENDROOT
BRANCH   2  17
ATOM     17  C   UNL     1       1.519   9.659  18.248  0.00  0.00    +0.000 C 
ATOM     18  C   UNL     1       1.865  10.882  19.134  0.00  0.00    +0.000 C 
ATOM     19  C   UNL     1       0.850  11.054  20.268  0.00  0.00    +0.000 C 
ATOM     20  N   UNL     1      -0.528  11.189  19.787  0.00  0.00    +0.000 NA
ATOM     21  C   UNL     1      -0.893  10.062  18.922  0.00  0.00    +0.000 C 
ATOM     22  C   UNL     1       0.080   9.931  17.756  0.00  0.00    +0.000 C 
ATOM     23  H   UNL     1      -0.607  12.054  19.256  0.00  0.00    +0.000 HD
ENDBRANCH   2  17
BRANCH  10  24
ATOM     24  C   UNL     1       0.854   3.638  20.134  0.00  0.00    +0.000 C 
BRANCH  24  25
ATOM     25  C   UNL     1       1.261   2.891  21.392  0.00  0.00    +0.000 C 
ATOM     26  N   UNL     1       1.600   2.271  22.437  0.00  0.00    +0.000 NA
ENDBRANCH  24  25
ENDBRANCH  10  24
TORSDOF 3
ENDMDL
MODEL 2
REMARK VINA RESULT:      -6.9      5.500      8.390
REMARK  Name = 
REMARK  4 active torsions:
REMARK  status: ('A' for Active; 'I' for Inactive)
REMARK    1  A    between atoms: C_1  and  N_2
REMARK    2  A    between atoms: N_2  and  C_20
REMARK    3  A    between atoms: C_10  and  C_11
REMARK    4  A    between atoms: C_11  and  C_12
REMARK                            x       y       z     vdW  Elec       q    Type
REMARK                         _______ _______ _______ _____ _____    ______ ____
ROOT
ATOM      1  C   UNL     1      -4.749  13.465  21.112  0.00  0.00    +0.000 C 
ATOM      2  N   UNL     1      -5.228  12.651  20.003  0.00  0.00    +0.000 N 
ATOM      3  C   UNL     1      -4.270  12.288  19.069  0.00  0.00    +0.000 A 
ATOM      4  N   UNL     1      -3.049  11.934  19.511  0.00  0.00    +0.000 NA
ATOM      5  C   UNL     1      -2.153  11.298  18.704  0.00  0.00    +0.000 A 
ATOM      6  N   UNL     1      -0.890  11.060  19.229  0.00  0.00    +0.000 N 
ATOM      7  C   UNL     1       0.298  10.928  18.394  0.00  0.00    +0.000 C 
ATOM      8  C   UNL     1       0.821   9.539  18.721  0.00  0.00    +0.000 C 
ATOM      9  C   UNL     1       0.530   9.425  20.208  0.00  0.00    +0.000 C 
ATOM     10  C   UNL     1      -0.825  10.138  20.386  0.00  0.00    +0.000 C 
ATOM     11  C   UNL     1      -2.625  10.908  17.442  0.00  0.00    +0.000 A 
ATOM     12  S   UNL     1      -1.994   9.826  16.254  0.00  0.00    +0.000 S 
ATOM     13  C   UNL     1      -3.281  10.105  15.179  0.00  0.00    +0.000 A 
ATOM     14  C   UNL     1      -4.191  10.993  15.700  0.00  0.00    +0.000 A 
ATOM     15  C   UNL     1      -3.849  11.409  17.020  0.00  0.00    +0.000 A 
ATOM     16  N   UNL     1      -4.634  12.174  17.799  0.00  0.00    +0.000 NA
ENDROOT
BRANCH   2  17
ATOM     17  C   UNL     1      -6.683  12.594  19.709  0.00  0.00    +0.000 C 
ATOM     18  C   UNL     1      -7.516  12.994  20.953  0.00  0.00    +0.000 C 
ATOM     19  C   UNL     1      -7.402  11.943  22.062  0.00  0.00    +0.000 C 
ATOM     20  N   UNL     1      -7.810  10.604  21.625  0.00  0.00    +0.000 NA
ATOM     21  C   UNL     1      -7.062  10.193  20.432  0.00  0.00    +0.000 C 
ATOM     22  C   UNL     1      -7.228  11.206  19.307  0.00  0.00    +0.000 C 
ATOM     23  H   UNL     1      -8.803  10.619  21.405  0.00  0.00    +0.000 HD
ENDBRANCH   2  17
BRANCH  10  24
ATOM     24  C   UNL     1      -0.883  10.939  21.676  0.00  0.00    +0.000 C 
BRANCH  24  25
ATOM     25  C   UNL     1      -0.289  10.239  22.887  0.00  0.00    +0.000 C 
ATOM     26  N   UNL     1       0.204   9.659  23.892  0.00  0.00    +0.000 NA
ENDBRANCH  24  25
ENDBRANCH  10  24
TORSDOF 3
ENDMDL
MODEL 3
REMARK VINA RESULT:      -6.9      6.283      9.133
REMARK  Name = 
REMARK  4 active torsions:
REMARK  status: ('A' for Active; 'I' for Inactive)
REMARK    1  A    between atoms: C_1  and  N_2
REMARK    2  A    between atoms: N_2  and  C_20
REMARK    3  A    between atoms: C_10  and  C_11
REMARK    4  A    between atoms: C_11  and  C_12
REMARK                            x       y       z     vdW  Elec       q    Type
REMARK                         _______ _______ _______ _____ _____    ______ ____
ROOT
ATOM      1  C   UNL     1      -5.212  14.039  21.350  0.00  0.00    +0.000 C 
ATOM      2  N   UNL     1      -5.561  13.052  20.337  0.00  0.00    +0.000 N 
ATOM      3  C   UNL     1      -4.523  12.654  19.508  0.00  0.00    +0.000 A 
ATOM      4  N   UNL     1      -3.307  12.464  20.053  0.00  0.00    +0.000 NA
ATOM      5  C   UNL     1      -2.319  11.807  19.383  0.00  0.00    +0.000 A 
ATOM      6  N   UNL     1      -1.075  11.744  19.997  0.00  0.00    +0.000 N 
ATOM      7  C   UNL     1       0.168  11.606  19.247  0.00  0.00    +0.000 C 
ATOM      8  C   UNL     1       0.775  10.319  19.781  0.00  0.00    +0.000 C 
ATOM      9  C   UNL     1       0.405  10.373  21.254  0.00  0.00    +0.000 C 
ATOM     10  C   UNL     1      -1.009  10.987  21.268  0.00  0.00    +0.000 C 
ATOM     11  C   UNL     1      -2.683  11.219  18.163  0.00  0.00    +0.000 A 
ATOM     12  S   UNL     1      -1.900  10.051  17.162  0.00  0.00    +0.000 S 
ATOM     13  C   UNL     1      -3.138  10.081  15.996  0.00  0.00    +0.000 A 
ATOM     14  C   UNL     1      -4.143  10.948  16.349  0.00  0.00    +0.000 A 
ATOM     15  C   UNL     1      -3.914  11.558  17.617  0.00  0.00    +0.000 A 
ATOM     16  N   UNL     1      -4.801  12.348  18.248  0.00  0.00    +0.000 NA
ENDROOT
BRANCH   2  17
ATOM     17  C   UNL     1      -6.987  12.837  19.982  0.00  0.00    +0.000 C 
ATOM     18  C   UNL     1      -7.902  13.039  21.215  0.00  0.00    +0.000 C 
ATOM     19  C   UNL     1      -7.691  11.934  22.254  0.00  0.00    +0.000 C 
ATOM     20  N   UNL     1      -7.912  10.590  21.712  0.00  0.00    +0.000 NA
ATOM     21  C   UNL     1      -7.081  10.361  20.526  0.00  0.00    +0.000 C 
ATOM     22  C   UNL     1      -7.339  11.424  19.465  0.00  0.00    +0.000 C 
ATOM     23  H   UNL     1      -8.892  10.497  21.454  0.00  0.00    +0.000 HD
ENDBRANCH   2  17
BRANCH  10  24
ATOM     24  C   UNL     1      -1.206  11.939  22.436  0.00  0.00    +0.000 C 
BRANCH  24  25
ATOM     25  C   UNL     1      -0.491  13.273  22.299  0.00  0.00    +0.000 C 
ATOM     26  N   UNL     1       0.102  14.380  22.185  0.00  0.00    +0.000 NA
ENDBRANCH  24  25
ENDBRANCH  10  24
TORSDOF 3
ENDMDL
MODEL 4
REMARK VINA RESULT:      -6.5      6.407      9.795
REMARK  Name = 
REMARK  4 active torsions:
REMARK  status: ('A' for Active; 'I' for Inactive)
REMARK    1  A    between atoms: C_1  and  N_2
REMARK    2  A    between atoms: N_2  and  C_20
REMARK    3  A    between atoms: C_10  and  C_11
REMARK    4  A    between atoms: C_11  and  C_12
REMARK                            x       y       z     vdW  Elec       q    Type
REMARK                         _______ _______ _______ _____ _____    ______ ____
ROOT
ATOM      1  C   UNL     1      -2.395  15.246  22.052  0.00  0.00    +0.000 C 
ATOM      2  N   UNL     1      -3.683  14.565  22.052  0.00  0.00    +0.000 N 
ATOM      3  C   UNL     1      -4.027  13.936  20.865  0.00  0.00    +0.000 A 
ATOM      4  N   UNL     1      -3.067  13.278  20.189  0.00  0.00    +0.000 NA
ATOM      5  C   UNL     1      -3.370  12.407  19.186  0.00  0.00    +0.000 A 
ATOM      6  N   UNL     1      -2.303  11.850  18.491  0.00  0.00    +0.000 N 
ATOM      7  C   UNL     1      -2.416  11.385  17.114  0.00  0.00    +0.000 C 
ATOM      8  C   UNL     1      -2.041   9.914  17.195  0.00  0.00    +0.000 C 
ATOM      9  C   UNL     1      -0.942   9.917  18.245  0.00  0.00    +0.000 C 
ATOM     10  C   UNL     1      -1.401  10.972  19.271  0.00  0.00    +0.000 C 
ATOM     11  C   UNL     1      -4.730  12.128  18.997  0.00  0.00    +0.000 A 
ATOM     12  S   UNL     1      -5.547  10.889  18.114  0.00  0.00    +0.000 S 
ATOM     13  C   UNL     1      -7.087  11.479  18.527  0.00  0.00    +0.000 A 
ATOM     14  C   UNL     1      -7.004  12.590  19.330  0.00  0.00    +0.000 A 
ATOM     15  C   UNL     1      -5.657  12.930  19.650  0.00  0.00    +0.000 A 
ATOM     16  N   UNL     1      -5.306  13.896  20.518  0.00  0.00    +0.000 NA
ENDROOT
BRANCH   2  17
ATOM     17  C   UNL     1      -4.687  14.894  23.095  0.00  0.00    +0.000 C 
ATOM     18  C   UNL     1      -4.014  15.550  24.326  0.00  0.00    +0.000 C 
ATOM     19  C   UNL     1      -3.131  14.549  25.079  0.00  0.00    +0.000 C 
ATOM     20  N   UNL     1      -3.863  13.357  25.515  0.00  0.00    +0.000 NA
ATOM     21  C   UNL     1      -4.538  12.714  24.383  0.00  0.00    +0.000 C 
ATOM     22  C   UNL     1      -5.466  13.692  23.674  0.00  0.00    +0.000 C 
ATOM     23  H   UNL     1      -4.559  13.632  26.204  0.00  0.00    +0.000 HD
ENDBRANCH   2  17
BRANCH  10  24
ATOM     24  C   UNL     1      -0.238  11.788  19.809  0.00  0.00    +0.000 C 
BRANCH  24  25
ATOM     25  C   UNL     1       0.583  11.097  20.884  0.00  0.00    +0.000 C 
ATOM     26  N   UNL     1       1.265  10.523  21.776  0.00  0.00    +0.000 NA
ENDBRANCH  24  25
ENDBRANCH  10  24
TORSDOF 3
ENDMDL
MODEL 5
REMARK VINA RESULT:      -6.4      5.938     10.414
REMARK  Name = 
REMARK  4 active torsions:
REMARK  status: ('A' for Active; 'I' for Inactive)
REMARK    1  A    between atoms: C_1  and  N_2
REMARK    2  A    between atoms: N_2  and  C_20
REMARK    3  A    between atoms: C_10  and  C_11
REMARK    4  A    between atoms: C_11  and  C_12
REMARK                            x       y       z     vdW  Elec       q    Type
REMARK                         _______ _______ _______ _____ _____    ______ ____
ROOT
ATOM      1  C   UNL     1      -1.209  12.456  18.148  0.00  0.00    +0.000 C 
ATOM      2  N   UNL     1      -1.008  12.356  19.587  0.00  0.00    +0.000 N 
ATOM      3  C   UNL     1      -2.035  12.858  20.371  0.00  0.00    +0.000 A 
ATOM      4  N   UNL     1      -3.304  12.630  19.985  0.00  0.00    +0.000 NA
ATOM      5  C   UNL     1      -4.355  12.832  20.829  0.00  0.00    +0.000 A 
ATOM      6  N   UNL     1      -5.629  12.655  20.304  0.00  0.00    +0.000 N 
ATOM      7  C   UNL     1      -6.803  13.335  20.837  0.00  0.00    +0.000 C 
ATOM      8  C   UNL     1      -7.726  12.200  21.247  0.00  0.00    +0.000 C 
ATOM      9  C   UNL     1      -7.479  11.171  20.156  0.00  0.00    +0.000 C 
ATOM     10  C   UNL     1      -5.970  11.282  19.864  0.00  0.00    +0.000 C 
ATOM     11  C   UNL     1      -4.032  13.150  22.156  0.00  0.00    +0.000 A 
ATOM     12  S   UNL     1      -4.970  13.165  23.604  0.00  0.00    +0.000 S 
ATOM     13  C   UNL     1      -3.663  13.689  24.558  0.00  0.00    +0.000 A 
ATOM     14  C   UNL     1      -2.523  13.846  23.809  0.00  0.00    +0.000 A 
ATOM     15  C   UNL     1      -2.714  13.481  22.444  0.00  0.00    +0.000 A 
ATOM     16  N   UNL     1      -1.728  13.422  21.531  0.00  0.00    +0.000 NA
ENDROOT
BRANCH   2  17
ATOM     17  C   UNL     1       0.357  12.123  20.123  0.00  0.00    +0.000 C 
ATOM     18  C   UNL     1       1.318  11.644  19.006  0.00  0.00    +0.000 C 
ATOM     19  C   UNL     1       0.951  10.237  18.521  0.00  0.00    +0.000 C 
ATOM     20  N   UNL     1       0.943   9.245  19.600  0.00  0.00    +0.000 NA
ATOM     21  C   UNL     1       0.063   9.669  20.693  0.00  0.00    +0.000 C 
ATOM     22  C   UNL     1       0.467  11.040  21.220  0.00  0.00    +0.000 C 
ATOM     23  H   UNL     1       1.890   9.139  19.957  0.00  0.00    +0.000 HD
ENDBRANCH   2  17
BRANCH  10  24
ATOM     24  C   UNL     1      -5.663  11.133  18.383  0.00  0.00    +0.000 C 
BRANCH  24  25
ATOM     25  C   UNL     1      -6.142  12.283  17.514  0.00  0.00    +0.000 C 
ATOM     26  N   UNL     1      -6.540  13.238  16.793  0.00  0.00    +0.000 NA
ENDBRANCH  24  25
ENDBRANCH  10  24
TORSDOF 3
ENDMDL
MODEL 6
REMARK VINA RESULT:      -6.4      7.827      9.862
REMARK  Name = 
REMARK  4 active torsions:
REMARK  status: ('A' for Active; 'I' for Inactive)
REMARK    1  A    between atoms: C_1  and  N_2
REMARK    2  A    between atoms: N_2  and  C_20
REMARK    3  A    between atoms: C_10  and  C_11
REMARK    4  A    between atoms: C_11  and  C_12
REMARK                            x       y       z     vdW  Elec       q    Type
REMARK                         _______ _______ _______ _____ _____    ______ ____
ROOT
ATOM      1  C   UNL     1      -0.456  12.595  22.037  0.00  0.00    +0.000 C 
ATOM      2  N   UNL     1      -0.579  12.634  20.586  0.00  0.00    +0.000 N 
ATOM      3  C   UNL     1      -1.779  12.164  20.074  0.00  0.00    +0.000 A 
ATOM      4  N   UNL     1      -2.916  12.477  20.722  0.00  0.00    +0.000 NA
ATOM      5  C   UNL     1      -4.138  12.305  20.143  0.00  0.00    +0.000 A 
ATOM      6  N   UNL     1      -5.252  12.573  20.929  0.00  0.00    +0.000 N 
ATOM      7  C   UNL     1      -6.546  11.941  20.703  0.00  0.00    +0.000 C 
ATOM      8  C   UNL     1      -7.483  13.112  20.457  0.00  0.00    +0.000 C 
ATOM      9  C   UNL     1      -6.949  14.163  21.417  0.00  0.00    +0.000 C 
ATOM     10  C   UNL     1      -5.420  13.976  21.370  0.00  0.00    +0.000 C 
ATOM     11  C   UNL     1      -4.136  11.924  18.794  0.00  0.00    +0.000 A 
ATOM     12  S   UNL     1      -5.376  11.912  17.592  0.00  0.00    +0.000 S 
ATOM     13  C   UNL     1      -4.343  11.282  16.398  0.00  0.00    +0.000 A 
ATOM     14  C   UNL     1      -3.072  11.088  16.880  0.00  0.00    +0.000 A 
ATOM     15  C   UNL     1      -2.935  11.509  18.235  0.00  0.00    +0.000 A 
ATOM     16  N   UNL     1      -1.767  11.544  18.902  0.00  0.00    +0.000 NA
ENDROOT
BRANCH   2  17
ATOM     17  C   UNL     1       0.640  12.771  19.750  0.00  0.00    +0.000 C 
ATOM     18  C   UNL     1       1.832  13.297  20.588  0.00  0.00    +0.000 C 
ATOM     19  C   UNL     1       1.611  14.751  21.020  0.00  0.00    +0.000 C 
ATOM     20  N   UNL     1       1.388  15.656  19.889  0.00  0.00    +0.000 NA
ATOM     21  C   UNL     1       0.281  15.183  19.052  0.00  0.00    +0.000 C 
ATOM     22  C   UNL     1       0.531  13.760  18.568  0.00  0.00    +0.000 C 
ATOM     23  H   UNL     1       2.235  15.696  19.328  0.00  0.00    +0.000 HD
ENDBRANCH   2  17
BRANCH  10  24
ATOM     24  C   UNL     1      -4.781  14.159  22.737  0.00  0.00    +0.000 C 
BRANCH  24  25
ATOM     25  C   UNL     1      -5.075  13.048  23.731  0.00  0.00    +0.000 C 
ATOM     26  N   UNL     1      -5.318  12.126  24.556  0.00  0.00    +0.000 NA
ENDBRANCH  24  25
ENDBRANCH  10  24
TORSDOF 3
ENDMDL
MODEL 7
REMARK VINA RESULT:      -6.4      3.070      7.801
REMARK  Name = 
REMARK  4 active torsions:
REMARK  status: ('A' for Active; 'I' for Inactive)
REMARK    1  A    between atoms: C_1  and  N_2
REMARK    2  A    between atoms: N_2  and  C_20
REMARK    3  A    between atoms: C_10  and  C_11
REMARK    4  A    between atoms: C_11  and  C_12
REMARK                            x       y       z     vdW  Elec       q    Type
REMARK                         _______ _______ _______ _____ _____    ______ ____
ROOT
ATOM      1  C   UNL     1       2.447   7.789  17.539  0.00  0.00    +0.000 C 
ATOM      2  N   UNL     1       2.105   7.481  18.921  0.00  0.00    +0.000 N 
ATOM      3  C   UNL     1       1.507   8.509  19.634  0.00  0.00    +0.000 A 
ATOM      4  N   UNL     1       0.593   9.273  19.008  0.00  0.00    +0.000 NA
ATOM      5  C   UNL     1      -0.238  10.103  19.699  0.00  0.00    +0.000 A 
ATOM      6  N   UNL     1      -1.083  10.915  18.952  0.00  0.00    +0.000 N 
ATOM      7  C   UNL     1      -1.591  12.189  19.446  0.00  0.00    +0.000 C 
ATOM      8  C   UNL     1      -3.100  12.017  19.409  0.00  0.00    +0.000 C 
ATOM      9  C   UNL     1      -3.302  11.192  18.149  0.00  0.00    +0.000 C 
ATOM     10  C   UNL     1      -2.105  10.220  18.136  0.00  0.00    +0.000 C 
ATOM     11  C   UNL     1      -0.185  10.009  21.097  0.00  0.00    +0.000 A 
ATOM     12  S   UNL     1      -1.237  10.588  22.337  0.00  0.00    +0.000 S 
ATOM     13  C   UNL     1      -0.263   9.968  23.585  0.00  0.00    +0.000 A 
ATOM     14  C   UNL     1       0.842   9.320  23.088  0.00  0.00    +0.000 A 
ATOM     15  C   UNL     1       0.859   9.290  21.663  0.00  0.00    +0.000 A 
ATOM     16  N   UNL     1       1.761   8.611  20.931  0.00  0.00    +0.000 NA
ENDROOT
BRANCH   2  17
ATOM     17  C   UNL     1       2.736   6.315  19.591  0.00  0.00    +0.000 C 
ATOM     18  C   UNL     1       4.029   5.885  18.854  0.00  0.00    +0.000 C 
ATOM     19  C   UNL     1       3.716   5.294  17.476  0.00  0.00    +0.000 C 
ATOM     20  N   UNL     1       2.801   4.151  17.538  0.00  0.00    +0.000 NA
ATOM     21  C   UNL     1       1.569   4.506  18.250  0.00  0.00    +0.000 C 
ATOM     22  C   UNL     1       1.876   5.032  19.646  0.00  0.00    +0.000 C 
ATOM     23  H   UNL     1       3.261   3.388  18.030  0.00  0.00    +0.000 HD
ENDBRANCH   2  17
BRANCH  10  24
ATOM     24  C   UNL     1      -1.568   9.996  16.732  0.00  0.00    +0.000 C 
BRANCH  24  25
ATOM     25  C   UNL     1      -2.590  10.174  15.623  0.00  0.00    +0.000 C 
ATOM     26  N   UNL     1      -3.440  10.321  14.702  0.00  0.00    +0.000 NA
ENDBRANCH  24  25
ENDBRANCH  10  24
TORSDOF 3
ENDMDL
MODEL 8
REMARK VINA RESULT:      -6.4      8.217     10.696
REMARK  Name = 
REMARK  4 active torsions:
REMARK  status: ('A' for Active; 'I' for Inactive)
REMARK    1  A    between atoms: C_1  and  N_2
REMARK    2  A    between atoms: N_2  and  C_20
REMARK    3  A    between atoms: C_10  and  C_11
REMARK    4  A    between atoms: C_11  and  C_12
REMARK                            x       y       z     vdW  Elec       q    Type
REMARK                         _______ _______ _______ _____ _____    ______ ____
ROOT
ATOM      1  C   UNL     1       6.137  14.278  21.316  0.00  0.00    +0.000 C 
ATOM      2  N   UNL     1       6.265  15.323  20.309  0.00  0.00    +0.000 N 
ATOM      3  C   UNL     1       7.561  15.615  19.912  0.00  0.00    +0.000 A 
ATOM      4  N   UNL     1       8.425  14.596  19.747  0.00  0.00    +0.000 NA
ATOM      5  C   UNL     1       9.609  14.762  19.094  0.00  0.00    +0.000 A 
ATOM      6  N   UNL     1      10.468  13.671  19.058  0.00  0.00    +0.000 N 
ATOM      7  C   UNL     1      11.913  13.809  18.927  0.00  0.00    +0.000 C 
ATOM      8  C   UNL     1      12.238  13.040  17.656  0.00  0.00    +0.000 C 
ATOM      9  C   UNL     1      11.269  11.872  17.728  0.00  0.00    +0.000 C 
ATOM     10  C   UNL     1       9.983  12.481  18.322  0.00  0.00    +0.000 C 
ATOM     11  C   UNL     1       9.810  16.008  18.483  0.00  0.00    +0.000 A 
ATOM     12  S   UNL     1      10.955  16.551  17.310  0.00  0.00    +0.000 S 
ATOM     13  C   UNL     1      10.340  18.136  17.305  0.00  0.00    +0.000 A 
ATOM     14  C   UNL     1       9.276  18.268  18.164  0.00  0.00    +0.000 A 
ATOM     15  C   UNL     1       8.933  17.037  18.796  0.00  0.00    +0.000 A 
ATOM     16  N   UNL     1       7.855  16.866  19.583  0.00  0.00    +0.000 NA
ENDROOT
BRANCH   2  17
ATOM     17  C   UNL     1       5.133  16.253  20.068  0.00  0.00    +0.000 C 
ATOM     18  C   UNL     1       3.810  15.674  20.629  0.00  0.00    +0.000 C 
ATOM     19  C   UNL     1       3.355  14.448  19.830  0.00  0.00    +0.000 C 
ATOM     20  N   UNL     1       3.185  14.728  18.401  0.00  0.00    +0.000 NA
ATOM     21  C   UNL     1       4.408  15.302  17.831  0.00  0.00    +0.000 C 
ATOM     22  C   UNL     1       4.825  16.559  18.585  0.00  0.00    +0.000 C 
ATOM     23  H   UNL     1       2.421  15.391  18.285  0.00  0.00    +0.000 HD
ENDBRANCH   2  17
BRANCH  10  24
ATOM     24  C   UNL     1       9.297  11.530  19.289  0.00  0.00    +0.000 C 
BRANCH  24  25
ATOM     25  C   UNL     1       8.840  10.218  18.676  0.00  0.00    +0.000 C 
ATOM     26  N   UNL     1       8.460   9.128  18.167  0.00  0.00    +0.000 NA
ENDBRANCH  24  25
ENDBRANCH  10  24
TORSDOF 3
ENDMDL
MODEL 9
REMARK VINA RESULT:      -6.3      5.923     10.059
REMARK  Name = 
REMARK  4 active torsions:
REMARK  status: ('A' for Active; 'I' for Inactive)
REMARK    1  A    between atoms: C_1  and  N_2
REMARK    2  A    between atoms: N_2  and  C_20
REMARK    3  A    between atoms: C_10  and  C_11
REMARK    4  A    between atoms: C_11  and  C_12
REMARK                            x       y       z     vdW  Elec       q    Type
REMARK                         _______ _______ _______ _____ _____    ______ ____
ROOT
ATOM      1  C   UNL     1      -0.865  12.685  18.177  0.00  0.00    +0.000 C 
ATOM      2  N   UNL     1      -0.779  12.474  19.616  0.00  0.00    +0.000 N 
ATOM      3  C   UNL     1      -1.852  12.949  20.355  0.00  0.00    +0.000 A 
ATOM      4  N   UNL     1      -3.092  12.787  19.858  0.00  0.00    +0.000 NA
ATOM      5  C   UNL     1      -4.200  12.958  20.633  0.00  0.00    +0.000 A 
ATOM      6  N   UNL     1      -5.433  12.857  20.001  0.00  0.00    +0.000 N 
ATOM      7  C   UNL     1      -6.628  13.531  20.493  0.00  0.00    +0.000 C 
ATOM      8  C   UNL     1      -7.608  12.397  20.745  0.00  0.00    +0.000 C 
ATOM      9  C   UNL     1      -7.301  11.443  19.602  0.00  0.00    +0.000 C 
ATOM     10  C   UNL     1      -5.771  11.531  19.435  0.00  0.00    +0.000 C 
ATOM     11  C   UNL     1      -3.974  13.169  22.000  0.00  0.00    +0.000 A 
ATOM     12  S   UNL     1      -5.021  13.106  23.371  0.00  0.00    +0.000 S 
ATOM     13  C   UNL     1      -3.781  13.521  24.457  0.00  0.00    +0.000 A 
ATOM     14  C   UNL     1      -2.582  13.697  23.811  0.00  0.00    +0.000 A 
ATOM     15  C   UNL     1      -2.675  13.439  22.412  0.00  0.00    +0.000 A 
ATOM     16  N   UNL     1      -1.623  13.417  21.575  0.00  0.00    +0.000 NA
ENDROOT
BRANCH   2  17
ATOM     17  C   UNL     1       0.534  12.163  20.236  0.00  0.00    +0.000 C 
ATOM     18  C   UNL     1       1.570  11.749  19.160  0.00  0.00    +0.000 C 
ATOM     19  C   UNL     1       1.215  10.396  18.535  0.00  0.00    +0.000 C 
ATOM     20  N   UNL     1       1.101   9.321  19.524  0.00  0.00    +0.000 NA
ATOM     21  C   UNL     1       0.146   9.680  20.578  0.00  0.00    +0.000 C 
ATOM     22  C   UNL     1       0.535  10.993  21.245  0.00  0.00    +0.000 C 
ATOM     23  H   UNL     1       2.014   9.162  19.944  0.00  0.00    +0.000 HD
ENDBRANCH   2  17
BRANCH  10  24
ATOM     24  C   UNL     1      -5.354  11.480  17.975  0.00  0.00    +0.000 C 
BRANCH  24  25
ATOM     25  C   UNL     1      -4.210  10.528  17.671  0.00  0.00    +0.000 C 
ATOM     26  N   UNL     1      -3.260   9.737  17.419  0.00  0.00    +0.000 NA
ENDBRANCH  24  25
ENDBRANCH  10  24
TORSDOF 3
ENDMDL
