MODEL 1
REMARK VINA RESULT:      -7.5      0.000      0.000
REMARK  Name = 
REMARK  8 active torsions:
REMARK  status: ('A' for Active; 'I' for Inactive)
REMARK    1  A    between atoms: C_1  and  C_2
REMARK    2  A    between atoms: C_2  and  C_3
REMARK    3  A    between atoms: C_3  and  C_4
REMARK    4  A    between atoms: C_4  and  N_5
REMARK    5  A    between atoms: N_5  and  C_6
REMARK    6  A    between atoms: N_14  and  C_15
REMARK    7  A    between atoms: C_15  and  C_16
REMARK    8  A    between atoms: C_16  and  C_18
REMARK                            x       y       z     vdW  Elec       q    Type
REMARK                         _______ _______ _______ _____ _____    ______ ____
ROOT
ATOM      1  C   UNL     1       6.435   4.302  15.468  0.00  0.00    +0.000 A 
ATOM      2  N   UNL     1       7.368   5.278  15.583  0.00  0.00    +0.000 NA
ATOM      3  C   UNL     1       7.348   6.074  16.664  0.00  0.00    +0.000 A 
ATOM      4  N   UNL     1       6.487   6.043  17.711  0.00  0.00    +0.000 NA
ATOM      5  C   UNL     1       5.554   5.090  17.552  0.00  0.00    +0.000 A 
ATOM      6  C   UNL     1       5.481   4.196  16.489  0.00  0.00    +0.000 A 
ATOM      7  C   UNL     1       4.368   3.385  16.803  0.00  0.00    +0.000 A 
ATOM      8  N   UNL     1       3.753   3.752  17.935  0.00  0.00    +0.000 NA
ATOM      9  N   UNL     1       4.479   4.812  18.358  0.00  0.00    +0.000 N 
ENDROOT
BRANCH   1  10
ATOM     10  N   UNL     1       6.435   3.470  14.348  0.00  0.00    +0.000 N 
ATOM     11  H   UNL     1       7.256   2.878  14.317  0.00  0.00    +0.000 HD
BRANCH  10  12
ATOM     12  C   UNL     1       6.159   4.168  13.097  0.00  0.00    +0.000 C 
BRANCH  12  13
ATOM     13  C   UNL     1       5.658   3.150  12.077  0.00  0.00    +0.000 C 
BRANCH  13  15
ATOM     14  C   UNL     1       3.822   3.692  10.454  0.00  0.00    +0.000 C 
ATOM     15  C   UNL     1       4.149   3.251  11.872  0.00  0.00    +0.000 C 
ENDBRANCH  13  15
ENDBRANCH  12  13
ENDBRANCH  10  12
ENDBRANCH   1  10
BRANCH   9  16
ATOM     16  C   UNL     1       3.992   5.596  19.482  0.00  0.00    +0.000 C 
BRANCH  16  17
ATOM     17  C   UNL     1       2.472   5.812  19.527  0.00  0.00    +0.000 C 
ATOM     18 CL   UNL     1       1.771   5.148  21.045  0.00  0.00    +0.000 Cl
BRANCH  17  19
ATOM     19  C   UNL     1       2.083   7.287  19.390  0.00  0.00    +0.000 A 
ATOM     20  C   UNL     1       2.267   7.939  18.159  0.00  0.00    +0.000 A 
ATOM     21  C   UNL     1       1.862   9.268  17.981  0.00  0.00    +0.000 A 
ATOM     22  C   UNL     1       1.264   9.961  19.029  0.00  0.00    +0.000 A 
ATOM     23  C   UNL     1       1.099   9.343  20.264  0.00  0.00    +0.000 A 
ATOM     24  C   UNL     1       1.519   8.021  20.449  0.00  0.00    +0.000 A 
ENDBRANCH  17  19
ENDBRANCH  16  17
ENDBRANCH   9  16
TORSDOF 7
ENDMDL
MODEL 2
REMARK VINA RESULT:      -7.4      1.297      2.075
REMARK  Name = 
REMARK  8 active torsions:
REMARK  status: ('A' for Active; 'I' for Inactive)
REMARK    1  A    between atoms: C_1  and  C_2
REMARK    2  A    between atoms: C_2  and  C_3
REMARK    3  A    between atoms: C_3  and  C_4
REMARK    4  A    between atoms: C_4  and  N_5
REMARK    5  A    between atoms: N_5  and  C_6
REMARK    6  A    between atoms: N_14  and  C_15
REMARK    7  A    between atoms: C_15  and  C_16
REMARK    8  A    between atoms: C_16  and  C_18
REMARK                            x       y       z     vdW  Elec       q    Type
REMARK                         _______ _______ _______ _____ _____    ______ ____
ROOT
ATOM      1  C   UNL     1       7.036   5.276  16.613  0.00  0.00    +0.000 A 
ATOM      2  N   UNL     1       7.729   5.948  17.564  0.00  0.00    +0.000 NA
ATOM      3  C   UNL     1       7.372   5.813  18.850  0.00  0.00    +0.000 A 
ATOM      4  N   UNL     1       6.366   5.063  19.365  0.00  0.00    +0.000 NA
ATOM      5  C   UNL     1       5.675   4.437  18.398  0.00  0.00    +0.000 A 
ATOM      6  C   UNL     1       5.959   4.485  17.037  0.00  0.00    +0.000 A 
ATOM      7  C   UNL     1       4.986   3.642  16.457  0.00  0.00    +0.000 A 
ATOM      8  N   UNL     1       4.127   3.137  17.353  0.00  0.00    +0.000 NA
ATOM      9  N   UNL     1       4.551   3.660  18.525  0.00  0.00    +0.000 N 
ENDROOT
BRANCH   1  10
ATOM     10  N   UNL     1       7.388   5.411  15.271  0.00  0.00    +0.000 N 
ATOM     11  H   UNL     1       7.581   6.375  15.025  0.00  0.00    +0.000 HD
BRANCH  10  12
ATOM     12  C   UNL     1       6.479   4.734  14.352  0.00  0.00    +0.000 C 
BRANCH  12  13
ATOM     13  C   UNL     1       7.175   4.590  13.002  0.00  0.00    +0.000 C 
BRANCH  13  15
ATOM     14  C   UNL     1       5.062   3.473  12.238  0.00  0.00    +0.000 C 
ATOM     15  C   UNL     1       6.581   3.451  12.178  0.00  0.00    +0.000 C 
ENDBRANCH  13  15
ENDBRANCH  12  13
ENDBRANCH  10  12
ENDBRANCH   1  10
BRANCH   9  16
ATOM     16  C   UNL     1       3.737   3.473  19.716  0.00  0.00    +0.000 C 
BRANCH  16  17
ATOM     17  C   UNL     1       2.274   3.924  19.592  0.00  0.00    +0.000 C 
ATOM     18 CL   UNL     1       1.306   3.365  21.003  0.00  0.00    +0.000 Cl
BRANCH  17  19
ATOM     19  C   UNL     1       2.136   5.442  19.451  0.00  0.00    +0.000 A 
ATOM     20  C   UNL     1       1.776   6.210  20.571  0.00  0.00    +0.000 A 
ATOM     21  C   UNL     1       1.703   7.606  20.493  0.00  0.00    +0.000 A 
ATOM     22  C   UNL     1       1.994   8.255  19.297  0.00  0.00    +0.000 A 
ATOM     23  C   UNL     1       2.325   7.511  18.169  0.00  0.00    +0.000 A 
ATOM     24  C   UNL     1       2.381   6.114  18.241  0.00  0.00    +0.000 A 
ENDBRANCH  17  19
ENDBRANCH  16  17
ENDBRANCH   9  16
TORSDOF 7
ENDMDL
MODEL 3
REMARK VINA RESULT:      -7.4      0.693      1.346
REMARK  Name = 
REMARK  8 active torsions:
REMARK  status: ('A' for Active; 'I' for Inactive)
REMARK    1  A    between atoms: C_1  and  C_2
REMARK    2  A    between atoms: C_2  and  C_3
REMARK    3  A    between atoms: C_3  and  C_4
REMARK    4  A    between atoms: C_4  and  N_5
REMARK    5  A    between atoms: N_5  and  C_6
REMARK    6  A    between atoms: N_14  and  C_15
REMARK    7  A    between atoms: C_15  and  C_16
REMARK    8  A    between atoms: C_16  and  C_18
REMARK                            x       y       z     vdW  Elec       q    Type
REMARK                         _______ _______ _______ _____ _____    ______ ____
ROOT
ATOM      1  C   UNL     1       6.512   4.487  15.635  0.00  0.00    +0.000 A 
ATOM      2  N   UNL     1       7.363   5.539  15.719  0.00  0.00    +0.000 NA
ATOM      3  C   UNL     1       7.249   6.388  16.752  0.00  0.00    +0.000 A 
ATOM      4  N   UNL     1       6.363   6.345  17.778  0.00  0.00    +0.000 NA
ATOM      5  C   UNL     1       5.512   5.314  17.650  0.00  0.00    +0.000 A 
ATOM      6  C   UNL     1       5.540   4.360  16.637  0.00  0.00    +0.000 A 
ATOM      7  C   UNL     1       4.486   3.481  16.968  0.00  0.00    +0.000 A 
ATOM      8  N   UNL     1       3.811   3.859  18.062  0.00  0.00    +0.000 NA
ATOM      9  N   UNL     1       4.439   4.995  18.443  0.00  0.00    +0.000 N 
ENDROOT
BRANCH   1  10
ATOM     10  N   UNL     1       6.611   3.599  14.565  0.00  0.00    +0.000 N 
ATOM     11  H   UNL     1       7.571   3.467  14.269  0.00  0.00    +0.000 HD
BRANCH  10  12
ATOM     12  C   UNL     1       5.688   3.889  13.473  0.00  0.00    +0.000 C 
BRANCH  12  13
ATOM     13  C   UNL     1       6.312   3.400  12.169  0.00  0.00    +0.000 C 
BRANCH  13  15
ATOM     14  C   UNL     1       6.362   1.149  11.061  0.00  0.00    +0.000 C 
ATOM     15  C   UNL     1       5.479   2.298  11.521  0.00  0.00    +0.000 C 
ENDBRANCH  13  15
ENDBRANCH  12  13
ENDBRANCH  10  12
ENDBRANCH   1  10
BRANCH   9  16
ATOM     16  C   UNL     1       3.859   5.797  19.509  0.00  0.00    +0.000 C 
BRANCH  16  17
ATOM     17  C   UNL     1       2.341   6.008  19.425  0.00  0.00    +0.000 C 
ATOM     18 CL   UNL     1       1.523   5.399  20.907  0.00  0.00    +0.000 Cl
BRANCH  17  19
ATOM     19  C   UNL     1       1.961   7.475  19.202  0.00  0.00    +0.000 A 
ATOM     20  C   UNL     1       1.381   8.206  20.252  0.00  0.00    +0.000 A 
ATOM     21  C   UNL     1       1.081   9.566  20.103  0.00  0.00    +0.000 A 
ATOM     22  C   UNL     1       1.362  10.215  18.904  0.00  0.00    +0.000 A 
ATOM     23  C   UNL     1       1.910   9.502  17.843  0.00  0.00    +0.000 A 
ATOM     24  C   UNL     1       2.194   8.139  17.984  0.00  0.00    +0.000 A 
ENDBRANCH  17  19
ENDBRANCH  16  17
ENDBRANCH   9  16
TORSDOF 7
ENDMDL
MODEL 4
REMARK VINA RESULT:      -7.4      3.141      6.409
REMARK  Name = 
REMARK  8 active torsions:
REMARK  status: ('A' for Active; 'I' for Inactive)
REMARK    1  A    between atoms: C_1  and  C_2
REMARK    2  A    between atoms: C_2  and  C_3
REMARK    3  A    between atoms: C_3  and  C_4
REMARK    4  A    between atoms: C_4  and  N_5
REMARK    5  A    between atoms: N_5  and  C_6
REMARK    6  A    between atoms: N_14  and  C_15
REMARK    7  A    between atoms: C_15  and  C_16
REMARK    8  A    between atoms: C_16  and  C_18
REMARK                            x       y       z     vdW  Elec       q    Type
REMARK                         _______ _______ _______ _____ _____    ______ ____
ROOT
ATOM      1  C   UNL     1       2.993   5.777  19.506  0.00  0.00    +0.000 A 
ATOM      2  N   UNL     1       2.861   7.082  19.166  0.00  0.00    +0.000 NA
ATOM      3  C   UNL     1       3.237   7.478  17.940  0.00  0.00    +0.000 A 
ATOM      4  N   UNL     1       3.757   6.724  16.940  0.00  0.00    +0.000 NA
ATOM      5  C   UNL     1       3.910   5.444  17.317  0.00  0.00    +0.000 A 
ATOM      6  C   UNL     1       3.542   4.912  18.549  0.00  0.00    +0.000 A 
ATOM      7  C   UNL     1       3.864   3.542  18.438  0.00  0.00    +0.000 A 
ATOM      8  N   UNL     1       4.430   3.229  17.264  0.00  0.00    +0.000 NA
ATOM      9  N   UNL     1       4.473   4.411  16.610  0.00  0.00    +0.000 N 
ENDROOT
BRANCH   1  10
ATOM     10  N   UNL     1       2.615   5.349  20.778  0.00  0.00    +0.000 N 
ATOM     11  H   UNL     1       3.360   4.846  21.246  0.00  0.00    +0.000 HD
BRANCH  10  12
ATOM     12  C   UNL     1       1.326   4.666  20.810  0.00  0.00    +0.000 C 
BRANCH  12  13
ATOM     13  C   UNL     1       1.538   3.259  21.360  0.00  0.00    +0.000 C 
BRANCH  13  15
ATOM     14  C   UNL     1       0.550   2.687  19.126  0.00  0.00    +0.000 C 
ATOM     15  C   UNL     1       1.432   2.202  20.265  0.00  0.00    +0.000 C 
ENDBRANCH  13  15
ENDBRANCH  12  13
ENDBRANCH  10  12
ENDBRANCH   1  10
BRANCH   9  16
ATOM     16  C   UNL     1       5.199   4.495  15.352  0.00  0.00    +0.000 C 
BRANCH  16  17
ATOM     17  C   UNL     1       6.729   4.474  15.471  0.00  0.00    +0.000 C 
ATOM     18 CL   UNL     1       7.502   5.058  13.955  0.00  0.00    +0.000 Cl
BRANCH  17  19
ATOM     19  C   UNL     1       7.240   5.302  16.653  0.00  0.00    +0.000 A 
ATOM     20  C   UNL     1       7.273   6.703  16.553  0.00  0.00    +0.000 A 
ATOM     21  C   UNL     1       7.673   7.493  17.637  0.00  0.00    +0.000 A 
ATOM     22  C   UNL     1       8.041   6.895  18.839  0.00  0.00    +0.000 A 
ATOM     23  C   UNL     1       8.043   5.509  18.950  0.00  0.00    +0.000 A 
ATOM     24  C   UNL     1       7.660   4.717  17.861  0.00  0.00    +0.000 A 
ENDBRANCH  17  19
ENDBRANCH  16  17
ENDBRANCH   9  16
TORSDOF 7
ENDMDL
MODEL 5
REMARK VINA RESULT:      -7.3      1.681      2.385
REMARK  Name = 
REMARK  8 active torsions:
REMARK  status: ('A' for Active; 'I' for Inactive)
REMARK    1  A    between atoms: C_1  and  C_2
REMARK    2  A    between atoms: C_2  and  C_3
REMARK    3  A    between atoms: C_3  and  C_4
REMARK    4  A    between atoms: C_4  and  N_5
REMARK    5  A    between atoms: N_5  and  C_6
REMARK    6  A    between atoms: N_14  and  C_15
REMARK    7  A    between atoms: C_15  and  C_16
REMARK    8  A    between atoms: C_16  and  C_18
REMARK                            x       y       z     vdW  Elec       q    Type
REMARK                         _______ _______ _______ _____ _____    ______ ____
ROOT
ATOM      1  C   UNL     1       5.490   4.033  17.268  0.00  0.00    +0.000 A 
ATOM      2  N   UNL     1       6.528   4.556  17.967  0.00  0.00    +0.000 NA
ATOM      3  C   UNL     1       6.272   5.305  19.050  0.00  0.00    +0.000 A 
ATOM      4  N   UNL     1       5.066   5.633  19.576  0.00  0.00    +0.000 NA
ATOM      5  C   UNL     1       4.058   5.131  18.844  0.00  0.00    +0.000 A 
ATOM      6  C   UNL     1       4.196   4.329  17.716  0.00  0.00    +0.000 A 
ATOM      7  C   UNL     1       2.866   4.035  17.343  0.00  0.00    +0.000 A 
ATOM      8  N   UNL     1       1.957   4.630  18.127  0.00  0.00    +0.000 NA
ATOM      9  N   UNL     1       2.709   5.316  19.017  0.00  0.00    +0.000 N 
ENDROOT
BRANCH   1  10
ATOM     10  N   UNL     1       5.737   3.259  16.135  0.00  0.00    +0.000 N 
ATOM     11  H   UNL     1       6.122   2.352  16.372  0.00  0.00    +0.000 HD
BRANCH  10  12
ATOM     12  C   UNL     1       6.475   3.962  15.091  0.00  0.00    +0.000 C 
BRANCH  12  13
ATOM     13  C   UNL     1       5.521   4.248  13.935  0.00  0.00    +0.000 C 
BRANCH  13  15
ATOM     14  C   UNL     1       4.716   3.295  11.757  0.00  0.00    +0.000 C 
ATOM     15  C   UNL     1       5.914   3.482  12.675  0.00  0.00    +0.000 C 
ENDBRANCH  13  15
ENDBRANCH  12  13
ENDBRANCH  10  12
ENDBRANCH   1  10
BRANCH   9  16
ATOM     16  C   UNL     1       2.054   6.241  19.928  0.00  0.00    +0.000 C 
BRANCH  16  17
ATOM     17  C   UNL     1       2.259   7.731  19.616  0.00  0.00    +0.000 C 
ATOM     18 CL   UNL     1       2.046   8.056  17.859  0.00  0.00    +0.000 Cl
BRANCH  17  19
ATOM     19  C   UNL     1       1.319   8.635  20.417  0.00  0.00    +0.000 A 
ATOM     20  C   UNL     1       0.597   9.641  19.754  0.00  0.00    +0.000 A 
ATOM     21  C   UNL     1      -0.319  10.444  20.445  0.00  0.00    +0.000 A 
ATOM     22  C   UNL     1      -0.530  10.249  21.807  0.00  0.00    +0.000 A 
ATOM     23  C   UNL     1       0.196   9.278  22.487  0.00  0.00    +0.000 A 
ATOM     24  C   UNL     1       1.125   8.486  21.802  0.00  0.00    +0.000 A 
ENDBRANCH  17  19
ENDBRANCH  16  17
ENDBRANCH   9  16
TORSDOF 7
ENDMDL
MODEL 6
REMARK VINA RESULT:      -7.2      1.736      2.604
REMARK  Name = 
REMARK  8 active torsions:
REMARK  status: ('A' for Active; 'I' for Inactive)
REMARK    1  A    between atoms: C_1  and  C_2
REMARK    2  A    between atoms: C_2  and  C_3
REMARK    3  A    between atoms: C_3  and  C_4
REMARK    4  A    between atoms: C_4  and  N_5
REMARK    5  A    between atoms: N_5  and  C_6
REMARK    6  A    between atoms: N_14  and  C_15
REMARK    7  A    between atoms: C_15  and  C_16
REMARK    8  A    between atoms: C_16  and  C_18
REMARK                            x       y       z     vdW  Elec       q    Type
REMARK                         _______ _______ _______ _____ _____    ______ ____
ROOT
ATOM      1  C   UNL     1       5.459   4.085  17.288  0.00  0.00    +0.000 A 
ATOM      2  N   UNL     1       6.501   4.590  17.993  0.00  0.00    +0.000 NA
ATOM      3  C   UNL     1       6.251   5.326  19.087  0.00  0.00    +0.000 A 
ATOM      4  N   UNL     1       5.048   5.656  19.617  0.00  0.00    +0.000 NA
ATOM      5  C   UNL     1       4.036   5.172  18.879  0.00  0.00    +0.000 A 
ATOM      6  C   UNL     1       4.167   4.385  17.740  0.00  0.00    +0.000 A 
ATOM      7  C   UNL     1       2.835   4.106  17.364  0.00  0.00    +0.000 A 
ATOM      8  N   UNL     1       1.930   4.698  18.156  0.00  0.00    +0.000 NA
ATOM      9  N   UNL     1       2.688   5.366  19.055  0.00  0.00    +0.000 N 
ENDROOT
BRANCH   1  10
ATOM     10  N   UNL     1       5.699   3.324  16.144  0.00  0.00    +0.000 N 
ATOM     11  H   UNL     1       6.052   2.402  16.370  0.00  0.00    +0.000 HD
BRANCH  10  12
ATOM     12  C   UNL     1       6.474   4.023  15.124  0.00  0.00    +0.000 C 
BRANCH  12  13
ATOM     13  C   UNL     1       5.617   4.149  13.869  0.00  0.00    +0.000 C 
BRANCH  13  15
ATOM     14  C   UNL     1       5.505   2.722  11.808  0.00  0.00    +0.000 C 
ATOM     15  C   UNL     1       6.363   3.674  12.625  0.00  0.00    +0.000 C 
ENDBRANCH  13  15
ENDBRANCH  12  13
ENDBRANCH  10  12
ENDBRANCH   1  10
BRANCH   9  16
ATOM     16  C   UNL     1       2.041   6.284  19.979  0.00  0.00    +0.000 C 
BRANCH  16  17
ATOM     17  C   UNL     1       2.206   7.775  19.651  0.00  0.00    +0.000 C 
ATOM     18 CL   UNL     1       2.006   8.073  17.888  0.00  0.00    +0.000 Cl
BRANCH  17  19
ATOM     19  C   UNL     1       1.230   8.661  20.430  0.00  0.00    +0.000 A 
ATOM     20  C   UNL     1       1.107   8.497  21.820  0.00  0.00    +0.000 A 
ATOM     21  C   UNL     1       0.272   9.333  22.572  0.00  0.00    +0.000 A 
ATOM     22  C   UNL     1      -0.447  10.347  21.946  0.00  0.00    +0.000 A 
ATOM     23  C   UNL     1      -0.360  10.508  20.568  0.00  0.00    +0.000 A 
ATOM     24  C   UNL     1       0.460   9.662  19.812  0.00  0.00    +0.000 A 
ENDBRANCH  17  19
ENDBRANCH  16  17
ENDBRANCH   9  16
TORSDOF 7
ENDMDL
MODEL 7
REMARK VINA RESULT:      -7.1      2.108      2.953
REMARK  Name = 
REMARK  8 active torsions:
REMARK  status: ('A' for Active; 'I' for Inactive)
REMARK    1  A    between atoms: C_1  and  C_2
REMARK    2  A    between atoms: C_2  and  C_3
REMARK    3  A    between atoms: C_3  and  C_4
REMARK    4  A    between atoms: C_4  and  N_5
REMARK    5  A    between atoms: N_5  and  C_6
REMARK    6  A    between atoms: N_14  and  C_15
REMARK    7  A    between atoms: C_15  and  C_16
REMARK    8  A    between atoms: C_16  and  C_18
REMARK                            x       y       z     vdW  Elec       q    Type
REMARK                         _______ _______ _______ _____ _____    ______ ____
ROOT
ATOM      1  C   UNL     1       6.499   4.342  14.850  0.00  0.00    +0.000 A 
ATOM      2  N   UNL     1       7.370   5.379  14.807  0.00  0.00    +0.000 NA
ATOM      3  C   UNL     1       7.544   6.130  15.906  0.00  0.00    +0.000 A 
ATOM      4  N   UNL     1       6.945   5.996  17.115  0.00  0.00    +0.000 NA
ATOM      5  C   UNL     1       6.063   4.984  17.117  0.00  0.00    +0.000 A 
ATOM      6  C   UNL     1       5.808   4.127  16.050  0.00  0.00    +0.000 A 
ATOM      7  C   UNL     1       4.849   3.225  16.560  0.00  0.00    +0.000 A 
ATOM      8  N   UNL     1       4.483   3.503  17.819  0.00  0.00    +0.000 NA
ATOM      9  N   UNL     1       5.216   4.597  18.126  0.00  0.00    +0.000 N 
ENDROOT
BRANCH   1  10
ATOM     10  N   UNL     1       6.300   3.556  13.716  0.00  0.00    +0.000 N 
ATOM     11  H   UNL     1       7.100   3.578  13.094  0.00  0.00    +0.000 HD
BRANCH  10  12
ATOM     12  C   UNL     1       5.024   3.796  13.049  0.00  0.00    +0.000 C 
BRANCH  12  13
ATOM     13  C   UNL     1       5.079   3.167  11.661  0.00  0.00    +0.000 C 
BRANCH  13  15
ATOM     14  C   UNL     1       3.358   4.036  10.053  0.00  0.00    +0.000 C 
ATOM     15  C   UNL     1       3.683   2.961  11.078  0.00  0.00    +0.000 C 
ENDBRANCH  13  15
ENDBRANCH  12  13
ENDBRANCH  10  12
ENDBRANCH   1  10
BRANCH   9  16
ATOM     16  C   UNL     1       4.947   5.300  19.370  0.00  0.00    +0.000 C 
BRANCH  16  17
ATOM     17  C   UNL     1       3.511   5.817  19.538  0.00  0.00    +0.000 C 
ATOM     18 CL   UNL     1       2.891   6.508  17.997  0.00  0.00    +0.000 Cl
BRANCH  17  19
ATOM     19  C   UNL     1       2.548   4.733  20.032  0.00  0.00    +0.000 A 
ATOM     20  C   UNL     1       1.537   4.265  19.177  0.00  0.00    +0.000 A 
ATOM     21  C   UNL     1       0.681   3.230  19.574  0.00  0.00    +0.000 A 
ATOM     22  C   UNL     1       0.827   2.646  20.828  0.00  0.00    +0.000 A 
ATOM     23  C   UNL     1       1.803   3.114  21.701  0.00  0.00    +0.000 A 
ATOM     24  C   UNL     1       2.649   4.160  21.312  0.00  0.00    +0.000 A 
ENDBRANCH  17  19
ENDBRANCH  16  17
ENDBRANCH   9  16
TORSDOF 7
ENDMDL
MODEL 8
REMARK VINA RESULT:      -7.1      3.010      5.629
REMARK  Name = 
REMARK  8 active torsions:
REMARK  status: ('A' for Active; 'I' for Inactive)
REMARK    1  A    between atoms: C_1  and  C_2
REMARK    2  A    between atoms: C_2  and  C_3
REMARK    3  A    between atoms: C_3  and  C_4
REMARK    4  A    between atoms: C_4  and  N_5
REMARK    5  A    between atoms: N_5  and  C_6
REMARK    6  A    between atoms: N_14  and  C_15
REMARK    7  A    between atoms: C_15  and  C_16
REMARK    8  A    between atoms: C_16  and  C_18
REMARK                            x       y       z     vdW  Elec       q    Type
REMARK                         _______ _______ _______ _____ _____    ______ ____
ROOT
ATOM      1  C   UNL     1       7.598   7.289  17.856  0.00  0.00    +0.000 A 
ATOM      2  N   UNL     1       8.204   6.779  18.956  0.00  0.00    +0.000 NA
ATOM      3  C   UNL     1       7.863   5.552  19.379  0.00  0.00    +0.000 A 
ATOM      4  N   UNL     1       6.954   4.703  18.838  0.00  0.00    +0.000 NA
ATOM      5  C   UNL     1       6.346   5.247  17.772  0.00  0.00    +0.000 A 
ATOM      6  C   UNL     1       6.624   6.498  17.230  0.00  0.00    +0.000 A 
ATOM      7  C   UNL     1       5.762   6.586  16.116  0.00  0.00    +0.000 A 
ATOM      8  N   UNL     1       4.968   5.515  15.980  0.00  0.00    +0.000 NA
ATOM      9  N   UNL     1       5.323   4.726  17.019  0.00  0.00    +0.000 N 
ENDROOT
BRANCH   1  10
ATOM     10  N   UNL     1       7.934   8.565  17.407  0.00  0.00    +0.000 N 
ATOM     11  H   UNL     1       8.489   8.534  16.559  0.00  0.00    +0.000 HD
BRANCH  10  12
ATOM     12  C   UNL     1       8.485   9.429  18.446  0.00  0.00    +0.000 C 
BRANCH  12  13
ATOM     13  C   UNL     1       9.104  10.653  17.778  0.00  0.00    +0.000 C 
BRANCH  13  15
ATOM     14  C   UNL     1      10.111  11.198  20.011  0.00  0.00    +0.000 C 
ATOM     15  C   UNL     1       9.402  11.758  18.788  0.00  0.00    +0.000 C 
ENDBRANCH  13  15
ENDBRANCH  12  13
ENDBRANCH  10  12
ENDBRANCH   1  10
BRANCH   9  16
ATOM     16  C   UNL     1       4.536   3.537  17.304  0.00  0.00    +0.000 C 
BRANCH  16  17
ATOM     17  C   UNL     1       3.016   3.749  17.354  0.00  0.00    +0.000 C 
ATOM     18 CL   UNL     1       2.154   2.186  17.581  0.00  0.00    +0.000 Cl
BRANCH  17  19
ATOM     19  C   UNL     1       2.594   4.725  18.456  0.00  0.00    +0.000 A 
ATOM     20  C   UNL     1       2.235   4.227  19.720  0.00  0.00    +0.000 A 
ATOM     21  C   UNL     1       1.906   5.096  20.769  0.00  0.00    +0.000 A 
ATOM     22  C   UNL     1       1.937   6.473  20.571  0.00  0.00    +0.000 A 
ATOM     23  C   UNL     1       2.263   6.985  19.319  0.00  0.00    +0.000 A 
ATOM     24  C   UNL     1       2.574   6.118  18.265  0.00  0.00    +0.000 A 
ENDBRANCH  17  19
ENDBRANCH  16  17
ENDBRANCH   9  16
TORSDOF 7
ENDMDL
MODEL 9
REMARK VINA RESULT:      -7.1      4.963      7.250
REMARK  Name = 
REMARK  8 active torsions:
REMARK  status: ('A' for Active; 'I' for Inactive)
REMARK    1  A    between atoms: C_1  and  C_2
REMARK    2  A    between atoms: C_2  and  C_3
REMARK    3  A    between atoms: C_3  and  C_4
REMARK    4  A    between atoms: C_4  and  N_5
REMARK    5  A    between atoms: N_5  and  C_6
REMARK    6  A    between atoms: N_14  and  C_15
REMARK    7  A    between atoms: C_15  and  C_16
REMARK    8  A    between atoms: C_16  and  C_18
REMARK                            x       y       z     vdW  Elec       q    Type
REMARK                         _______ _______ _______ _____ _____    ______ ____
ROOT
ATOM      1  C   UNL     1       2.254   7.237  19.726  0.00  0.00    +0.000 A 
ATOM      2  N   UNL     1       2.759   7.292  18.470  0.00  0.00    +0.000 NA
ATOM      3  C   UNL     1       2.496   8.364  17.707  0.00  0.00    +0.000 A 
ATOM      4  N   UNL     1       1.760   9.458  18.026  0.00  0.00    +0.000 NA
ATOM      5  C   UNL     1       1.244   9.360  19.262  0.00  0.00    +0.000 A 
ATOM      6  C   UNL     1       1.459   8.310  20.150  0.00  0.00    +0.000 A 
ATOM      7  C   UNL     1       0.746   8.693  21.307  0.00  0.00    +0.000 A 
ATOM      8  N   UNL     1       0.093   9.854  21.163  0.00  0.00    +0.000 NA
ATOM      9  N   UNL     1       0.390  10.226  19.897  0.00  0.00    +0.000 N 
ENDROOT
BRANCH   1  10
ATOM     10  N   UNL     1       2.511   6.127  20.530  0.00  0.00    +0.000 N 
ATOM     11  H   UNL     1       3.067   6.368  21.342  0.00  0.00    +0.000 HD
BRANCH  10  12
ATOM     12  C   UNL     1       3.008   4.969  19.794  0.00  0.00    +0.000 C 
BRANCH  12  13
ATOM     13  C   UNL     1       1.825   4.066  19.459  0.00  0.00    +0.000 C 
BRANCH  13  15
ATOM     14  C   UNL     1       2.063   2.721  21.564  0.00  0.00    +0.000 C 
ATOM     15  C   UNL     1       1.123   3.564  20.717  0.00  0.00    +0.000 C 
ENDBRANCH  13  15
ENDBRANCH  12  13
ENDBRANCH  10  12
ENDBRANCH   1  10
BRANCH   9  16
ATOM     16  C   UNL     1      -0.300  11.368  19.318  0.00  0.00    +0.000 C 
BRANCH  16  17
ATOM     17  C   UNL     1      -1.832  11.340  19.430  0.00  0.00    +0.000 C 
ATOM     18 CL   UNL     1      -2.462  12.910  20.043  0.00  0.00    +0.000 Cl
BRANCH  17  19
ATOM     19  C   UNL     1      -2.513  11.003  18.101  0.00  0.00    +0.000 A 
ATOM     20  C   UNL     1      -3.758  11.579  17.797  0.00  0.00    +0.000 A 
ATOM     21  C   UNL     1      -4.378  11.344  16.564  0.00  0.00    +0.000 A 
ATOM     22  C   UNL     1      -3.761  10.534  15.615  0.00  0.00    +0.000 A 
ATOM     23  C   UNL     1      -2.542   9.932  15.907  0.00  0.00    +0.000 A 
ATOM     24  C   UNL     1      -1.929  10.152  17.146  0.00  0.00    +0.000 A 
ENDBRANCH  17  19
ENDBRANCH  16  17
ENDBRANCH   9  16
TORSDOF 7
ENDMDL
