MODEL 1
REMARK VINA RESULT:      -7.3      0.000      0.000
REMARK  Name = 
REMARK  15 active torsions:
REMARK  status: ('A' for Active; 'I' for Inactive)
REMARK    1  A    between atoms: C_1  and  O_2
REMARK    2  A    between atoms: O_2  and  C_3
REMARK    3  A    between atoms: C_3  and  C_5
REMARK    4  A    between atoms: C_5  and  C_6
REMARK    5  A    between atoms: C_5  and  C_18
REMARK    6  A    between atoms: C_5  and  C_28
REMARK    7  A    between atoms: C_6  and  C_7
REMARK    8  A    between atoms: C_10  and  N_11
REMARK    9  A    between atoms: N_11  and  S_12
REMARK   10  A    between atoms: S_12  and  O_15
REMARK   11  A    between atoms: C_18  and  C_19
REMARK   12  A    between atoms: C_22  and  C_23
REMARK   13  A    between atoms: C_23  and  O_25
REMARK   14  A    between atoms: C_28  and  O_30
REMARK   15  A    between atoms: O_30  and  C_31
REMARK                            x       y       z     vdW  Elec       q    Type
REMARK                         _______ _______ _______ _____ _____    ______ ____
ROOT
ATOM      1  C   UNL     1       3.316   4.701  19.203  0.00  0.00    +0.000 C 
ENDROOT
BRANCH   1   2
ATOM      2  C   UNL     1       4.436   3.685  19.453  0.00  0.00    +0.000 C 
ATOM      3  O   UNL     1       5.634   3.942  19.427  0.00  0.00    +0.000 OA
BRANCH   2   5
ATOM      4  C   UNL     1       3.993   1.442  18.833  0.00  0.00    +0.000 C 
ATOM      5  O   UNL     1       3.957   2.465  19.840  0.00  0.00    +0.000 OA
ENDBRANCH   2   5
ENDBRANCH   1   2
BRANCH   1   6
ATOM      6  C   UNL     1       2.070   4.332  19.998  0.00  0.00    +0.000 C 
ATOM      7  O   UNL     1       1.971   4.355  21.216  0.00  0.00    +0.000 OA
BRANCH   6   8
ATOM      8  O   UNL     1       1.037   3.993  19.167  0.00  0.00    +0.000 OA
ATOM      9  C   UNL     1       0.564   2.655  19.352  0.00  0.00    +0.000 C 
ENDBRANCH   6   8
ENDBRANCH   1   6
BRANCH   1  10
ATOM     10  C   UNL     1       3.692   6.155  19.644  0.00  0.00    +0.000 C 
BRANCH  10  11
ATOM     11  C   UNL     1       2.620   7.196  19.370  0.00  0.00    +0.000 A 
ATOM     12  C   UNL     1       2.465   7.736  18.088  0.00  0.00    +0.000 A 
ATOM     13  C   UNL     1       1.655   8.853  17.888  0.00  0.00    +0.000 A 
ATOM     14  C   UNL     1       0.974   9.424  18.961  0.00  0.00    +0.000 A 
ATOM     15  C   UNL     1       1.020   8.826  20.216  0.00  0.00    +0.000 A 
ATOM     16  C   UNL     1       1.839   7.713  20.418  0.00  0.00    +0.000 A 
BRANCH  14  17
ATOM     17  N   UNL     1       0.224  10.615  18.776  0.00  0.00    +0.000 N 
ATOM     18  H   UNL     1      -0.656  10.654  19.289  0.00  0.00    +0.000 HD
BRANCH  17  19
ATOM     19  S   UNL     1       1.030  12.074  18.926  0.00  0.00    +0.000 S 
ATOM     20  O   UNL     1       0.208  13.143  18.411  0.00  0.00    +0.000 OA
ATOM     21  O   UNL     1       1.596  12.096  20.252  0.00  0.00    +0.000 OA
BRANCH  19  22
ATOM     22  O   UNL     1       2.260  11.943  17.888  0.00  0.00    +0.000 OA
ATOM     23  H   UNL     1       2.079  12.588  17.172  0.00  0.00    +0.000 HD
ENDBRANCH  19  22
ENDBRANCH  17  19
ENDBRANCH  14  17
ENDBRANCH  10  11
ENDBRANCH   1  10
BRANCH   1  24
ATOM     24  C   UNL     1       3.037   4.694  17.663  0.00  0.00    +0.000 C 
BRANCH  24  25
ATOM     25  C   UNL     1       4.197   4.816  16.680  0.00  0.00    +0.000 A 
ATOM     26  C   UNL     1       4.856   6.025  16.412  0.00  0.00    +0.000 A 
ATOM     27  C   UNL     1       5.900   6.107  15.497  0.00  0.00    +0.000 A 
ATOM     28  C   UNL     1       6.304   4.972  14.806  0.00  0.00    +0.000 A 
ATOM     29  C   UNL     1       5.719   3.740  15.102  0.00  0.00    +0.000 A 
ATOM     30  C   UNL     1       4.684   3.662  16.042  0.00  0.00    +0.000 A 
BRANCH  28  31
ATOM     31  C   UNL     1       7.374   5.050  13.788  0.00  0.00    +0.000 C 
ATOM     32  O   UNL     1       8.375   5.729  13.930  0.00  0.00    +0.000 OA
BRANCH  31  33
ATOM     33  O   UNL     1       7.153   4.280  12.698  0.00  0.00    +0.000 OA
ATOM     34  H   UNL     1       6.474   3.591  12.814  0.00  0.00    +0.000 HD
ENDBRANCH  31  33
ENDBRANCH  28  31
ENDBRANCH  24  25
ENDBRANCH   1  24
TORSDOF 13
ENDMDL
MODEL 2
REMARK VINA RESULT:      -7.1      1.256      1.844
REMARK  Name = 
REMARK  15 active torsions:
REMARK  status: ('A' for Active; 'I' for Inactive)
REMARK    1  A    between atoms: C_1  and  O_2
REMARK    2  A    between atoms: O_2  and  C_3
REMARK    3  A    between atoms: C_3  and  C_5
REMARK    4  A    between atoms: C_5  and  C_6
REMARK    5  A    between atoms: C_5  and  C_18
REMARK    6  A    between atoms: C_5  and  C_28
REMARK    7  A    between atoms: C_6  and  C_7
REMARK    8  A    between atoms: C_10  and  N_11
REMARK    9  A    between atoms: N_11  and  S_12
REMARK   10  A    between atoms: S_12  and  O_15
REMARK   11  A    between atoms: C_18  and  C_19
REMARK   12  A    between atoms: C_22  and  C_23
REMARK   13  A    between atoms: C_23  and  O_25
REMARK   14  A    between atoms: C_28  and  O_30
REMARK   15  A    between atoms: O_30  and  C_31
REMARK                            x       y       z     vdW  Elec       q    Type
REMARK                         _______ _______ _______ _____ _____    ______ ____
ROOT
ATOM      1  C   UNL     1       3.117   4.889  19.306  0.00  0.00    +0.000 C 
ENDROOT
BRANCH   1   2
ATOM      2  C   UNL     1       4.331   3.955  19.360  0.00  0.00    +0.000 C 
ATOM      3  O   UNL     1       5.488   4.320  19.527  0.00  0.00    +0.000 OA
BRANCH   2   5
ATOM      4  C   UNL     1       4.654   1.794  20.273  0.00  0.00    +0.000 C 
ATOM      5  O   UNL     1       3.976   2.636  19.328  0.00  0.00    +0.000 OA
ENDBRANCH   2   5
ENDBRANCH   1   2
BRANCH   1   6
ATOM      6  C   UNL     1       1.939   4.280  20.056  0.00  0.00    +0.000 C 
ATOM      7  O   UNL     1       0.870   3.958  19.558  0.00  0.00    +0.000 OA
BRANCH   6   8
ATOM      8  O   UNL     1       2.234   4.103  21.380  0.00  0.00    +0.000 OA
ATOM      9  C   UNL     1       1.670   2.914  21.942  0.00  0.00    +0.000 C 
ENDBRANCH   6   8
ENDBRANCH   1   6
BRANCH   1  10
ATOM     10  C   UNL     1       3.378   6.281  19.972  0.00  0.00    +0.000 C 
BRANCH  10  11
ATOM     11  C   UNL     1       2.456   7.391  19.499  0.00  0.00    +0.000 A 
ATOM     12  C   UNL     1       2.571   7.906  18.202  0.00  0.00    +0.000 A 
ATOM     13  C   UNL     1       1.899   9.075  17.847  0.00  0.00    +0.000 A 
ATOM     14  C   UNL     1       1.089   9.725  18.775  0.00  0.00    +0.000 A 
ATOM     15  C   UNL     1       0.868   9.161  20.027  0.00  0.00    +0.000 A 
ATOM     16  C   UNL     1       1.548   7.995  20.386  0.00  0.00    +0.000 A 
BRANCH  14  17
ATOM     17  N   UNL     1       0.480  10.965  18.443  0.00  0.00    +0.000 N 
ATOM     18  H   UNL     1       0.912  11.461  17.665  0.00  0.00    +0.000 HD
BRANCH  17  19
ATOM     19  S   UNL     1      -1.186  10.992  18.277  0.00  0.00    +0.000 S 
ATOM     20  O   UNL     1      -1.617   9.869  17.480  0.00  0.00    +0.000 OA
ATOM     21  O   UNL     1      -1.725  11.270  19.586  0.00  0.00    +0.000 OA
BRANCH  19  22
ATOM     22  O   UNL     1      -1.461  12.294  17.364  0.00  0.00    +0.000 OA
ATOM     23  H   UNL     1      -1.187  12.050  16.455  0.00  0.00    +0.000 HD
ENDBRANCH  19  22
ENDBRANCH  17  19
ENDBRANCH  14  17
ENDBRANCH  10  11
ENDBRANCH   1  10
BRANCH   1  24
ATOM     24  C   UNL     1       2.783   5.107  17.792  0.00  0.00    +0.000 C 
BRANCH  24  25
ATOM     25  C   UNL     1       3.890   5.009  16.748  0.00  0.00    +0.000 A 
ATOM     26  C   UNL     1       4.211   3.821  16.075  0.00  0.00    +0.000 A 
ATOM     27  C   UNL     1       5.239   3.759  15.140  0.00  0.00    +0.000 A 
ATOM     28  C   UNL     1       5.991   4.894  14.865  0.00  0.00    +0.000 A 
ATOM     29  C   UNL     1       5.651   6.108  15.463  0.00  0.00    +0.000 A 
ATOM     30  C   UNL     1       4.600   6.167  16.386  0.00  0.00    +0.000 A 
BRANCH  28  31
ATOM     31  C   UNL     1       7.124   4.836  13.916  0.00  0.00    +0.000 C 
ATOM     32  O   UNL     1       7.123   4.126  12.926  0.00  0.00    +0.000 OA
BRANCH  31  33
ATOM     33  O   UNL     1       8.149   5.660  14.232  0.00  0.00    +0.000 OA
ATOM     34  H   UNL     1       8.744   5.876  13.493  0.00  0.00    +0.000 HD
ENDBRANCH  31  33
ENDBRANCH  28  31
ENDBRANCH  24  25
ENDBRANCH   1  24
TORSDOF 13
ENDMDL
MODEL 3
REMARK VINA RESULT:      -6.9      1.212      1.494
REMARK  Name = 
REMARK  15 active torsions:
REMARK  status: ('A' for Active; 'I' for Inactive)
REMARK    1  A    between atoms: C_1  and  O_2
REMARK    2  A    between atoms: O_2  and  C_3
REMARK    3  A    between atoms: C_3  and  C_5
REMARK    4  A    between atoms: C_5  and  C_6
REMARK    5  A    between atoms: C_5  and  C_18
REMARK    6  A    between atoms: C_5  and  C_28
REMARK    7  A    between atoms: C_6  and  C_7
REMARK    8  A    between atoms: C_10  and  N_11
REMARK    9  A    between atoms: N_11  and  S_12
REMARK   10  A    between atoms: S_12  and  O_15
REMARK   11  A    between atoms: C_18  and  C_19
REMARK   12  A    between atoms: C_22  and  C_23
REMARK   13  A    between atoms: C_23  and  O_25
REMARK   14  A    between atoms: C_28  and  O_30
REMARK   15  A    between atoms: O_30  and  C_31
REMARK                            x       y       z     vdW  Elec       q    Type
REMARK                         _______ _______ _______ _____ _____    ______ ____
ROOT
ATOM      1  C   UNL     1       3.251   4.774  19.248  0.00  0.00    +0.000 C 
ENDROOT
BRANCH   1   2
ATOM      2  C   UNL     1       4.348   3.730  19.488  0.00  0.00    +0.000 C 
ATOM      3  O   UNL     1       5.548   3.973  19.532  0.00  0.00    +0.000 OA
BRANCH   2   5
ATOM      4  C   UNL     1       4.813   1.483  20.073  0.00  0.00    +0.000 C 
ATOM      5  O   UNL     1       3.839   2.496  19.779  0.00  0.00    +0.000 OA
ENDBRANCH   2   5
ENDBRANCH   1   2
BRANCH   1   6
ATOM      6  C   UNL     1       2.010   4.446  20.069  0.00  0.00    +0.000 C 
ATOM      7  O   UNL     1       1.909   4.565  21.281  0.00  0.00    +0.000 OA
BRANCH   6   8
ATOM      8  O   UNL     1       0.985   4.024  19.268  0.00  0.00    +0.000 OA
ATOM      9  C   UNL     1       0.656   2.642  19.435  0.00  0.00    +0.000 C 
ENDBRANCH   6   8
ENDBRANCH   1   6
BRANCH   1  10
ATOM     10  C   UNL     1       3.673   6.222  19.665  0.00  0.00    +0.000 C 
BRANCH  10  11
ATOM     11  C   UNL     1       2.675   7.304  19.292  0.00  0.00    +0.000 A 
ATOM     12  C   UNL     1       2.642   7.822  17.992  0.00  0.00    +0.000 A 
ATOM     13  C   UNL     1       1.903   8.971  17.710  0.00  0.00    +0.000 A 
ATOM     14  C   UNL     1       1.173   9.596  18.719  0.00  0.00    +0.000 A 
ATOM     15  C   UNL     1       1.097   9.025  19.984  0.00  0.00    +0.000 A 
ATOM     16  C   UNL     1       1.845   7.880  20.268  0.00  0.00    +0.000 A 
BRANCH  14  17
ATOM     17  N   UNL     1       0.496  10.817  18.454  0.00  0.00    +0.000 N 
ATOM     18  H   UNL     1       0.936  11.409  17.751  0.00  0.00    +0.000 HD
BRANCH  17  19
ATOM     19  S   UNL     1      -1.154  10.748  18.184  0.00  0.00    +0.000 S 
ATOM     20  O   UNL     1      -1.790   9.982  19.230  0.00  0.00    +0.000 OA
ATOM     21  O   UNL     1      -1.570  12.084  17.836  0.00  0.00    +0.000 OA
BRANCH  19  22
ATOM     22  O   UNL     1      -1.290   9.846  16.852  0.00  0.00    +0.000 OA
ATOM     23  H   UNL     1      -0.406   9.855  16.429  0.00  0.00    +0.000 HD
ENDBRANCH  19  22
ENDBRANCH  17  19
ENDBRANCH  14  17
ENDBRANCH  10  11
ENDBRANCH   1  10
BRANCH   1  24
ATOM     24  C   UNL     1       2.943   4.759  17.713  0.00  0.00    +0.000 C 
BRANCH  24  25
ATOM     25  C   UNL     1       4.088   4.822  16.708  0.00  0.00    +0.000 A 
ATOM     26  C   UNL     1       4.725   6.016  16.340  0.00  0.00    +0.000 A 
ATOM     27  C   UNL     1       5.756   6.043  15.406  0.00  0.00    +0.000 A 
ATOM     28  C   UNL     1       6.167   4.864  14.798  0.00  0.00    +0.000 A 
ATOM     29  C   UNL     1       5.604   3.651  15.194  0.00  0.00    +0.000 A 
ATOM     30  C   UNL     1       4.582   3.629  16.152  0.00  0.00    +0.000 A 
BRANCH  28  31
ATOM     31  C   UNL     1       7.223   4.879  13.761  0.00  0.00    +0.000 C 
ATOM     32  O   UNL     1       7.149   4.232  12.732  0.00  0.00    +0.000 OA
BRANCH  31  33
ATOM     33  O   UNL     1       8.262   5.696  14.048  0.00  0.00    +0.000 OA
ATOM     34  H   UNL     1       8.034   6.477  14.582  0.00  0.00    +0.000 HD
ENDBRANCH  31  33
ENDBRANCH  28  31
ENDBRANCH  24  25
ENDBRANCH   1  24
TORSDOF 13
ENDMDL
MODEL 4
REMARK VINA RESULT:      -6.8      1.487      1.809
REMARK  Name = 
REMARK  15 active torsions:
REMARK  status: ('A' for Active; 'I' for Inactive)
REMARK    1  A    between atoms: C_1  and  O_2
REMARK    2  A    between atoms: O_2  and  C_3
REMARK    3  A    between atoms: C_3  and  C_5
REMARK    4  A    between atoms: C_5  and  C_6
REMARK    5  A    between atoms: C_5  and  C_18
REMARK    6  A    between atoms: C_5  and  C_28
REMARK    7  A    between atoms: C_6  and  C_7
REMARK    8  A    between atoms: C_10  and  N_11
REMARK    9  A    between atoms: N_11  and  S_12
REMARK   10  A    between atoms: S_12  and  O_15
REMARK   11  A    between atoms: C_18  and  C_19
REMARK   12  A    between atoms: C_22  and  C_23
REMARK   13  A    between atoms: C_23  and  O_25
REMARK   14  A    between atoms: C_28  and  O_30
REMARK   15  A    between atoms: O_30  and  C_31
REMARK                            x       y       z     vdW  Elec       q    Type
REMARK                         _______ _______ _______ _____ _____    ______ ____
ROOT
ATOM      1  C   UNL     1       3.124   5.142  19.567  0.00  0.00    +0.000 C 
ENDROOT
BRANCH   1   2
ATOM      2  C   UNL     1       4.567   4.631  19.638  0.00  0.00    +0.000 C 
ATOM      3  O   UNL     1       4.898   3.454  19.556  0.00  0.00    +0.000 OA
BRANCH   2   5
ATOM      4  C   UNL     1       6.810   5.296  19.267  0.00  0.00    +0.000 C 
ATOM      5  O   UNL     1       5.479   5.648  19.676  0.00  0.00    +0.000 OA
ENDBRANCH   2   5
ENDBRANCH   1   2
BRANCH   1   6
ATOM      6  C   UNL     1       2.150   4.063  20.023  0.00  0.00    +0.000 C 
ATOM      7  O   UNL     1       1.481   4.095  21.045  0.00  0.00    +0.000 OA
BRANCH   6   8
ATOM      8  O   UNL     1       2.086   3.040  19.116  0.00  0.00    +0.000 OA
ATOM      9  C   UNL     1       0.754   2.604  18.832  0.00  0.00    +0.000 C 
ENDBRANCH   6   8
ENDBRANCH   1   6
BRANCH   1  10
ATOM     10  C   UNL     1       2.860   6.377  20.491  0.00  0.00    +0.000 C 
BRANCH  10  11
ATOM     11  C   UNL     1       2.032   7.479  19.853  0.00  0.00    +0.000 A 
ATOM     12  C   UNL     1       2.340   7.946  18.570  0.00  0.00    +0.000 A 
ATOM     13  C   UNL     1       1.744   9.109  18.082  0.00  0.00    +0.000 A 
ATOM     14  C   UNL     1       0.818   9.799  18.862  0.00  0.00    +0.000 A 
ATOM     15  C   UNL     1       0.411   9.281  20.086  0.00  0.00    +0.000 A 
ATOM     16  C   UNL     1       1.015   8.123  20.579  0.00  0.00    +0.000 A 
BRANCH  14  17
ATOM     17  N   UNL     1       0.281  11.032  18.404  0.00  0.00    +0.000 N 
ATOM     18  H   UNL     1       0.802  11.473  17.647  0.00  0.00    +0.000 HD
BRANCH  17  19
ATOM     19  S   UNL     1      -1.359  11.089  18.071  0.00  0.00    +0.000 S 
ATOM     20  O   UNL     1      -1.743   9.930  17.300  0.00  0.00    +0.000 OA
ATOM     21  O   UNL     1      -2.016  11.459  19.301  0.00  0.00    +0.000 OA
BRANCH  19  22
ATOM     22  O   UNL     1      -1.503  12.340  17.061  0.00  0.00    +0.000 OA
ATOM     23  H   UNL     1      -2.184  12.926  17.453  0.00  0.00    +0.000 HD
ENDBRANCH  19  22
ENDBRANCH  17  19
ENDBRANCH  14  17
ENDBRANCH  10  11
ENDBRANCH   1  10
BRANCH   1  24
ATOM     24  C   UNL     1       2.865   5.558  18.080  0.00  0.00    +0.000 C 
BRANCH  24  25
ATOM     25  C   UNL     1       3.963   5.374  17.038  0.00  0.00    +0.000 A 
ATOM     26  C   UNL     1       4.731   6.434  16.533  0.00  0.00    +0.000 A 
ATOM     27  C   UNL     1       5.714   6.237  15.569  0.00  0.00    +0.000 A 
ATOM     28  C   UNL     1       5.944   4.962  15.068  0.00  0.00    +0.000 A 
ATOM     29  C   UNL     1       5.248   3.876  15.601  0.00  0.00    +0.000 A 
ATOM     30  C   UNL     1       4.276   4.080  16.588  0.00  0.00    +0.000 A 
BRANCH  28  31
ATOM     31  C   UNL     1       6.946   4.740  14.002  0.00  0.00    +0.000 C 
ATOM     32  O   UNL     1       7.899   5.478  13.826  0.00  0.00    +0.000 OA
BRANCH  31  33
ATOM     33  O   UNL     1       6.723   3.632  13.261  0.00  0.00    +0.000 OA
ATOM     34  H   UNL     1       6.436   3.802  12.346  0.00  0.00    +0.000 HD
ENDBRANCH  31  33
ENDBRANCH  28  31
ENDBRANCH  24  25
ENDBRANCH   1  24
TORSDOF 13
ENDMDL
MODEL 5
REMARK VINA RESULT:      -6.7      1.181      1.720
REMARK  Name = 
REMARK  15 active torsions:
REMARK  status: ('A' for Active; 'I' for Inactive)
REMARK    1  A    between atoms: C_1  and  O_2
REMARK    2  A    between atoms: O_2  and  C_3
REMARK    3  A    between atoms: C_3  and  C_5
REMARK    4  A    between atoms: C_5  and  C_6
REMARK    5  A    between atoms: C_5  and  C_18
REMARK    6  A    between atoms: C_5  and  C_28
REMARK    7  A    between atoms: C_6  and  C_7
REMARK    8  A    between atoms: C_10  and  N_11
REMARK    9  A    between atoms: N_11  and  S_12
REMARK   10  A    between atoms: S_12  and  O_15
REMARK   11  A    between atoms: C_18  and  C_19
REMARK   12  A    between atoms: C_22  and  C_23
REMARK   13  A    between atoms: C_23  and  O_25
REMARK   14  A    between atoms: C_28  and  O_30
REMARK   15  A    between atoms: O_30  and  C_31
REMARK                            x       y       z     vdW  Elec       q    Type
REMARK                         _______ _______ _______ _____ _____    ______ ____
ROOT
ATOM      1  C   UNL     1       3.303   4.734  19.267  0.00  0.00    +0.000 C 
ENDROOT
BRANCH   1   2
ATOM      2  C   UNL     1       4.428   3.706  19.433  0.00  0.00    +0.000 C 
ATOM      3  O   UNL     1       5.624   3.955  19.342  0.00  0.00    +0.000 OA
BRANCH   2   5
ATOM      4  C   UNL     1       3.973   1.466  18.812  0.00  0.00    +0.000 C 
ATOM      5  O   UNL     1       3.963   2.483  19.826  0.00  0.00    +0.000 OA
ENDBRANCH   2   5
ENDBRANCH   1   2
BRANCH   1   6
ATOM      6  C   UNL     1       2.115   4.376  20.149  0.00  0.00    +0.000 C 
ATOM      7  O   UNL     1       2.106   4.394  21.371  0.00  0.00    +0.000 OA
BRANCH   6   8
ATOM      8  O   UNL     1       1.019   4.053  19.396  0.00  0.00    +0.000 OA
ATOM      9  C   UNL     1       0.562   2.712  19.588  0.00  0.00    +0.000 C 
ENDBRANCH   6   8
ENDBRANCH   1   6
BRANCH   1  10
ATOM     10  C   UNL     1       3.725   6.183  19.681  0.00  0.00    +0.000 C 
BRANCH  10  11
ATOM     11  C   UNL     1       2.733   7.266  19.292  0.00  0.00    +0.000 A 
ATOM     12  C   UNL     1       2.734   7.799  17.998  0.00  0.00    +0.000 A 
ATOM     13  C   UNL     1       1.998   8.948  17.709  0.00  0.00    +0.000 A 
ATOM     14  C   UNL     1       1.237   9.558  18.704  0.00  0.00    +0.000 A 
ATOM     15  C   UNL     1       1.128   8.972  19.960  0.00  0.00    +0.000 A 
ATOM     16  C   UNL     1       1.873   7.827  20.252  0.00  0.00    +0.000 A 
BRANCH  14  17
ATOM     17  N   UNL     1       0.562  10.779  18.435  0.00  0.00    +0.000 N 
ATOM     18  H   UNL     1       0.995  11.361  17.719  0.00  0.00    +0.000 HD
BRANCH  17  19
ATOM     19  S   UNL     1      -1.092  10.714  18.187  0.00  0.00    +0.000 S 
ATOM     20  O   UNL     1      -1.621  12.052  18.065  0.00  0.00    +0.000 OA
ATOM     21  O   UNL     1      -1.319   9.694  17.193  0.00  0.00    +0.000 OA
BRANCH  19  22
ATOM     22  O   UNL     1      -1.670  10.152  19.585  0.00  0.00    +0.000 OA
ATOM     23  H   UNL     1      -1.235   9.286  19.728  0.00  0.00    +0.000 HD
ENDBRANCH  19  22
ENDBRANCH  17  19
ENDBRANCH  14  17
ENDBRANCH  10  11
ENDBRANCH   1  10
BRANCH   1  24
ATOM     24  C   UNL     1       2.913   4.734  17.751  0.00  0.00    +0.000 C 
BRANCH  24  25
ATOM     25  C   UNL     1       4.004   4.735  16.686  0.00  0.00    +0.000 A 
ATOM     26  C   UNL     1       4.418   3.580  16.005  0.00  0.00    +0.000 A 
ATOM     27  C   UNL     1       5.428   3.611  15.050  0.00  0.00    +0.000 A 
ATOM     28  C   UNL     1       6.070   4.808  14.762  0.00  0.00    +0.000 A 
ATOM     29  C   UNL     1       5.635   5.987  15.368  0.00  0.00    +0.000 A 
ATOM     30  C   UNL     1       4.601   5.952  16.312  0.00  0.00    +0.000 A 
BRANCH  28  31
ATOM     31  C   UNL     1       7.186   4.851  13.791  0.00  0.00    +0.000 C 
ATOM     32  O   UNL     1       7.186   4.212  12.754  0.00  0.00    +0.000 OA
BRANCH  31  33
ATOM     33  O   UNL     1       8.192   5.683  14.146  0.00  0.00    +0.000 OA
ATOM     34  H   UNL     1       9.049   5.247  14.296  0.00  0.00    +0.000 HD
ENDBRANCH  31  33
ENDBRANCH  28  31
ENDBRANCH  24  25
ENDBRANCH   1  24
TORSDOF 13
ENDMDL
MODEL 6
REMARK VINA RESULT:      -6.7      1.111      1.959
REMARK  Name = 
REMARK  15 active torsions:
REMARK  status: ('A' for Active; 'I' for Inactive)
REMARK    1  A    between atoms: C_1  and  O_2
REMARK    2  A    between atoms: O_2  and  C_3
REMARK    3  A    between atoms: C_3  and  C_5
REMARK    4  A    between atoms: C_5  and  C_6
REMARK    5  A    between atoms: C_5  and  C_18
REMARK    6  A    between atoms: C_5  and  C_28
REMARK    7  A    between atoms: C_6  and  C_7
REMARK    8  A    between atoms: C_10  and  N_11
REMARK    9  A    between atoms: N_11  and  S_12
REMARK   10  A    between atoms: S_12  and  O_15
REMARK   11  A    between atoms: C_18  and  C_19
REMARK   12  A    between atoms: C_22  and  C_23
REMARK   13  A    between atoms: C_23  and  O_25
REMARK   14  A    between atoms: C_28  and  O_30
REMARK   15  A    between atoms: O_30  and  C_31
REMARK                            x       y       z     vdW  Elec       q    Type
REMARK                         _______ _______ _______ _____ _____    ______ ____
ROOT
ATOM      1  C   UNL     1       2.744   5.312  19.636  0.00  0.00    +0.000 C 
ENDROOT
BRANCH   1   2
ATOM      2  C   UNL     1       4.118   4.642  19.735  0.00  0.00    +0.000 C 
ATOM      3  O   UNL     1       4.319   3.437  19.640  0.00  0.00    +0.000 OA
BRANCH   2   5
ATOM      4  C   UNL     1       6.403   5.101  19.309  0.00  0.00    +0.000 C 
ATOM      5  O   UNL     1       5.136   5.550  19.817  0.00  0.00    +0.000 OA
ENDBRANCH   2   5
ENDBRANCH   1   2
BRANCH   1   6
ATOM      6  C   UNL     1       1.637   4.315  19.951  0.00  0.00    +0.000 C 
ATOM      7  O   UNL     1       1.284   3.975  21.071  0.00  0.00    +0.000 OA
BRANCH   6   8
ATOM      8  O   UNL     1       1.046   3.854  18.807  0.00  0.00    +0.000 OA
ATOM      9  C   UNL     1       1.074   2.430  18.677  0.00  0.00    +0.000 C 
ENDBRANCH   6   8
ENDBRANCH   1   6
BRANCH   1  10
ATOM     10  C   UNL     1       2.558   6.494  20.645  0.00  0.00    +0.000 C 
BRANCH  10  11
ATOM     11  C   UNL     1       1.919   7.738  20.051  0.00  0.00    +0.000 A 
ATOM     12  C   UNL     1       0.931   8.434  20.756  0.00  0.00    +0.000 A 
ATOM     13  C   UNL     1       0.178   9.423  20.123  0.00  0.00    +0.000 A 
ATOM     14  C   UNL     1       0.423   9.739  18.788  0.00  0.00    +0.000 A 
ATOM     15  C   UNL     1       1.480   9.143  18.110  0.00  0.00    +0.000 A 
ATOM     16  C   UNL     1       2.228   8.147  18.742  0.00  0.00    +0.000 A 
BRANCH  14  17
ATOM     17  N   UNL     1      -0.405  10.679  18.116  0.00  0.00    +0.000 N 
ATOM     18  H   UNL     1      -1.353  10.357  17.925  0.00  0.00    +0.000 HD
BRANCH  17  19
ATOM     19  S   UNL     1      -0.447  12.242  18.712  0.00  0.00    +0.000 S 
ATOM     20  O   UNL     1      -1.533  12.378  19.653  0.00  0.00    +0.000 OA
ATOM     21  O   UNL     1       0.913  12.596  19.036  0.00  0.00    +0.000 OA
BRANCH  19  22
ATOM     22  O   UNL     1      -0.876  13.130  17.434  0.00  0.00    +0.000 OA
ATOM     23  H   UNL     1      -0.355  13.958  17.493  0.00  0.00    +0.000 HD
ENDBRANCH  19  22
ENDBRANCH  17  19
ENDBRANCH  14  17
ENDBRANCH  10  11
ENDBRANCH   1  10
BRANCH   1  24
ATOM     24  C   UNL     1       2.617   5.867  18.177  0.00  0.00    +0.000 C 
BRANCH  24  25
ATOM     25  C   UNL     1       3.689   5.538  17.144  0.00  0.00    +0.000 A 
ATOM     26  C   UNL     1       3.900   4.247  16.636  0.00  0.00    +0.000 A 
ATOM     27  C   UNL     1       4.898   3.976  15.706  0.00  0.00    +0.000 A 
ATOM     28  C   UNL     1       5.732   4.998  15.271  0.00  0.00    +0.000 A 
ATOM     29  C   UNL     1       5.504   6.305  15.701  0.00  0.00    +0.000 A 
ATOM     30  C   UNL     1       4.481   6.574  16.619  0.00  0.00    +0.000 A 
BRANCH  28  31
ATOM     31  C   UNL     1       6.835   4.718  14.325  0.00  0.00    +0.000 C 
ATOM     32  O   UNL     1       7.823   5.425  14.234  0.00  0.00    +0.000 OA
BRANCH  31  33
ATOM     33  O   UNL     1       6.660   3.595  13.592  0.00  0.00    +0.000 OA
ATOM     34  H   UNL     1       7.433   3.324  13.067  0.00  0.00    +0.000 HD
ENDBRANCH  31  33
ENDBRANCH  28  31
ENDBRANCH  24  25
ENDBRANCH   1  24
TORSDOF 13
ENDMDL
MODEL 7
REMARK VINA RESULT:      -6.6      1.002      1.473
REMARK  Name = 
REMARK  15 active torsions:
REMARK  status: ('A' for Active; 'I' for Inactive)
REMARK    1  A    between atoms: C_1  and  O_2
REMARK    2  A    between atoms: O_2  and  C_3
REMARK    3  A    between atoms: C_3  and  C_5
REMARK    4  A    between atoms: C_5  and  C_6
REMARK    5  A    between atoms: C_5  and  C_18
REMARK    6  A    between atoms: C_5  and  C_28
REMARK    7  A    between atoms: C_6  and  C_7
REMARK    8  A    between atoms: C_10  and  N_11
REMARK    9  A    between atoms: N_11  and  S_12
REMARK   10  A    between atoms: S_12  and  O_15
REMARK   11  A    between atoms: C_18  and  C_19
REMARK   12  A    between atoms: C_22  and  C_23
REMARK   13  A    between atoms: C_23  and  O_25
REMARK   14  A    between atoms: C_28  and  O_30
REMARK   15  A    between atoms: O_30  and  C_31
REMARK                            x       y       z     vdW  Elec       q    Type
REMARK                         _______ _______ _______ _____ _____    ______ ____
ROOT
ATOM      1  C   UNL     1       3.220   5.085  19.492  0.00  0.00    +0.000 C 
ENDROOT
BRANCH   1   2
ATOM      2  C   UNL     1       4.693   4.667  19.570  0.00  0.00    +0.000 C 
ATOM      3  O   UNL     1       5.101   3.517  19.461  0.00  0.00    +0.000 OA
BRANCH   2   5
ATOM      4  C   UNL     1       6.900   5.477  19.288  0.00  0.00    +0.000 C 
ATOM      5  O   UNL     1       5.535   5.739  19.650  0.00  0.00    +0.000 OA
ENDBRANCH   2   5
ENDBRANCH   1   2
BRANCH   1   6
ATOM      6  C   UNL     1       2.312   3.922  19.873  0.00  0.00    +0.000 C 
ATOM      7  O   UNL     1       1.651   3.252  19.093  0.00  0.00    +0.000 OA
BRANCH   6   8
ATOM      8  O   UNL     1       2.347   3.689  21.220  0.00  0.00    +0.000 OA
ATOM      9  C   UNL     1       1.397   2.714  21.661  0.00  0.00    +0.000 C 
ENDBRANCH   6   8
ENDBRANCH   1   6
BRANCH   1  10
ATOM     10  C   UNL     1       2.856   6.252  20.469  0.00  0.00    +0.000 C 
BRANCH  10  11
ATOM     11  C   UNL     1       2.070   7.386  19.835  0.00  0.00    +0.000 A 
ATOM     12  C   UNL     1       2.390   7.841  18.550  0.00  0.00    +0.000 A 
ATOM     13  C   UNL     1       1.838   9.026  18.065  0.00  0.00    +0.000 A 
ATOM     14  C   UNL     1       0.945   9.753  18.849  0.00  0.00    +0.000 A 
ATOM     15  C   UNL     1       0.523   9.252  20.076  0.00  0.00    +0.000 A 
ATOM     16  C   UNL     1       1.083   8.070  20.565  0.00  0.00    +0.000 A 
BRANCH  14  17
ATOM     17  N   UNL     1       0.455  11.006  18.393  0.00  0.00    +0.000 N 
ATOM     18  H   UNL     1      -0.520  11.195  18.622  0.00  0.00    +0.000 HD
BRANCH  17  19
ATOM     19  S   UNL     1       1.383  12.364  18.705  0.00  0.00    +0.000 S 
ATOM     20  O   UNL     1       0.643  13.553  18.356  0.00  0.00    +0.000 OA
ATOM     21  O   UNL     1       1.974  12.168  20.006  0.00  0.00    +0.000 OA
BRANCH  19  22
ATOM     22  O   UNL     1       2.577  12.271  17.622  0.00  0.00    +0.000 OA
ATOM     23  H   UNL     1       3.368  12.648  18.060  0.00  0.00    +0.000 HD
ENDBRANCH  19  22
ENDBRANCH  17  19
ENDBRANCH  14  17
ENDBRANCH  10  11
ENDBRANCH   1  10
BRANCH   1  24
ATOM     24  C   UNL     1       2.963   5.557  18.022  0.00  0.00    +0.000 C 
BRANCH  24  25
ATOM     25  C   UNL     1       4.035   5.347  16.958  0.00  0.00    +0.000 A 
ATOM     26  C   UNL     1       4.809   6.390  16.428  0.00  0.00    +0.000 A 
ATOM     27  C   UNL     1       5.768   6.170  15.445  0.00  0.00    +0.000 A 
ATOM     28  C   UNL     1       5.966   4.888  14.950  0.00  0.00    +0.000 A 
ATOM     29  C   UNL     1       5.265   3.817  15.506  0.00  0.00    +0.000 A 
ATOM     30  C   UNL     1       4.317   4.044  16.512  0.00  0.00    +0.000 A 
BRANCH  28  31
ATOM     31  C   UNL     1       6.941   4.641  13.865  0.00  0.00    +0.000 C 
ATOM     32  O   UNL     1       7.898   5.366  13.658  0.00  0.00    +0.000 OA
BRANCH  31  33
ATOM     33  O   UNL     1       6.690   3.526  13.142  0.00  0.00    +0.000 OA
ATOM     34  H   UNL     1       7.103   2.714  13.486  0.00  0.00    +0.000 HD
ENDBRANCH  31  33
ENDBRANCH  28  31
ENDBRANCH  24  25
ENDBRANCH   1  24
TORSDOF 13
ENDMDL
MODEL 8
REMARK VINA RESULT:      -6.6      0.937      1.375
REMARK  Name = 
REMARK  15 active torsions:
REMARK  status: ('A' for Active; 'I' for Inactive)
REMARK    1  A    between atoms: C_1  and  O_2
REMARK    2  A    between atoms: O_2  and  C_3
REMARK    3  A    between atoms: C_3  and  C_5
REMARK    4  A    between atoms: C_5  and  C_6
REMARK    5  A    between atoms: C_5  and  C_18
REMARK    6  A    between atoms: C_5  and  C_28
REMARK    7  A    between atoms: C_6  and  C_7
REMARK    8  A    between atoms: C_10  and  N_11
REMARK    9  A    between atoms: N_11  and  S_12
REMARK   10  A    between atoms: S_12  and  O_15
REMARK   11  A    between atoms: C_18  and  C_19
REMARK   12  A    between atoms: C_22  and  C_23
REMARK   13  A    between atoms: C_23  and  O_25
REMARK   14  A    between atoms: C_28  and  O_30
REMARK   15  A    between atoms: O_30  and  C_31
REMARK                            x       y       z     vdW  Elec       q    Type
REMARK                         _______ _______ _______ _____ _____    ______ ____
ROOT
ATOM      1  C   UNL     1       3.636   5.127  19.392  0.00  0.00    +0.000 C 
ENDROOT
BRANCH   1   2
ATOM      2  C   UNL     1       4.989   4.417  19.510  0.00  0.00    +0.000 C 
ATOM      3  O   UNL     1       5.155   3.206  19.426  0.00  0.00    +0.000 OA
BRANCH   2   5
ATOM      4  C   UNL     1       7.172   4.977  18.781  0.00  0.00    +0.000 C 
ATOM      5  O   UNL     1       6.033   5.295  19.596  0.00  0.00    +0.000 OA
ENDBRANCH   2   5
ENDBRANCH   1   2
BRANCH   1   6
ATOM      6  C   UNL     1       2.595   4.445  20.270  0.00  0.00    +0.000 C 
ATOM      7  O   UNL     1       2.350   4.729  21.433  0.00  0.00    +0.000 OA
BRANCH   6   8
ATOM      8  O   UNL     1       1.925   3.473  19.578  0.00  0.00    +0.000 OA
ATOM      9  C   UNL     1       0.605   3.223  20.068  0.00  0.00    +0.000 C 
ENDBRANCH   6   8
ENDBRANCH   1   6
BRANCH   1  10
ATOM     10  C   UNL     1       3.679   6.620  19.857  0.00  0.00    +0.000 C 
BRANCH  10  11
ATOM     11  C   UNL     1       2.533   7.476  19.344  0.00  0.00    +0.000 A 
ATOM     12  C   UNL     1       2.511   7.910  18.014  0.00  0.00    +0.000 A 
ATOM     13  C   UNL     1       1.599   8.884  17.607  0.00  0.00    +0.000 A 
ATOM     14  C   UNL     1       0.688   9.412  18.518  0.00  0.00    +0.000 A 
ATOM     15  C   UNL     1       0.615   8.903  19.810  0.00  0.00    +0.000 A 
ATOM     16  C   UNL     1       1.535   7.935  20.220  0.00  0.00    +0.000 A 
BRANCH  14  17
ATOM     17  N   UNL     1      -0.178  10.468  18.128  0.00  0.00    +0.000 N 
ATOM     18  H   UNL     1      -1.171  10.235  18.133  0.00  0.00    +0.000 HD
BRANCH  17  19
ATOM     19  S   UNL     1       0.054  11.967  18.836  0.00  0.00    +0.000 S 
ATOM     20  O   UNL     1      -0.808  12.103  19.986  0.00  0.00    +0.000 OA
ATOM     21  O   UNL     1       1.480  12.173  18.904  0.00  0.00    +0.000 OA
BRANCH  19  22
ATOM     22  O   UNL     1      -0.524  13.004  17.743  0.00  0.00    +0.000 OA
ATOM     23  H   UNL     1      -0.504  12.531  16.885  0.00  0.00    +0.000 HD
ENDBRANCH  19  22
ENDBRANCH  17  19
ENDBRANCH  14  17
ENDBRANCH  10  11
ENDBRANCH   1  10
BRANCH   1  24
ATOM     24  C   UNL     1       3.233   5.078  17.880  0.00  0.00    +0.000 C 
BRANCH  24  25
ATOM     25  C   UNL     1       4.314   5.077  16.805  0.00  0.00    +0.000 A 
ATOM     26  C   UNL     1       4.913   6.246  16.314  0.00  0.00    +0.000 A 
ATOM     27  C   UNL     1       5.885   6.213  15.320  0.00  0.00    +0.000 A 
ATOM     28  C   UNL     1       6.273   4.997  14.773  0.00  0.00    +0.000 A 
ATOM     29  C   UNL     1       5.749   3.810  15.289  0.00  0.00    +0.000 A 
ATOM     30  C   UNL     1       4.788   3.851  16.307  0.00  0.00    +0.000 A 
BRANCH  28  31
ATOM     31  C   UNL     1       7.264   4.945  13.676  0.00  0.00    +0.000 C 
ATOM     32  O   UNL     1       8.317   5.556  13.705  0.00  0.00    +0.000 OA
BRANCH  31  33
ATOM     33  O   UNL     1       6.907   4.138  12.651  0.00  0.00    +0.000 OA
ATOM     34  H   UNL     1       7.008   4.531  11.766  0.00  0.00    +0.000 HD
ENDBRANCH  31  33
ENDBRANCH  28  31
ENDBRANCH  24  25
ENDBRANCH   1  24
TORSDOF 13
ENDMDL
MODEL 9
REMARK VINA RESULT:      -6.6      1.565      2.017
REMARK  Name = 
REMARK  15 active torsions:
REMARK  status: ('A' for Active; 'I' for Inactive)
REMARK    1  A    between atoms: C_1  and  O_2
REMARK    2  A    between atoms: O_2  and  C_3
REMARK    3  A    between atoms: C_3  and  C_5
REMARK    4  A    between atoms: C_5  and  C_6
REMARK    5  A    between atoms: C_5  and  C_18
REMARK    6  A    between atoms: C_5  and  C_28
REMARK    7  A    between atoms: C_6  and  C_7
REMARK    8  A    between atoms: C_10  and  N_11
REMARK    9  A    between atoms: N_11  and  S_12
REMARK   10  A    between atoms: S_12  and  O_15
REMARK   11  A    between atoms: C_18  and  C_19
REMARK   12  A    between atoms: C_22  and  C_23
REMARK   13  A    between atoms: C_23  and  O_25
REMARK   14  A    between atoms: C_28  and  O_30
REMARK   15  A    between atoms: O_30  and  C_31
REMARK                            x       y       z     vdW  Elec       q    Type
REMARK                         _______ _______ _______ _____ _____    ______ ____
ROOT
ATOM      1  C   UNL     1       2.475   5.320  19.705  0.00  0.00    +0.000 C 
ENDROOT
BRANCH   1   2
ATOM      2  C   UNL     1       3.854   4.689  19.921  0.00  0.00    +0.000 C 
ATOM      3  O   UNL     1       4.918   5.295  19.869  0.00  0.00    +0.000 OA
BRANCH   2   5
ATOM      4  C   UNL     1       4.602   2.469  19.570  0.00  0.00    +0.000 C 
ATOM      5  O   UNL     1       3.775   3.381  20.309  0.00  0.00    +0.000 OA
ENDBRANCH   2   5
ENDBRANCH   1   2
BRANCH   1   6
ATOM      6  C   UNL     1       1.379   4.268  19.823  0.00  0.00    +0.000 C 
ATOM      7  O   UNL     1       0.833   3.924  20.861  0.00  0.00    +0.000 OA
BRANCH   6   8
ATOM      8  O   UNL     1       1.046   3.763  18.596  0.00  0.00    +0.000 OA
ATOM      9  C   UNL     1       0.888   2.341  18.582  0.00  0.00    +0.000 C 
ENDBRANCH   6   8
ENDBRANCH   1   6
BRANCH   1  10
ATOM     10  C   UNL     1       2.127   6.422  20.760  0.00  0.00    +0.000 C 
BRANCH  10  11
ATOM     11  C   UNL     1       1.753   7.770  20.168  0.00  0.00    +0.000 A 
ATOM     12  C   UNL     1       0.942   8.659  20.882  0.00  0.00    +0.000 A 
ATOM     13  C   UNL     1       0.401   9.780  20.252  0.00  0.00    +0.000 A 
ATOM     14  C   UNL     1       0.687  10.034  18.912  0.00  0.00    +0.000 A 
ATOM     15  C   UNL     1       1.588   9.229  18.224  0.00  0.00    +0.000 A 
ATOM     16  C   UNL     1       2.121   8.101  18.852  0.00  0.00    +0.000 A 
BRANCH  14  17
ATOM     17  N   UNL     1       0.064  11.123  18.246  0.00  0.00    +0.000 N 
ATOM     18  H   UNL     1       0.497  11.392  17.363  0.00  0.00    +0.000 HD
BRANCH  17  19
ATOM     19  S   UNL     1      -1.600  11.077  18.069  0.00  0.00    +0.000 S 
ATOM     20  O   UNL     1      -2.007   9.771  17.605  0.00  0.00    +0.000 OA
ATOM     21  O   UNL     1      -2.157  11.692  19.249  0.00  0.00    +0.000 OA
BRANCH  19  22
ATOM     22  O   UNL     1      -1.884  12.076  16.833  0.00  0.00    +0.000 OA
ATOM     23  H   UNL     1      -2.817  11.924  16.572  0.00  0.00    +0.000 HD
ENDBRANCH  19  22
ENDBRANCH  17  19
ENDBRANCH  14  17
ENDBRANCH  10  11
ENDBRANCH   1  10
BRANCH   1  24
ATOM     24  C   UNL     1       2.494   5.971  18.281  0.00  0.00    +0.000 C 
BRANCH  24  25
ATOM     25  C   UNL     1       3.632   5.653  17.317  0.00  0.00    +0.000 A 
ATOM     26  C   UNL     1       4.567   6.607  16.887  0.00  0.00    +0.000 A 
ATOM     27  C   UNL     1       5.583   6.291  15.992  0.00  0.00    +0.000 A 
ATOM     28  C   UNL     1       5.680   5.001  15.486  0.00  0.00    +0.000 A 
ATOM     29  C   UNL     1       4.812   4.011  15.947  0.00  0.00    +0.000 A 
ATOM     30  C   UNL     1       3.805   4.333  16.866  0.00  0.00    +0.000 A 
BRANCH  28  31
ATOM     31  C   UNL     1       6.720   4.659  14.490  0.00  0.00    +0.000 C 
ATOM     32  O   UNL     1       6.570   3.791  13.648  0.00  0.00    +0.000 OA
BRANCH  31  33
ATOM     33  O   UNL     1       7.839   5.413  14.583  0.00  0.00    +0.000 OA
ATOM     34  H   UNL     1       7.798   6.265  14.115  0.00  0.00    +0.000 HD
ENDBRANCH  31  33
ENDBRANCH  28  31
ENDBRANCH  24  25
ENDBRANCH   1  24
TORSDOF 13
ENDMDL
