MODEL 1
REMARK VINA RESULT:      -7.2      0.000      0.000
REMARK  Name = 
REMARK  7 active torsions:
REMARK  status: ('A' for Active; 'I' for Inactive)
REMARK    1  A    between atoms: C_1  and  O_2
REMARK    2  A    between atoms: O_2  and  C_3
REMARK    3  A    between atoms: C_4  and  O_5
REMARK    4  A    between atoms: C_11  and  O_12
REMARK    5  A    between atoms: O_12  and  C_13
REMARK    6  A    between atoms: C_18  and  O_19
REMARK    7  A    between atoms: O_19  and  C_20
REMARK                            x       y       z     vdW  Elec       q    Type
REMARK                         _______ _______ _______ _____ _____    ______ ____
ROOT
ATOM      1  C   UNL     1       2.044   3.541  19.563  0.00  0.00    +0.000 A 
ATOM      2  C   UNL     1       2.181   2.519  18.602  0.00  0.00    +0.000 A 
ATOM      3  C   UNL     1       3.167   2.539  17.616  0.00  0.00    +0.000 A 
ATOM      4  C   UNL     1       3.999   3.660  17.534  0.00  0.00    +0.000 A 
ATOM      5  C   UNL     1       3.849   4.675  18.468  0.00  0.00    +0.000 A 
ATOM      6  O   UNL     1       4.747   5.677  18.196  0.00  0.00    +0.000 OA
ATOM      7  C   UNL     1       5.452   5.323  17.076  0.00  0.00    +0.000 A 
ATOM      8  C   UNL     1       6.453   6.054  16.416  0.00  0.00    +0.000 A 
ATOM      9  C   UNL     1       7.001   5.468  15.261  0.00  0.00    +0.000 A 
ATOM     10  C   UNL     1       6.580   4.223  14.795  0.00  0.00    +0.000 A 
ATOM     11  C   UNL     1       5.590   3.512  15.476  0.00  0.00    +0.000 A 
ATOM     12  C   UNL     1       5.018   4.074  16.634  0.00  0.00    +0.000 A 
ATOM     13  C   UNL     1       2.901   4.674  19.512  0.00  0.00    +0.000 A 
ENDROOT
BRANCH   1  15
ATOM     14  C   UNL     1       1.284   2.815  21.721  0.00  0.00    +0.000 C 
ATOM     15  O   UNL     1       1.044   3.525  20.506  0.00  0.00    +0.000 OA
ENDBRANCH   1  15
BRANCH   2  16
ATOM     16  O   UNL     1       1.306   1.470  18.494  0.00  0.00    +0.000 OA
ATOM     17  H   UNL     1       0.727   1.687  17.745  0.00  0.00    +0.000 HD
ENDBRANCH   2  16
BRANCH   8  18
ATOM     18  O   UNL     1       6.978   7.297  16.728  0.00  0.00    +0.000 OA
ATOM     19  C   UNL     1       7.788   7.358  17.893  0.00  0.00    +0.000 C 
ENDBRANCH   8  18
BRANCH  13  20
ATOM     20  O   UNL     1       2.916   5.770  20.325  0.00  0.00    +0.000 OA
ATOM     21  C   UNL     1       2.111   6.894  20.010  0.00  0.00    +0.000 C 
ENDBRANCH  13  20
TORSDOF 4
ENDMDL
MODEL 2
REMARK VINA RESULT:      -6.8      2.414      5.159
REMARK  Name = 
REMARK  7 active torsions:
REMARK  status: ('A' for Active; 'I' for Inactive)
REMARK    1  A    between atoms: C_1  and  O_2
REMARK    2  A    between atoms: O_2  and  C_3
REMARK    3  A    between atoms: C_4  and  O_5
REMARK    4  A    between atoms: C_11  and  O_12
REMARK    5  A    between atoms: O_12  and  C_13
REMARK    6  A    between atoms: C_18  and  O_19
REMARK    7  A    between atoms: O_19  and  C_20
REMARK                            x       y       z     vdW  Elec       q    Type
REMARK                         _______ _______ _______ _____ _____    ______ ____
ROOT
ATOM      1  C   UNL     1       3.975   3.589  19.137  0.00  0.00    +0.000 A 
ATOM      2  C   UNL     1       4.371   4.255  17.959  0.00  0.00    +0.000 A 
ATOM      3  C   UNL     1       4.029   5.579  17.690  0.00  0.00    +0.000 A 
ATOM      4  C   UNL     1       3.192   6.242  18.592  0.00  0.00    +0.000 A 
ATOM      5  C   UNL     1       2.785   5.579  19.741  0.00  0.00    +0.000 A 
ATOM      6  O   UNL     1       1.963   6.401  20.471  0.00  0.00    +0.000 OA
ATOM      7  C   UNL     1       1.818   7.577  19.783  0.00  0.00    +0.000 A 
ATOM      8  C   UNL     1       1.044   8.695  20.134  0.00  0.00    +0.000 A 
ATOM      9  C   UNL     1       1.048   9.771  19.228  0.00  0.00    +0.000 A 
ATOM     10  C   UNL     1       1.785   9.736  18.044  0.00  0.00    +0.000 A 
ATOM     11  C   UNL     1       2.553   8.615  17.724  0.00  0.00    +0.000 A 
ATOM     12  C   UNL     1       2.567   7.519  18.609  0.00  0.00    +0.000 A 
ATOM     13  C   UNL     1       3.148   4.259  20.079  0.00  0.00    +0.000 A 
ENDROOT
BRANCH   1  15
ATOM     14  C   UNL     1       3.544   1.273  18.676  0.00  0.00    +0.000 C 
ATOM     15  O   UNL     1       4.290   2.271  19.372  0.00  0.00    +0.000 OA
ENDBRANCH   1  15
BRANCH   2  16
ATOM     16  O   UNL     1       5.044   3.634  16.939  0.00  0.00    +0.000 OA
ATOM     17  H   UNL     1       5.890   4.102  16.860  0.00  0.00    +0.000 HD
ENDBRANCH   2  16
BRANCH   8  18
ATOM     18  O   UNL     1       0.250   8.895  21.251  0.00  0.00    +0.000 OA
ATOM     19  C   UNL     1       0.928   9.269  22.441  0.00  0.00    +0.000 C 
ENDBRANCH   8  18
BRANCH  13  20
ATOM     20  O   UNL     1       2.641   3.790  21.256  0.00  0.00    +0.000 OA
ATOM     21  C   UNL     1       1.456   3.012  21.254  0.00  0.00    +0.000 C 
ENDBRANCH  13  20
TORSDOF 4
ENDMDL
MODEL 3
REMARK VINA RESULT:      -6.8      2.817      5.781
REMARK  Name = 
REMARK  7 active torsions:
REMARK  status: ('A' for Active; 'I' for Inactive)
REMARK    1  A    between atoms: C_1  and  O_2
REMARK    2  A    between atoms: O_2  and  C_3
REMARK    3  A    between atoms: C_4  and  O_5
REMARK    4  A    between atoms: C_11  and  O_12
REMARK    5  A    between atoms: O_12  and  C_13
REMARK    6  A    between atoms: C_18  and  O_19
REMARK    7  A    between atoms: O_19  and  C_20
REMARK                            x       y       z     vdW  Elec       q    Type
REMARK                         _______ _______ _______ _____ _____    ______ ____
ROOT
ATOM      1  C   UNL     1       1.370   9.678  19.469  0.00  0.00    +0.000 A 
ATOM      2  C   UNL     1       1.917   9.519  18.180  0.00  0.00    +0.000 A 
ATOM      3  C   UNL     1       2.397   8.297  17.710  0.00  0.00    +0.000 A 
ATOM      4  C   UNL     1       2.405   7.209  18.588  0.00  0.00    +0.000 A 
ATOM      5  C   UNL     1       1.886   7.372  19.864  0.00  0.00    +0.000 A 
ATOM      6  O   UNL     1       2.007   6.193  20.557  0.00  0.00    +0.000 OA
ATOM      7  C   UNL     1       2.628   5.283  19.742  0.00  0.00    +0.000 A 
ATOM      8  C   UNL     1       2.986   3.958  20.039  0.00  0.00    +0.000 A 
ATOM      9  C   UNL     1       3.644   3.243  19.022  0.00  0.00    +0.000 A 
ATOM     10  C   UNL     1       3.924   3.813  17.781  0.00  0.00    +0.000 A 
ATOM     11  C   UNL     1       3.549   5.130  17.509  0.00  0.00    +0.000 A 
ATOM     12  C   UNL     1       2.892   5.875  18.508  0.00  0.00    +0.000 A 
ATOM     13  C   UNL     1       1.344   8.574  20.364  0.00  0.00    +0.000 A 
ENDROOT
BRANCH   1  15
ATOM     14  C   UNL     1      -0.381  11.318  19.567  0.00  0.00    +0.000 C 
ATOM     15  O   UNL     1       0.934  10.898  19.931  0.00  0.00    +0.000 OA
ENDBRANCH   1  15
BRANCH   2  16
ATOM     16  O   UNL     1       2.111  10.564  17.315  0.00  0.00    +0.000 OA
ATOM     17  H   UNL     1       1.278  11.062  17.314  0.00  0.00    +0.000 HD
ENDBRANCH   2  16
BRANCH   8  18
ATOM     18  O   UNL     1       2.799   3.242  21.210  0.00  0.00    +0.000 OA
ATOM     19  C   UNL     1       1.483   2.763  21.446  0.00  0.00    +0.000 C 
ENDBRANCH   8  18
BRANCH  13  20
ATOM     20  O   UNL     1       0.884   8.526  21.648  0.00  0.00    +0.000 OA
ATOM     21  C   UNL     1      -0.508   8.437  21.896  0.00  0.00    +0.000 C 
ENDBRANCH  13  20
TORSDOF 4
ENDMDL
MODEL 4
REMARK VINA RESULT:      -6.4      2.039      5.698
REMARK  Name = 
REMARK  7 active torsions:
REMARK  status: ('A' for Active; 'I' for Inactive)
REMARK    1  A    between atoms: C_1  and  O_2
REMARK    2  A    between atoms: O_2  and  C_3
REMARK    3  A    between atoms: C_4  and  O_5
REMARK    4  A    between atoms: C_11  and  O_12
REMARK    5  A    between atoms: O_12  and  C_13
REMARK    6  A    between atoms: C_18  and  O_19
REMARK    7  A    between atoms: O_19  and  C_20
REMARK                            x       y       z     vdW  Elec       q    Type
REMARK                         _______ _______ _______ _____ _____    ______ ____
ROOT
ATOM      1  C   UNL     1       6.300   5.158  15.897  0.00  0.00    +0.000 A 
ATOM      2  C   UNL     1       5.674   3.897  15.980  0.00  0.00    +0.000 A 
ATOM      3  C   UNL     1       4.543   3.667  16.763  0.00  0.00    +0.000 A 
ATOM      4  C   UNL     1       4.065   4.713  17.557  0.00  0.00    +0.000 A 
ATOM      5  C   UNL     1       4.694   5.948  17.491  0.00  0.00    +0.000 A 
ATOM      6  O   UNL     1       4.079   6.818  18.356  0.00  0.00    +0.000 OA
ATOM      7  C   UNL     1       3.075   6.140  18.997  0.00  0.00    +0.000 A 
ATOM      8  C   UNL     1       2.203   6.619  19.988  0.00  0.00    +0.000 A 
ATOM      9  C   UNL     1       1.274   5.699  20.505  0.00  0.00    +0.000 A 
ATOM     10  C   UNL     1       1.214   4.380  20.057  0.00  0.00    +0.000 A 
ATOM     11  C   UNL     1       2.087   3.932  19.064  0.00  0.00    +0.000 A 
ATOM     12  C   UNL     1       3.033   4.828  18.529  0.00  0.00    +0.000 A 
ATOM     13  C   UNL     1       5.808   6.240  16.676  0.00  0.00    +0.000 A 
ENDROOT
BRANCH   1  15
ATOM     14  C   UNL     1       7.359   5.124  13.743  0.00  0.00    +0.000 C 
ATOM     15  O   UNL     1       7.436   5.360  15.149  0.00  0.00    +0.000 OA
ENDBRANCH   1  15
BRANCH   2  16
ATOM     16  O   UNL     1       6.173   2.772  15.377  0.00  0.00    +0.000 OA
ATOM     17  H   UNL     1       5.715   2.026  15.795  0.00  0.00    +0.000 HD
ENDBRANCH   2  16
BRANCH   8  18
ATOM     18  O   UNL     1       2.130   7.881  20.554  0.00  0.00    +0.000 OA
ATOM     19  C   UNL     1       0.921   8.193  21.231  0.00  0.00    +0.000 C 
ENDBRANCH   8  18
BRANCH  13  20
ATOM     20  O   UNL     1       6.280   7.518  16.757  0.00  0.00    +0.000 OA
ATOM     21  C   UNL     1       7.436   7.796  17.529  0.00  0.00    +0.000 C 
ENDBRANCH  13  20
TORSDOF 4
ENDMDL
MODEL 5
REMARK VINA RESULT:      -6.4      1.745      5.829
REMARK  Name = 
REMARK  7 active torsions:
REMARK  status: ('A' for Active; 'I' for Inactive)
REMARK    1  A    between atoms: C_1  and  O_2
REMARK    2  A    between atoms: O_2  and  C_3
REMARK    3  A    between atoms: C_4  and  O_5
REMARK    4  A    between atoms: C_11  and  O_12
REMARK    5  A    between atoms: O_12  and  C_13
REMARK    6  A    between atoms: C_18  and  O_19
REMARK    7  A    between atoms: O_19  and  C_20
REMARK                            x       y       z     vdW  Elec       q    Type
REMARK                         _______ _______ _______ _____ _____    ______ ____
ROOT
ATOM      1  C   UNL     1       6.761   6.094  17.124  0.00  0.00    +0.000 A 
ATOM      2  C   UNL     1       6.029   5.644  16.006  0.00  0.00    +0.000 A 
ATOM      3  C   UNL     1       4.879   4.865  16.122  0.00  0.00    +0.000 A 
ATOM      4  C   UNL     1       4.487   4.450  17.398  0.00  0.00    +0.000 A 
ATOM      5  C   UNL     1       5.220   4.876  18.496  0.00  0.00    +0.000 A 
ATOM      6  O   UNL     1       4.677   4.343  19.639  0.00  0.00    +0.000 OA
ATOM      7  C   UNL     1       3.615   3.555  19.276  0.00  0.00    +0.000 A 
ATOM      8  C   UNL     1       2.782   2.790  20.108  0.00  0.00    +0.000 A 
ATOM      9  C   UNL     1       1.775   2.043  19.471  0.00  0.00    +0.000 A 
ATOM     10  C   UNL     1       1.606   2.061  18.088  0.00  0.00    +0.000 A 
ATOM     11  C   UNL     1       2.443   2.838  17.285  0.00  0.00    +0.000 A 
ATOM     12  C   UNL     1       3.464   3.595  17.891  0.00  0.00    +0.000 A 
ATOM     13  C   UNL     1       6.359   5.706  18.431  0.00  0.00    +0.000 A 
ENDROOT
BRANCH   1  15
ATOM     14  C   UNL     1       7.912   8.168  17.496  0.00  0.00    +0.000 C 
ATOM     15  O   UNL     1       7.914   6.832  16.992  0.00  0.00    +0.000 OA
ENDBRANCH   1  15
BRANCH   2  16
ATOM     16  O   UNL     1       6.434   5.853  14.713  0.00  0.00    +0.000 OA
ATOM     17  H   UNL     1       6.077   5.108  14.204  0.00  0.00    +0.000 HD
ENDBRANCH   2  16
BRANCH   8  18
ATOM     18  O   UNL     1       2.814   2.646  21.486  0.00  0.00    +0.000 OA
ATOM     19  C   UNL     1       1.555   2.535  22.131  0.00  0.00    +0.000 C 
ENDBRANCH   8  18
BRANCH  13  20
ATOM     20  O   UNL     1       6.937   6.010  19.628  0.00  0.00    +0.000 OA
ATOM     21  C   UNL     1       8.172   5.414  19.988  0.00  0.00    +0.000 C 
ENDBRANCH  13  20
TORSDOF 4
ENDMDL
MODEL 6
REMARK VINA RESULT:      -6.2      2.488      5.394
REMARK  Name = 
REMARK  7 active torsions:
REMARK  status: ('A' for Active; 'I' for Inactive)
REMARK    1  A    between atoms: C_1  and  O_2
REMARK    2  A    between atoms: O_2  and  C_3
REMARK    3  A    between atoms: C_4  and  O_5
REMARK    4  A    between atoms: C_11  and  O_12
REMARK    5  A    between atoms: O_12  and  C_13
REMARK    6  A    between atoms: C_18  and  O_19
REMARK    7  A    between atoms: O_19  and  C_20
REMARK                            x       y       z     vdW  Elec       q    Type
REMARK                         _______ _______ _______ _____ _____    ______ ____
ROOT
ATOM      1  C   UNL     1       3.391   3.799  19.226  0.00  0.00    +0.000 A 
ATOM      2  C   UNL     1       2.745   3.847  20.478  0.00  0.00    +0.000 A 
ATOM      3  C   UNL     1       2.050   4.971  20.925  0.00  0.00    +0.000 A 
ATOM      4  C   UNL     1       2.066   6.119  20.127  0.00  0.00    +0.000 A 
ATOM      5  C   UNL     1       2.720   6.077  18.905  0.00  0.00    +0.000 A 
ATOM      6  O   UNL     1       2.628   7.305  18.298  0.00  0.00    +0.000 OA
ATOM      7  C   UNL     1       1.942   8.142  19.138  0.00  0.00    +0.000 A 
ATOM      8  C   UNL     1       1.636   9.499  18.947  0.00  0.00    +0.000 A 
ATOM      9  C   UNL     1       0.939  10.138  19.988  0.00  0.00    +0.000 A 
ATOM     10  C   UNL     1       0.564   9.463  21.149  0.00  0.00    +0.000 A 
ATOM     11  C   UNL     1       0.873   8.111  21.310  0.00  0.00    +0.000 A 
ATOM     12  C   UNL     1       1.574   7.443  20.287  0.00  0.00    +0.000 A 
ATOM     13  C   UNL     1       3.392   4.948  18.390  0.00  0.00    +0.000 A 
ENDROOT
BRANCH   1  15
ATOM     14  C   UNL     1       3.409   1.689  18.081  0.00  0.00    +0.000 C 
ATOM     15  O   UNL     1       4.103   2.697  18.815  0.00  0.00    +0.000 OA
ENDBRANCH   1  15
BRANCH   2  16
ATOM     16  O   UNL     1       2.822   2.836  21.400  0.00  0.00    +0.000 OA
ATOM     17  H   UNL     1       1.911   2.528  21.528  0.00  0.00    +0.000 HD
ENDBRANCH   2  16
BRANCH   8  18
ATOM     18  O   UNL     1       1.938  10.322  17.874  0.00  0.00    +0.000 OA
ATOM     19  C   UNL     1       2.229  11.676  18.188  0.00  0.00    +0.000 C 
ENDBRANCH   8  18
BRANCH  13  20
ATOM     20  O   UNL     1       3.973   5.114  17.167  0.00  0.00    +0.000 OA
ATOM     21  C   UNL     1       5.338   5.485  17.077  0.00  0.00    +0.000 C 
ENDBRANCH  13  20
TORSDOF 4
ENDMDL
MODEL 7
REMARK VINA RESULT:      -6.2      1.493      3.237
REMARK  Name = 
REMARK  7 active torsions:
REMARK  status: ('A' for Active; 'I' for Inactive)
REMARK    1  A    between atoms: C_1  and  O_2
REMARK    2  A    between atoms: O_2  and  C_3
REMARK    3  A    between atoms: C_4  and  O_5
REMARK    4  A    between atoms: C_11  and  O_12
REMARK    5  A    between atoms: O_12  and  C_13
REMARK    6  A    between atoms: C_18  and  O_19
REMARK    7  A    between atoms: O_19  and  C_20
REMARK                            x       y       z     vdW  Elec       q    Type
REMARK                         _______ _______ _______ _____ _____    ______ ____
ROOT
ATOM      1  C   UNL     1       1.803   4.451  19.670  0.00  0.00    +0.000 A 
ATOM      2  C   UNL     1       2.347   5.701  20.026  0.00  0.00    +0.000 A 
ATOM      3  C   UNL     1       3.398   6.293  19.327  0.00  0.00    +0.000 A 
ATOM      4  C   UNL     1       3.984   5.575  18.281  0.00  0.00    +0.000 A 
ATOM      5  C   UNL     1       3.461   4.334  17.944  0.00  0.00    +0.000 A 
ATOM      6  O   UNL     1       4.190   3.801  16.910  0.00  0.00    +0.000 OA
ATOM      7  C   UNL     1       5.194   4.680  16.600  0.00  0.00    +0.000 A 
ATOM      8  C   UNL     1       6.199   4.539  15.630  0.00  0.00    +0.000 A 
ATOM      9  C   UNL     1       7.133   5.587  15.536  0.00  0.00    +0.000 A 
ATOM     10  C   UNL     1       7.065   6.712  16.357  0.00  0.00    +0.000 A 
ATOM     11  C   UNL     1       6.049   6.831  17.308  0.00  0.00    +0.000 A 
ATOM     12  C   UNL     1       5.101   5.796  17.430  0.00  0.00    +0.000 A 
ATOM     13  C   UNL     1       2.368   3.720  18.589  0.00  0.00    +0.000 A 
ENDROOT
BRANCH   1  15
ATOM     14  C   UNL     1       1.149   2.913  21.393  0.00  0.00    +0.000 C 
ATOM     15  O   UNL     1       0.790   3.863  20.391  0.00  0.00    +0.000 OA
ENDBRANCH   1  15
BRANCH   2  16
ATOM     16  O   UNL     1       1.956   6.397  21.141  0.00  0.00    +0.000 OA
ATOM     17  H   UNL     1       1.247   5.871  21.543  0.00  0.00    +0.000 HD
ENDBRANCH   2  16
BRANCH   8  18
ATOM     18  O   UNL     1       6.423   3.495  14.747  0.00  0.00    +0.000 OA
ATOM     19  C   UNL     1       6.250   3.795  13.370  0.00  0.00    +0.000 C 
ENDBRANCH   8  18
BRANCH  13  20
ATOM     20  O   UNL     1       2.008   2.496  18.105  0.00  0.00    +0.000 OA
ATOM     21  C   UNL     1       2.742   1.344  18.482  0.00  0.00    +0.000 C 
ENDBRANCH  13  20
TORSDOF 4
ENDMDL
MODEL 8
REMARK VINA RESULT:      -6.1      3.399      6.175
REMARK  Name = 
REMARK  7 active torsions:
REMARK  status: ('A' for Active; 'I' for Inactive)
REMARK    1  A    between atoms: C_1  and  O_2
REMARK    2  A    between atoms: O_2  and  C_3
REMARK    3  A    between atoms: C_4  and  O_5
REMARK    4  A    between atoms: C_11  and  O_12
REMARK    5  A    between atoms: O_12  and  C_13
REMARK    6  A    between atoms: C_18  and  O_19
REMARK    7  A    between atoms: O_19  and  C_20
REMARK                            x       y       z     vdW  Elec       q    Type
REMARK                         _______ _______ _______ _____ _____    ______ ____
ROOT
ATOM      1  C   UNL     1       0.701  10.476  19.714  0.00  0.00    +0.000 A 
ATOM      2  C   UNL     1       1.445  10.569  18.521  0.00  0.00    +0.000 A 
ATOM      3  C   UNL     1       2.149   9.492  17.985  0.00  0.00    +0.000 A 
ATOM      4  C   UNL     1       2.178   8.296  18.708  0.00  0.00    +0.000 A 
ATOM      5  C   UNL     1       1.463   8.212  19.894  0.00  0.00    +0.000 A 
ATOM      6  O   UNL     1       1.643   6.967  20.445  0.00  0.00    +0.000 OA
ATOM      7  C   UNL     1       2.492   6.262  19.633  0.00  0.00    +0.000 A 
ATOM      8  C   UNL     1       2.980   4.958  19.815  0.00  0.00    +0.000 A 
ATOM      9  C   UNL     1       3.869   4.479  18.837  0.00  0.00    +0.000 A 
ATOM     10  C   UNL     1       4.245   5.251  17.739  0.00  0.00    +0.000 A 
ATOM     11  C   UNL     1       3.738   6.541  17.577  0.00  0.00    +0.000 A 
ATOM     12  C   UNL     1       2.848   7.053  18.541  0.00  0.00    +0.000 A 
ATOM     13  C   UNL     1       0.697   9.259  20.448  0.00  0.00    +0.000 A 
ENDROOT
BRANCH   1  15
ATOM     14  C   UNL     1      -1.331  11.742  19.901  0.00  0.00    +0.000 C 
ATOM     15  O   UNL     1       0.041  11.558  20.249  0.00  0.00    +0.000 OA
ENDBRANCH   1  15
BRANCH   2  16
ATOM     16  O   UNL     1       1.617  11.744  17.836  0.00  0.00    +0.000 OA
ATOM     17  H   UNL     1       2.552  11.761  17.576  0.00  0.00    +0.000 HD
ENDBRANCH   2  16
BRANCH   8  18
ATOM     18  O   UNL     1       2.725   4.064  20.842  0.00  0.00    +0.000 OA
ATOM     19  C   UNL     1       3.102   2.716  20.603  0.00  0.00    +0.000 C 
ENDBRANCH   8  18
BRANCH  13  20
ATOM     20  O   UNL     1       0.068   8.972  21.624  0.00  0.00    +0.000 OA
ATOM     21  C   UNL     1       0.635   9.401  22.850  0.00  0.00    +0.000 C 
ENDBRANCH  13  20
TORSDOF 4
ENDMDL
MODEL 9
REMARK VINA RESULT:      -6.1      2.648      4.655
REMARK  Name = 
REMARK  7 active torsions:
REMARK  status: ('A' for Active; 'I' for Inactive)
REMARK    1  A    between atoms: C_1  and  O_2
REMARK    2  A    between atoms: O_2  and  C_3
REMARK    3  A    between atoms: C_4  and  O_5
REMARK    4  A    between atoms: C_11  and  O_12
REMARK    5  A    between atoms: O_12  and  C_13
REMARK    6  A    between atoms: C_18  and  O_19
REMARK    7  A    between atoms: O_19  and  C_20
REMARK                            x       y       z     vdW  Elec       q    Type
REMARK                         _______ _______ _______ _____ _____    ______ ____
ROOT
ATOM      1  C   UNL     1       5.168   4.585  18.372  0.00  0.00    +0.000 A 
ATOM      2  C   UNL     1       6.308   5.395  18.200  0.00  0.00    +0.000 A 
ATOM      3  C   UNL     1       6.902   5.607  16.957  0.00  0.00    +0.000 A 
ATOM      4  C   UNL     1       6.388   4.920  15.853  0.00  0.00    +0.000 A 
ATOM      5  C   UNL     1       5.279   4.106  16.027  0.00  0.00    +0.000 A 
ATOM      6  O   UNL     1       4.953   3.520  14.829  0.00  0.00    +0.000 OA
ATOM      7  C   UNL     1       5.866   3.932  13.893  0.00  0.00    +0.000 A 
ATOM      8  C   UNL     1       5.944   3.565  12.540  0.00  0.00    +0.000 A 
ATOM      9  C   UNL     1       7.006   4.116  11.801  0.00  0.00    +0.000 A 
ATOM     10  C   UNL     1       7.931   4.986  12.374  0.00  0.00    +0.000 A 
ATOM     11  C   UNL     1       7.825   5.342  13.720  0.00  0.00    +0.000 A 
ATOM     12  C   UNL     1       6.775   4.804  14.490  0.00  0.00    +0.000 A 
ATOM     13  C   UNL     1       4.614   3.903  17.255  0.00  0.00    +0.000 A 
ENDROOT
BRANCH   1  15
ATOM     14  C   UNL     1       3.420   5.062  19.947  0.00  0.00    +0.000 C 
ATOM     15  O   UNL     1       4.615   4.357  19.610  0.00  0.00    +0.000 OA
ENDBRANCH   1  15
BRANCH   2  16
ATOM     16  O   UNL     1       6.985   5.967  19.246  0.00  0.00    +0.000 OA
ATOM     17  H   UNL     1       6.440   5.803  20.032  0.00  0.00    +0.000 HD
ENDBRANCH   2  16
BRANCH   8  18
ATOM     18  O   UNL     1       5.127   2.712  11.816  0.00  0.00    +0.000 OA
ATOM     19  C   UNL     1       3.985   3.303  11.214  0.00  0.00    +0.000 C 
ENDBRANCH   8  18
BRANCH  13  20
ATOM     20  O   UNL     1       3.541   3.062  17.213  0.00  0.00    +0.000 OA
ATOM     21  C   UNL     1       3.562   1.852  17.951  0.00  0.00    +0.000 C 
ENDBRANCH  13  20
TORSDOF 4
ENDMDL
