MODEL 1
REMARK VINA RESULT:      -8.0      0.000      0.000
REMARK  Name = 
REMARK  5 active torsions:
REMARK  status: ('A' for Active; 'I' for Inactive)
REMARK    1  A    between atoms: C_1  and  N_2
REMARK    2  A    between atoms: C_5  and  C_6
REMARK    3  A    between atoms: C_9  and  C_10
REMARK    4  A    between atoms: C_17  and  C_18
REMARK    5  A    between atoms: C_21  and  C_22
REMARK                            x       y       z     vdW  Elec       q    Type
REMARK                         _______ _______ _______ _____ _____    ______ ____
ROOT
ATOM      1  C   UNL     1       1.208   3.310  21.323  0.00  0.00    +0.000 C 
ATOM      2  N   UNL     1       1.836   4.051  20.230  0.00  0.00    +0.000 NA
ATOM      3  C   UNL     1       3.158   3.509  19.897  0.00  0.00    +0.000 C 
ATOM      4  C   UNL     1       3.782   4.204  18.713  0.00  0.00    +0.000 C 
ATOM      5  C   UNL     1       4.737   3.605  17.966  0.00  0.00    +0.000 C 
ATOM      6  C   UNL     1       3.282   5.585  18.394  0.00  0.00    +0.000 C 
ATOM      7  O   UNL     1       3.496   6.147  17.322  0.00  0.00    +0.000 OA
ATOM      8  C   UNL     1       2.474   6.274  19.437  0.00  0.00    +0.000 C 
ATOM      9  C   UNL     1       2.215   7.577  19.212  0.00  0.00    +0.000 C 
ATOM     10  C   UNL     1       1.979   5.464  20.593  0.00  0.00    +0.000 C 
ENDROOT
BRANCH   5  11
ATOM     11  C   UNL     1       5.429   4.237  16.835  0.00  0.00    +0.000 A 
ATOM     12  C   UNL     1       4.997   3.982  15.528  0.00  0.00    +0.000 A 
ATOM     13  C   UNL     1       5.774   4.390  14.440  0.00  0.00    +0.000 A 
ATOM     14  C   UNL     1       6.985   5.058  14.654  0.00  0.00    +0.000 A 
ATOM     15  C   UNL     1       7.391   5.360  15.957  0.00  0.00    +0.000 A 
ATOM     16  C   UNL     1       6.611   4.959  17.045  0.00  0.00    +0.000 A 
BRANCH  14  17
ATOM     17  C   UNL     1       7.826   5.394  13.543  0.00  0.00    +0.000 C 
ATOM     18  N   UNL     1       8.504   5.675  12.644  0.00  0.00    +0.000 NA
ENDBRANCH  14  17
ENDBRANCH   5  11
BRANCH   9  19
ATOM     19  C   UNL     1       1.406   8.394  20.106  0.00  0.00    +0.000 A 
ATOM     20  C   UNL     1       0.535   9.352  19.581  0.00  0.00    +0.000 A 
ATOM     21  C   UNL     1      -0.175  10.189  20.443  0.00  0.00    +0.000 A 
ATOM     22  C   UNL     1      -0.013  10.067  21.828  0.00  0.00    +0.000 A 
ATOM     23  C   UNL     1       0.842   9.091  22.350  0.00  0.00    +0.000 A 
ATOM     24  C   UNL     1       1.549   8.252  21.490  0.00  0.00    +0.000 A 
BRANCH  22  25
ATOM     25  C   UNL     1      -0.708  10.957  22.709  0.00  0.00    +0.000 C 
ATOM     26  N   UNL     1      -1.261  11.693  23.413  0.00  0.00    +0.000 NA
ENDBRANCH  22  25
ENDBRANCH   9  19
TORSDOF 4
ENDMDL
MODEL 2
REMARK VINA RESULT:      -7.2      0.989      1.750
REMARK  Name = 
REMARK  5 active torsions:
REMARK  status: ('A' for Active; 'I' for Inactive)
REMARK    1  A    between atoms: C_1  and  N_2
REMARK    2  A    between atoms: C_5  and  C_6
REMARK    3  A    between atoms: C_9  and  C_10
REMARK    4  A    between atoms: C_17  and  C_18
REMARK    5  A    between atoms: C_21  and  C_22
REMARK                            x       y       z     vdW  Elec       q    Type
REMARK                         _______ _______ _______ _____ _____    ______ ____
ROOT
ATOM      1  C   UNL     1       1.134   3.869  20.864  0.00  0.00    +0.000 C 
ATOM      2  N   UNL     1       1.916   4.372  19.734  0.00  0.00    +0.000 NA
ATOM      3  C   UNL     1       3.230   3.725  19.653  0.00  0.00    +0.000 C 
ATOM      4  C   UNL     1       4.013   4.167  18.443  0.00  0.00    +0.000 C 
ATOM      5  C   UNL     1       5.003   3.403  17.926  0.00  0.00    +0.000 C 
ATOM      6  C   UNL     1       3.633   5.485  17.830  0.00  0.00    +0.000 C 
ATOM      7  O   UNL     1       3.990   5.833  16.707  0.00  0.00    +0.000 OA
ATOM      8  C   UNL     1       2.764   6.385  18.637  0.00  0.00    +0.000 C 
ATOM      9  C   UNL     1       2.609   7.634  18.158  0.00  0.00    +0.000 C 
ATOM     10  C   UNL     1       2.105   5.821  19.855  0.00  0.00    +0.000 C 
ENDROOT
BRANCH   5  11
ATOM     11  C   UNL     1       5.844   3.789  16.785  0.00  0.00    +0.000 A 
ATOM     12  C   UNL     1       6.888   4.704  16.972  0.00  0.00    +0.000 A 
ATOM     13  C   UNL     1       7.549   5.249  15.867  0.00  0.00    +0.000 A 
ATOM     14  C   UNL     1       7.172   4.879  14.571  0.00  0.00    +0.000 A 
ATOM     15  C   UNL     1       6.166   3.926  14.386  0.00  0.00    +0.000 A 
ATOM     16  C   UNL     1       5.509   3.375  15.490  0.00  0.00    +0.000 A 
BRANCH  14  17
ATOM     17  C   UNL     1       7.786   5.506  13.438  0.00  0.00    +0.000 C 
ATOM     18  N   UNL     1       8.291   6.013  12.524  0.00  0.00    +0.000 NA
ENDBRANCH  14  17
ENDBRANCH   5  11
BRANCH   9  19
ATOM     19  C   UNL     1       1.763   8.633  18.796  0.00  0.00    +0.000 A 
ATOM     20  C   UNL     1       1.568   8.603  20.179  0.00  0.00    +0.000 A 
ATOM     21  C   UNL     1       0.691   9.510  20.775  0.00  0.00    +0.000 A 
ATOM     22  C   UNL     1       0.011  10.446  19.988  0.00  0.00    +0.000 A 
ATOM     23  C   UNL     1       0.227  10.488  18.606  0.00  0.00    +0.000 A 
ATOM     24  C   UNL     1       1.105   9.585  18.011  0.00  0.00    +0.000 A 
BRANCH  22  25
ATOM     25  C   UNL     1      -0.924  11.345  20.595  0.00  0.00    +0.000 C 
ATOM     26  N   UNL     1      -1.667  12.087  21.086  0.00  0.00    +0.000 NA
ENDBRANCH  22  25
ENDBRANCH   9  19
TORSDOF 4
ENDMDL
MODEL 3
REMARK VINA RESULT:      -7.1      3.098      4.437
REMARK  Name = 
REMARK  5 active torsions:
REMARK  status: ('A' for Active; 'I' for Inactive)
REMARK    1  A    between atoms: C_1  and  N_2
REMARK    2  A    between atoms: C_5  and  C_6
REMARK    3  A    between atoms: C_9  and  C_10
REMARK    4  A    between atoms: C_17  and  C_18
REMARK    5  A    between atoms: C_21  and  C_22
REMARK                            x       y       z     vdW  Elec       q    Type
REMARK                         _______ _______ _______ _____ _____    ______ ____
ROOT
ATOM      1  C   UNL     1      -0.445   9.077  22.512  0.00  0.00    +0.000 C 
ATOM      2  N   UNL     1       0.224   8.809  21.239  0.00  0.00    +0.000 NA
ATOM      3  C   UNL     1       1.261   7.780  21.377  0.00  0.00    +0.000 C 
ATOM      4  C   UNL     1       1.899   7.427  20.058  0.00  0.00    +0.000 C 
ATOM      5  C   UNL     1       2.517   6.239  19.868  0.00  0.00    +0.000 C 
ATOM      6  C   UNL     1       1.802   8.450  18.960  0.00  0.00    +0.000 C 
ATOM      7  O   UNL     1       2.029   8.193  17.780  0.00  0.00    +0.000 OA
ATOM      8  C   UNL     1       1.391   9.827  19.347  0.00  0.00    +0.000 C 
ATOM      9  C   UNL     1       1.511  10.765  18.389  0.00  0.00    +0.000 C 
ATOM     10  C   UNL     1       0.836  10.036  20.720  0.00  0.00    +0.000 C 
ENDROOT
BRANCH   5  11
ATOM     11  C   UNL     1       3.207   5.846  18.633  0.00  0.00    +0.000 A 
ATOM     12  C   UNL     1       2.717   4.776  17.875  0.00  0.00    +0.000 A 
ATOM     13  C   UNL     1       3.480   4.248  16.829  0.00  0.00    +0.000 A 
ATOM     14  C   UNL     1       4.735   4.792  16.534  0.00  0.00    +0.000 A 
ATOM     15  C   UNL     1       5.202   5.895  17.255  0.00  0.00    +0.000 A 
ATOM     16  C   UNL     1       4.436   6.426  18.296  0.00  0.00    +0.000 A 
BRANCH  14  17
ATOM     17  C   UNL     1       5.556   4.194  15.523  0.00  0.00    +0.000 C 
ATOM     18  N   UNL     1       6.225   3.703  14.710  0.00  0.00    +0.000 NA
ENDBRANCH  14  17
ENDBRANCH   5  11
BRANCH   9  19
ATOM     19  C   UNL     1       1.118  12.154  18.581  0.00  0.00    +0.000 A 
ATOM     20  C   UNL     1      -0.233  12.509  18.546  0.00  0.00    +0.000 A 
ATOM     21  C   UNL     1      -0.599  13.852  18.646  0.00  0.00    +0.000 A 
ATOM     22  C   UNL     1       0.385  14.837  18.782  0.00  0.00    +0.000 A 
ATOM     23  C   UNL     1       1.735  14.476  18.840  0.00  0.00    +0.000 A 
ATOM     24  C   UNL     1       2.101  13.135  18.743  0.00  0.00    +0.000 A 
BRANCH  22  25
ATOM     25  C   UNL     1       0.010  16.219  18.838  0.00  0.00    +0.000 C 
ATOM     26  N   UNL     1      -0.280  17.339  18.896  0.00  0.00    +0.000 NA
ENDBRANCH  22  25
ENDBRANCH   9  19
TORSDOF 4
ENDMDL
MODEL 4
REMARK VINA RESULT:      -7.0      3.358      5.070
REMARK  Name = 
REMARK  5 active torsions:
REMARK  status: ('A' for Active; 'I' for Inactive)
REMARK    1  A    between atoms: C_1  and  N_2
REMARK    2  A    between atoms: C_5  and  C_6
REMARK    3  A    between atoms: C_9  and  C_10
REMARK    4  A    between atoms: C_17  and  C_18
REMARK    5  A    between atoms: C_21  and  C_22
REMARK                            x       y       z     vdW  Elec       q    Type
REMARK                         _______ _______ _______ _____ _____    ______ ____
ROOT
ATOM      1  C   UNL     1      -0.655  10.030  22.648  0.00  0.00    +0.000 C 
ATOM      2  N   UNL     1       0.017   9.610  21.419  0.00  0.00    +0.000 NA
ATOM      3  C   UNL     1       0.944   8.499  21.660  0.00  0.00    +0.000 C 
ATOM      4  C   UNL     1       1.579   7.994  20.390  0.00  0.00    +0.000 C 
ATOM      5  C   UNL     1       2.083   6.742  20.301  0.00  0.00    +0.000 C 
ATOM      6  C   UNL     1       1.612   8.941  19.223  0.00  0.00    +0.000 C 
ATOM      7  O   UNL     1       1.843   8.581  18.071  0.00  0.00    +0.000 OA
ATOM      8  C   UNL     1       1.327  10.375  19.502  0.00  0.00    +0.000 C 
ATOM      9  C   UNL     1       1.564  11.228  18.487  0.00  0.00    +0.000 C 
ATOM     10  C   UNL     1       0.760  10.733  20.839  0.00  0.00    +0.000 C 
ENDROOT
BRANCH   5  11
ATOM     11  C   UNL     1       2.763   6.198  19.118  0.00  0.00    +0.000 A 
ATOM     12  C   UNL     1       2.183   5.139  18.410  0.00  0.00    +0.000 A 
ATOM     13  C   UNL     1       2.916   4.467  17.428  0.00  0.00    +0.000 A 
ATOM     14  C   UNL     1       4.231   4.854  17.146  0.00  0.00    +0.000 A 
ATOM     15  C   UNL     1       4.792   5.945  17.815  0.00  0.00    +0.000 A 
ATOM     16  C   UNL     1       4.058   6.622  18.793  0.00  0.00    +0.000 A 
BRANCH  14  17
ATOM     17  C   UNL     1       5.013   4.107  16.205  0.00  0.00    +0.000 C 
ATOM     18  N   UNL     1       5.650   3.510  15.441  0.00  0.00    +0.000 NA
ENDBRANCH  14  17
ENDBRANCH   5  11
BRANCH   9  19
ATOM     19  C   UNL     1       1.304  12.658  18.571  0.00  0.00    +0.000 A 
ATOM     20  C   UNL     1       2.359  13.550  18.782  0.00  0.00    +0.000 A 
ATOM     21  C   UNL     1       2.094  14.910  18.946  0.00  0.00    +0.000 A 
ATOM     22  C   UNL     1       0.776  15.377  18.897  0.00  0.00    +0.000 A 
ATOM     23  C   UNL     1      -0.276  14.485  18.662  0.00  0.00    +0.000 A 
ATOM     24  C   UNL     1      -0.012  13.127  18.496  0.00  0.00    +0.000 A 
BRANCH  22  25
ATOM     25  C   UNL     1       0.503  16.767  19.111  0.00  0.00    +0.000 C 
ATOM     26  N   UNL     1       0.293  17.896  19.270  0.00  0.00    +0.000 NA
ENDBRANCH  22  25
ENDBRANCH   9  19
TORSDOF 4
ENDMDL
MODEL 5
REMARK VINA RESULT:      -6.9      3.460     10.585
REMARK  Name = 
REMARK  5 active torsions:
REMARK  status: ('A' for Active; 'I' for Inactive)
REMARK    1  A    between atoms: C_1  and  N_2
REMARK    2  A    between atoms: C_5  and  C_6
REMARK    3  A    between atoms: C_9  and  C_10
REMARK    4  A    between atoms: C_17  and  C_18
REMARK    5  A    between atoms: C_21  and  C_22
REMARK                            x       y       z     vdW  Elec       q    Type
REMARK                         _______ _______ _______ _____ _____    ______ ____
ROOT
ATOM      1  C   UNL     1      -2.442   9.919  16.527  0.00  0.00    +0.000 C 
ATOM      2  N   UNL     1      -1.986  10.252  17.877  0.00  0.00    +0.000 NA
ATOM      3  C   UNL     1      -2.201  11.669  18.188  0.00  0.00    +0.000 C 
ATOM      4  C   UNL     1      -1.819  12.010  19.606  0.00  0.00    +0.000 C 
ATOM      5  C   UNL     1      -2.337  13.088  20.237  0.00  0.00    +0.000 C 
ATOM      6  C   UNL     1      -0.850  11.087  20.290  0.00  0.00    +0.000 C 
ATOM      7  O   UNL     1      -0.666  11.085  21.505  0.00  0.00    +0.000 OA
ATOM      8  C   UNL     1      -0.104  10.126  19.432  0.00  0.00    +0.000 C 
ATOM      9  C   UNL     1       0.899   9.459  20.035  0.00  0.00    +0.000 C 
ATOM     10  C   UNL     1      -0.560   9.943  18.019  0.00  0.00    +0.000 C 
ENDROOT
BRANCH   5  11
ATOM     11  C   UNL     1      -1.974  13.515  21.594  0.00  0.00    +0.000 A 
ATOM     12  C   UNL     1      -2.836  13.239  22.662  0.00  0.00    +0.000 A 
ATOM     13  C   UNL     1      -2.618  13.828  23.911  0.00  0.00    +0.000 A 
ATOM     14  C   UNL     1      -1.534  14.692  24.099  0.00  0.00    +0.000 A 
ATOM     15  C   UNL     1      -0.641  14.926  23.048  0.00  0.00    +0.000 A 
ATOM     16  C   UNL     1      -0.855  14.332  21.801  0.00  0.00    +0.000 A 
BRANCH  14  17
ATOM     17  C   UNL     1      -1.362  15.367  25.352  0.00  0.00    +0.000 C 
ATOM     18  N   UNL     1      -1.225  15.907  26.370  0.00  0.00    +0.000 NA
ENDBRANCH  14  17
ENDBRANCH   5  11
BRANCH   9  19
ATOM     19  C   UNL     1       1.706   8.453  19.358  0.00  0.00    +0.000 A 
ATOM     20  C   UNL     1       1.979   7.236  19.988  0.00  0.00    +0.000 A 
ATOM     21  C   UNL     1       2.821   6.310  19.371  0.00  0.00    +0.000 A 
ATOM     22  C   UNL     1       3.388   6.601  18.126  0.00  0.00    +0.000 A 
ATOM     23  C   UNL     1       3.094   7.811  17.487  0.00  0.00    +0.000 A 
ATOM     24  C   UNL     1       2.250   8.734  18.101  0.00  0.00    +0.000 A 
BRANCH  22  25
ATOM     25  C   UNL     1       4.288   5.669  17.516  0.00  0.00    +0.000 C 
ATOM     26  N   UNL     1       5.005   4.900  17.027  0.00  0.00    +0.000 NA
ENDBRANCH  22  25
ENDBRANCH   9  19
TORSDOF 4
ENDMDL
MODEL 6
REMARK VINA RESULT:      -6.9      4.010     11.487
REMARK  Name = 
REMARK  5 active torsions:
REMARK  status: ('A' for Active; 'I' for Inactive)
REMARK    1  A    between atoms: C_1  and  N_2
REMARK    2  A    between atoms: C_5  and  C_6
REMARK    3  A    between atoms: C_9  and  C_10
REMARK    4  A    between atoms: C_17  and  C_18
REMARK    5  A    between atoms: C_21  and  C_22
REMARK                            x       y       z     vdW  Elec       q    Type
REMARK                         _______ _______ _______ _____ _____    ______ ____
ROOT
ATOM      1  C   UNL     1       2.707  14.298  20.395  0.00  0.00    +0.000 C 
ATOM      2  N   UNL     1       1.359  13.784  20.636  0.00  0.00    +0.000 NA
ATOM      3  C   UNL     1       0.789  14.320  21.877  0.00  0.00    +0.000 C 
ATOM      4  C   UNL     1      -0.633  13.873  22.096  0.00  0.00    +0.000 C 
ATOM      5  C   UNL     1      -1.480  14.573  22.885  0.00  0.00    +0.000 C 
ATOM      6  C   UNL     1      -1.070  12.622  21.385  0.00  0.00    +0.000 C 
ATOM      7  O   UNL     1      -2.249  12.300  21.254  0.00  0.00    +0.000 OA
ATOM      8  C   UNL     1      -0.003  11.762  20.805  0.00  0.00    +0.000 C 
ATOM      9  C   UNL     1      -0.402  10.555  20.358  0.00  0.00    +0.000 C 
ATOM     10  C   UNL     1       1.381  12.321  20.715  0.00  0.00    +0.000 C 
ENDROOT
BRANCH   5  11
ATOM     11  C   UNL     1      -2.860  14.172  23.189  0.00  0.00    +0.000 A 
ATOM     12  C   UNL     1      -3.103  13.232  24.198  0.00  0.00    +0.000 A 
ATOM     13  C   UNL     1      -4.377  12.676  24.348  0.00  0.00    +0.000 A 
ATOM     14  C   UNL     1      -5.415  13.060  23.491  0.00  0.00    +0.000 A 
ATOM     15  C   UNL     1      -5.187  14.037  22.517  0.00  0.00    +0.000 A 
ATOM     16  C   UNL     1      -3.915  14.598  22.372  0.00  0.00    +0.000 A 
BRANCH  14  17
ATOM     17  C   UNL     1      -6.696  12.423  23.584  0.00  0.00    +0.000 C 
ATOM     18  N   UNL     1      -7.729  11.901  23.663  0.00  0.00    +0.000 NA
ENDBRANCH  14  17
ENDBRANCH   5  11
BRANCH   9  19
ATOM     19  C   UNL     1       0.499   9.603  19.724  0.00  0.00    +0.000 A 
ATOM     20  C   UNL     1       1.103   8.599  20.486  0.00  0.00    +0.000 A 
ATOM     21  C   UNL     1       2.030   7.742  19.892  0.00  0.00    +0.000 A 
ATOM     22  C   UNL     1       2.350   7.888  18.538  0.00  0.00    +0.000 A 
ATOM     23  C   UNL     1       1.726   8.880  17.773  0.00  0.00    +0.000 A 
ATOM     24  C   UNL     1       0.798   9.734  18.365  0.00  0.00    +0.000 A 
BRANCH  22  25
ATOM     25  C   UNL     1       3.336   7.037  17.941  0.00  0.00    +0.000 C 
ATOM     26  N   UNL     1       4.119   6.336  17.452  0.00  0.00    +0.000 NA
ENDBRANCH  22  25
ENDBRANCH   9  19
TORSDOF 4
ENDMDL
MODEL 7
REMARK VINA RESULT:      -6.8      1.818      2.346
REMARK  Name = 
REMARK  5 active torsions:
REMARK  status: ('A' for Active; 'I' for Inactive)
REMARK    1  A    between atoms: C_1  and  N_2
REMARK    2  A    between atoms: C_5  and  C_6
REMARK    3  A    between atoms: C_9  and  C_10
REMARK    4  A    between atoms: C_17  and  C_18
REMARK    5  A    between atoms: C_21  and  C_22
REMARK                            x       y       z     vdW  Elec       q    Type
REMARK                         _______ _______ _______ _____ _____    ______ ____
ROOT
ATOM      1  C   UNL     1       1.314   5.437  21.154  0.00  0.00    +0.000 C 
ATOM      2  N   UNL     1       2.047   5.657  19.908  0.00  0.00    +0.000 NA
ATOM      3  C   UNL     1       3.376   5.036  19.944  0.00  0.00    +0.000 C 
ATOM      4  C   UNL     1       4.110   5.176  18.635  0.00  0.00    +0.000 C 
ATOM      5  C   UNL     1       5.105   4.327  18.290  0.00  0.00    +0.000 C 
ATOM      6  C   UNL     1       3.675   6.291  17.726  0.00  0.00    +0.000 C 
ATOM      7  O   UNL     1       3.989   6.353  16.539  0.00  0.00    +0.000 OA
ATOM      8  C   UNL     1       2.806   7.347  18.313  0.00  0.00    +0.000 C 
ATOM      9  C   UNL     1       2.601   8.432  17.542  0.00  0.00    +0.000 C 
ATOM     10  C   UNL     1       2.198   7.093  19.656  0.00  0.00    +0.000 C 
ENDROOT
BRANCH   5  11
ATOM     11  C   UNL     1       5.902   4.431  17.060  0.00  0.00    +0.000 A 
ATOM     12  C   UNL     1       6.953   5.353  16.991  0.00  0.00    +0.000 A 
ATOM     13  C   UNL     1       7.571   5.623  15.766  0.00  0.00    +0.000 A 
ATOM     14  C   UNL     1       7.142   4.969  14.606  0.00  0.00    +0.000 A 
ATOM     15  C   UNL     1       6.128   4.010  14.683  0.00  0.00    +0.000 A 
ATOM     16  C   UNL     1       5.515   3.735  15.908  0.00  0.00    +0.000 A 
BRANCH  14  17
ATOM     17  C   UNL     1       7.712   5.312  13.336  0.00  0.00    +0.000 C 
ATOM     18  N   UNL     1       8.181   5.593  12.312  0.00  0.00    +0.000 NA
ENDBRANCH  14  17
ENDBRANCH   5  11
BRANCH   9  19
ATOM     19  C   UNL     1       1.746   9.542  17.941  0.00  0.00    +0.000 A 
ATOM     20  C   UNL     1       2.315  10.758  18.328  0.00  0.00    +0.000 A 
ATOM     21  C   UNL     1       1.496  11.790  18.789  0.00  0.00    +0.000 A 
ATOM     22  C   UNL     1       0.111  11.605  18.860  0.00  0.00    +0.000 A 
ATOM     23  C   UNL     1      -0.457  10.394  18.449  0.00  0.00    +0.000 A 
ATOM     24  C   UNL     1       0.360   9.365  17.986  0.00  0.00    +0.000 A 
BRANCH  22  25
ATOM     25  C   UNL     1      -0.723  12.649  19.377  0.00  0.00    +0.000 C 
ATOM     26  N   UNL     1      -1.409  13.481  19.802  0.00  0.00    +0.000 NA
ENDBRANCH  22  25
ENDBRANCH   9  19
TORSDOF 4
ENDMDL
MODEL 8
REMARK VINA RESULT:      -6.7      2.839      4.137
REMARK  Name = 
REMARK  5 active torsions:
REMARK  status: ('A' for Active; 'I' for Inactive)
REMARK    1  A    between atoms: C_1  and  N_2
REMARK    2  A    between atoms: C_5  and  C_6
REMARK    3  A    between atoms: C_9  and  C_10
REMARK    4  A    between atoms: C_17  and  C_18
REMARK    5  A    between atoms: C_21  and  C_22
REMARK                            x       y       z     vdW  Elec       q    Type
REMARK                         _______ _______ _______ _____ _____    ______ ____
ROOT
ATOM      1  C   UNL     1      -0.536   8.586  22.268  0.00  0.00    +0.000 C 
ATOM      2  N   UNL     1       0.249   8.244  21.083  0.00  0.00    +0.000 NA
ATOM      3  C   UNL     1       1.266   7.229  21.380  0.00  0.00    +0.000 C 
ATOM      4  C   UNL     1       2.025   6.799  20.151  0.00  0.00    +0.000 C 
ATOM      5  C   UNL     1       2.655   5.604  20.093  0.00  0.00    +0.000 C 
ATOM      6  C   UNL     1       2.034   7.752  18.988  0.00  0.00    +0.000 C 
ATOM      7  O   UNL     1       2.370   7.425  17.853  0.00  0.00    +0.000 OA
ATOM      8  C   UNL     1       1.591   9.149  19.251  0.00  0.00    +0.000 C 
ATOM      9  C   UNL     1       1.803  10.028  18.252  0.00  0.00    +0.000 C 
ATOM     10  C   UNL     1       0.910   9.439  20.550  0.00  0.00    +0.000 C 
ENDROOT
BRANCH   5  11
ATOM     11  C   UNL     1       3.458   5.139  18.953  0.00  0.00    +0.000 A 
ATOM     12  C   UNL     1       4.728   5.684  18.731  0.00  0.00    +0.000 A 
ATOM     13  C   UNL     1       5.405   5.421  17.537  0.00  0.00    +0.000 A 
ATOM     14  C   UNL     1       4.818   4.608  16.562  0.00  0.00    +0.000 A 
ATOM     15  C   UNL     1       3.573   4.019  16.805  0.00  0.00    +0.000 A 
ATOM     16  C   UNL     1       2.898   4.277  18.002  0.00  0.00    +0.000 A 
BRANCH  14  17
ATOM     17  C   UNL     1       5.471   4.412  15.301  0.00  0.00    +0.000 C 
ATOM     18  N   UNL     1       5.996   4.261  14.277  0.00  0.00    +0.000 NA
ENDBRANCH  14  17
ENDBRANCH   5  11
BRANCH   9  19
ATOM     19  C   UNL     1       1.396  11.424  18.321  0.00  0.00    +0.000 A 
ATOM     20  C   UNL     1       2.361  12.435  18.307  0.00  0.00    +0.000 A 
ATOM     21  C   UNL     1       1.971  13.766  18.458  0.00  0.00    +0.000 A 
ATOM     22  C   UNL     1       0.619  14.086  18.621  0.00  0.00    +0.000 A 
ATOM     23  C   UNL     1      -0.347  13.073  18.612  0.00  0.00    +0.000 A 
ATOM     24  C   UNL     1       0.041  11.744  18.458  0.00  0.00    +0.000 A 
BRANCH  22  25
ATOM     25  C   UNL     1       0.226  15.449  18.822  0.00  0.00    +0.000 C 
ATOM     26  N   UNL     1      -0.079  16.553  18.999  0.00  0.00    +0.000 NA
ENDBRANCH  22  25
ENDBRANCH   9  19
TORSDOF 4
ENDMDL
MODEL 9
REMARK VINA RESULT:      -6.5      3.948     11.178
REMARK  Name = 
REMARK  5 active torsions:
REMARK  status: ('A' for Active; 'I' for Inactive)
REMARK    1  A    between atoms: C_1  and  N_2
REMARK    2  A    between atoms: C_5  and  C_6
REMARK    3  A    between atoms: C_9  and  C_10
REMARK    4  A    between atoms: C_17  and  C_18
REMARK    5  A    between atoms: C_21  and  C_22
REMARK                            x       y       z     vdW  Elec       q    Type
REMARK                         _______ _______ _______ _____ _____    ______ ____
ROOT
ATOM      1  C   UNL     1       2.448  14.052  18.233  0.00  0.00    +0.000 C 
ATOM      2  N   UNL     1       1.255  13.408  18.782  0.00  0.00    +0.000 NA
ATOM      3  C   UNL     1       0.682  14.182  19.888  0.00  0.00    +0.000 C 
ATOM      4  C   UNL     1      -0.599  13.580  20.407  0.00  0.00    +0.000 C 
ATOM      5  C   UNL     1      -1.511  14.325  21.074  0.00  0.00    +0.000 C 
ATOM      6  C   UNL     1      -0.823  12.119  20.136  0.00  0.00    +0.000 C 
ATOM      7  O   UNL     1      -1.918  11.572  20.255  0.00  0.00    +0.000 OA
ATOM      8  C   UNL     1       0.351  11.323  19.684  0.00  0.00    +0.000 C 
ATOM      9  C   UNL     1       0.175   9.988  19.647  0.00  0.00    +0.000 C 
ATOM     10  C   UNL     1       1.581  12.061  19.262  0.00  0.00    +0.000 C 
ENDROOT
BRANCH   5  11
ATOM     11  C   UNL     1      -2.753  13.800  21.655  0.00  0.00    +0.000 A 
ATOM     12  C   UNL     1      -3.968  13.993  20.986  0.00  0.00    +0.000 A 
ATOM     13  C   UNL     1      -5.176  13.702  21.626  0.00  0.00    +0.000 A 
ATOM     14  C   UNL     1      -5.174  13.213  22.937  0.00  0.00    +0.000 A 
ATOM     15  C   UNL     1      -3.960  12.969  23.587  0.00  0.00    +0.000 A 
ATOM     16  C   UNL     1      -2.752  13.254  22.945  0.00  0.00    +0.000 A 
BRANCH  14  17
ATOM     17  C   UNL     1      -6.413  13.001  23.626  0.00  0.00    +0.000 C 
ATOM     18  N   UNL     1      -7.414  12.833  24.191  0.00  0.00    +0.000 NA
ENDBRANCH  14  17
ENDBRANCH   5  11
BRANCH   9  19
ATOM     19  C   UNL     1       1.202   9.062  19.192  0.00  0.00    +0.000 A 
ATOM     20  C   UNL     1       1.688   9.145  17.884  0.00  0.00    +0.000 A 
ATOM     21  C   UNL     1       2.610   8.203  17.428  0.00  0.00    +0.000 A 
ATOM     22  C   UNL     1       3.046   7.180  18.278  0.00  0.00    +0.000 A 
ATOM     23  C   UNL     1       2.575   7.114  19.594  0.00  0.00    +0.000 A 
ATOM     24  C   UNL     1       1.656   8.057  20.052  0.00  0.00    +0.000 A 
BRANCH  22  25
ATOM     25  C   UNL     1       3.958   6.188  17.793  0.00  0.00    +0.000 C 
ATOM     26  N   UNL     1       4.687   5.371  17.411  0.00  0.00    +0.000 NA
ENDBRANCH  22  25
ENDBRANCH   9  19
TORSDOF 4
ENDMDL
