MODEL 1
REMARK VINA RESULT:      -7.7      0.000      0.000
REMARK  Name = 
REMARK  9 active torsions:
REMARK  status: ('A' for Active; 'I' for Inactive)
REMARK    1  A    between atoms: C_2  and  C_3
REMARK    2  A    between atoms: C_3  and  C_4
REMARK    3  A    between atoms: C_4  and  C_5
REMARK    4  A    between atoms: C_5  and  N_6
REMARK    5  A    between atoms: N_18  and  C_19
REMARK    6  A    between atoms: C_19  and  C_20
REMARK    7  A    between atoms: C_20  and  S_21
REMARK    8  A    between atoms: S_21  and  C_22
REMARK    9  A    between atoms: C_22  and  C_23
REMARK                            x       y       z     vdW  Elec       q    Type
REMARK                         _______ _______ _______ _____ _____    ______ ____
ROOT
ATOM      1  C   UNL     1       3.733   6.797  17.890  0.00  0.00    +0.000 C 
ENDROOT
BRANCH   1   3
ATOM      2  O   UNL     1       2.204   7.340  19.684  0.00  0.00    +0.000 OA
ATOM      3  C   UNL     1       2.648   7.614  18.575  0.00  0.00    +0.000 C 
ATOM      4  N   UNL     1       2.238   8.711  17.850  0.00  0.00    +0.000 N 
ATOM      5  H   UNL     1       2.477   8.751  16.866  0.00  0.00    +0.000 HD
BRANCH   4   6
ATOM      6  C   UNL     1       1.100   9.508  18.286  0.00  0.00    +0.000 C 
BRANCH   6   7
ATOM      7  C   UNL     1       1.476  10.973  18.546  0.00  0.00    +0.000 C 
BRANCH   7   8
ATOM      8  S   UNL     1      -0.049  11.909  18.942  0.00  0.00    +0.000 S 
BRANCH   8   9
ATOM      9  C   UNL     1      -1.257  10.552  19.109  0.00  0.00    +0.000 C 
BRANCH   9  10
ATOM     10  C   UNL     1      -2.264  10.621  17.982  0.00  0.00    +0.000 A 
ATOM     11  C   UNL     1      -2.039   9.958  16.769  0.00  0.00    +0.000 A 
ATOM     12  C   UNL     1      -2.930  10.100  15.699  0.00  0.00    +0.000 A 
ATOM     13  C   UNL     1      -4.060  10.906  15.836  0.00  0.00    +0.000 A 
ATOM     14  C   UNL     1      -4.305  11.557  17.039  0.00  0.00    +0.000 A 
ATOM     15  C   UNL     1      -3.413  11.419  18.107  0.00  0.00    +0.000 A 
ENDBRANCH   9  10
ENDBRANCH   8   9
ENDBRANCH   7   8
ENDBRANCH   6   7
ENDBRANCH   4   6
ENDBRANCH   1   3
BRANCH   1  16
ATOM     16  C   UNL     1       3.745   5.334  18.339  0.00  0.00    +0.000 C 
BRANCH  16  17
ATOM     17  C   UNL     1       5.157   4.736  18.281  0.00  0.00    +0.000 C 
BRANCH  17  18
ATOM     18  N   UNL     1       5.803   4.937  16.976  0.00  0.00    +0.000 N 
ATOM     19  C   UNL     1       6.896   5.789  16.825  0.00  0.00    +0.000 A 
ATOM     20  S   UNL     1       7.638   6.724  18.004  0.00  0.00    +0.000 S 
ATOM     21  N   UNL     1       7.447   5.874  15.575  0.00  0.00    +0.000 N 
ATOM     22  C   UNL     1       7.030   5.116  14.486  0.00  0.00    +0.000 A 
ATOM     23  C   UNL     1       7.729   5.186  13.282  0.00  0.00    +0.000 A 
ATOM     24  C   UNL     1       7.336   4.385  12.209  0.00  0.00    +0.000 A 
ATOM     25  C   UNL     1       6.235   3.534  12.335  0.00  0.00    +0.000 A 
ATOM     26  C   UNL     1       5.523   3.487  13.535  0.00  0.00    +0.000 A 
ATOM     27  C   UNL     1       5.930   4.279  14.613  0.00  0.00    +0.000 A 
ATOM     28  C   UNL     1       5.226   4.231  15.908  0.00  0.00    +0.000 A 
ATOM     29  O   UNL     1       4.184   3.584  15.993  0.00  0.00    +0.000 OA
ATOM     30  H   UNL     1       8.249   6.487  15.483  0.00  0.00    +0.000 HD
ENDBRANCH  17  18
ENDBRANCH  16  17
ENDBRANCH   1  16
TORSDOF 9
ENDMDL
MODEL 2
REMARK VINA RESULT:      -7.7      3.031      4.036
REMARK  Name = 
REMARK  9 active torsions:
REMARK  status: ('A' for Active; 'I' for Inactive)
REMARK    1  A    between atoms: C_2  and  C_3
REMARK    2  A    between atoms: C_3  and  C_4
REMARK    3  A    between atoms: C_4  and  C_5
REMARK    4  A    between atoms: C_5  and  N_6
REMARK    5  A    between atoms: N_18  and  C_19
REMARK    6  A    between atoms: C_19  and  C_20
REMARK    7  A    between atoms: C_20  and  S_21
REMARK    8  A    between atoms: S_21  and  C_22
REMARK    9  A    between atoms: C_22  and  C_23
REMARK                            x       y       z     vdW  Elec       q    Type
REMARK                         _______ _______ _______ _____ _____    ______ ____
ROOT
ATOM      1  C   UNL     1       1.299   3.220  18.621  0.00  0.00    +0.000 C 
ENDROOT
BRANCH   1   3
ATOM      2  O   UNL     1       0.988   3.662  20.978  0.00  0.00    +0.000 OA
ATOM      3  C   UNL     1       1.319   4.079  19.875  0.00  0.00    +0.000 C 
ATOM      4  N   UNL     1       1.783   5.359  19.664  0.00  0.00    +0.000 N 
ATOM      5  H   UNL     1       1.825   5.702  18.711  0.00  0.00    +0.000 HD
BRANCH   4   6
ATOM      6  C   UNL     1       1.720   6.358  20.722  0.00  0.00    +0.000 C 
BRANCH   6   7
ATOM      7  C   UNL     1       1.805   7.792  20.181  0.00  0.00    +0.000 C 
BRANCH   7   8
ATOM      8  S   UNL     1       0.528   8.810  21.012  0.00  0.00    +0.000 S 
BRANCH   8   9
ATOM      9  C   UNL     1       0.765  10.415  20.178  0.00  0.00    +0.000 C 
BRANCH   9  10
ATOM     10  C   UNL     1      -0.483  10.781  19.406  0.00  0.00    +0.000 A 
ATOM     11  C   UNL     1      -1.408  11.700  19.917  0.00  0.00    +0.000 A 
ATOM     12  C   UNL     1      -2.604  11.965  19.241  0.00  0.00    +0.000 A 
ATOM     13  C   UNL     1      -2.885  11.313  18.041  0.00  0.00    +0.000 A 
ATOM     14  C   UNL     1      -1.970  10.411  17.513  0.00  0.00    +0.000 A 
ATOM     15  C   UNL     1      -0.777  10.142  18.190  0.00  0.00    +0.000 A 
ENDBRANCH   9  10
ENDBRANCH   8   9
ENDBRANCH   7   8
ENDBRANCH   6   7
ENDBRANCH   4   6
ENDBRANCH   1   3
BRANCH   1  16
ATOM     16  C   UNL     1       1.920   3.923  17.412  0.00  0.00    +0.000 C 
BRANCH  16  17
ATOM     17  C   UNL     1       3.301   3.346  17.071  0.00  0.00    +0.000 C 
BRANCH  17  18
ATOM     18  N   UNL     1       4.394   4.053  17.754  0.00  0.00    +0.000 N 
ATOM     19  C   UNL     1       4.943   3.575  18.943  0.00  0.00    +0.000 A 
ATOM     20  S   UNL     1       4.491   2.209  19.804  0.00  0.00    +0.000 S 
ATOM     21  N   UNL     1       5.983   4.288  19.476  0.00  0.00    +0.000 N 
ATOM     22  C   UNL     1       6.557   5.401  18.869  0.00  0.00    +0.000 A 
ATOM     23  C   UNL     1       7.689   5.991  19.429  0.00  0.00    +0.000 A 
ATOM     24  C   UNL     1       8.290   7.076  18.788  0.00  0.00    +0.000 A 
ATOM     25  C   UNL     1       7.748   7.578  17.603  0.00  0.00    +0.000 A 
ATOM     26  C   UNL     1       6.600   6.999  17.060  0.00  0.00    +0.000 A 
ATOM     27  C   UNL     1       6.010   5.902  17.697  0.00  0.00    +0.000 A 
ATOM     28  C   UNL     1       4.817   5.241  17.136  0.00  0.00    +0.000 A 
ATOM     29  O   UNL     1       4.258   5.749  16.165  0.00  0.00    +0.000 OA
ATOM     30  H   UNL     1       6.380   3.923  20.333  0.00  0.00    +0.000 HD
ENDBRANCH  17  18
ENDBRANCH  16  17
ENDBRANCH   1  16
TORSDOF 9
ENDMDL
MODEL 3
REMARK VINA RESULT:      -7.5      2.960      9.801
REMARK  Name = 
REMARK  9 active torsions:
REMARK  status: ('A' for Active; 'I' for Inactive)
REMARK    1  A    between atoms: C_2  and  C_3
REMARK    2  A    between atoms: C_3  and  C_4
REMARK    3  A    between atoms: C_4  and  C_5
REMARK    4  A    between atoms: C_5  and  N_6
REMARK    5  A    between atoms: N_18  and  C_19
REMARK    6  A    between atoms: C_19  and  C_20
REMARK    7  A    between atoms: C_20  and  S_21
REMARK    8  A    between atoms: S_21  and  C_22
REMARK    9  A    between atoms: C_22  and  C_23
REMARK                            x       y       z     vdW  Elec       q    Type
REMARK                         _______ _______ _______ _____ _____    ______ ____
ROOT
ATOM      1  C   UNL     1       2.056   8.028  17.962  0.00  0.00    +0.000 C 
ENDROOT
BRANCH   1   3
ATOM      2  O   UNL     1       2.407   6.329  19.647  0.00  0.00    +0.000 OA
ATOM      3  C   UNL     1       2.828   6.918  18.658  0.00  0.00    +0.000 C 
ATOM      4  N   UNL     1       4.025   6.609  18.052  0.00  0.00    +0.000 N 
ATOM      5  H   UNL     1       4.410   7.271  17.388  0.00  0.00    +0.000 HD
BRANCH   4   6
ATOM      6  C   UNL     1       4.959   5.682  18.677  0.00  0.00    +0.000 C 
BRANCH   6   7
ATOM      7  C   UNL     1       5.444   4.596  17.708  0.00  0.00    +0.000 C 
BRANCH   7   8
ATOM      8  S   UNL     1       3.985   3.812  16.925  0.00  0.00    +0.000 S 
BRANCH   8   9
ATOM      9  C   UNL     1       3.807   2.310  17.944  0.00  0.00    +0.000 C 
BRANCH   9  10
ATOM     10  C   UNL     1       2.941   2.607  19.149  0.00  0.00    +0.000 A 
ATOM     11  C   UNL     1       3.433   2.452  20.451  0.00  0.00    +0.000 A 
ATOM     12  C   UNL     1       2.600   2.640  21.559  0.00  0.00    +0.000 A 
ATOM     13  C   UNL     1       1.263   2.992  21.373  0.00  0.00    +0.000 A 
ATOM     14  C   UNL     1       0.765   3.166  20.088  0.00  0.00    +0.000 A 
ATOM     15  C   UNL     1       1.595   2.973  18.980  0.00  0.00    +0.000 A 
ENDBRANCH   9  10
ENDBRANCH   8   9
ENDBRANCH   7   8
ENDBRANCH   6   7
ENDBRANCH   4   6
ENDBRANCH   1   3
BRANCH   1  16
ATOM     16  C   UNL     1       1.646   9.151  18.916  0.00  0.00    +0.000 C 
BRANCH  16  17
ATOM     17  C   UNL     1       1.171  10.396  18.153  0.00  0.00    +0.000 C 
BRANCH  17  18
ATOM     18  N   UNL     1      -0.096  10.929  18.674  0.00  0.00    +0.000 N 
ATOM     19  C   UNL     1      -0.129  11.808  19.756  0.00  0.00    +0.000 A 
ATOM     20  S   UNL     1       1.169  12.382  20.650  0.00  0.00    +0.000 S 
ATOM     21  N   UNL     1      -1.358  12.276  20.136  0.00  0.00    +0.000 N 
ATOM     22  C   UNL     1      -2.544  11.985  19.469  0.00  0.00    +0.000 A 
ATOM     23  C   UNL     1      -3.731  12.603  19.861  0.00  0.00    +0.000 A 
ATOM     24  C   UNL     1      -4.907  12.345  19.155  0.00  0.00    +0.000 A 
ATOM     25  C   UNL     1      -4.898  11.457  18.077  0.00  0.00    +0.000 A 
ATOM     26  C   UNL     1      -3.712  10.822  17.705  0.00  0.00    +0.000 A 
ATOM     27  C   UNL     1      -2.532  11.096  18.404  0.00  0.00    +0.000 A 
ATOM     28  C   UNL     1      -1.252  10.473  18.020  0.00  0.00    +0.000 A 
ATOM     29  O   UNL     1      -1.254   9.597  17.156  0.00  0.00    +0.000 OA
ATOM     30  H   UNL     1      -1.366  12.924  20.916  0.00  0.00    +0.000 HD
ENDBRANCH  17  18
ENDBRANCH  16  17
ENDBRANCH   1  16
TORSDOF 9
ENDMDL
MODEL 4
REMARK VINA RESULT:      -7.4      2.771      3.643
REMARK  Name = 
REMARK  9 active torsions:
REMARK  status: ('A' for Active; 'I' for Inactive)
REMARK    1  A    between atoms: C_2  and  C_3
REMARK    2  A    between atoms: C_3  and  C_4
REMARK    3  A    between atoms: C_4  and  C_5
REMARK    4  A    between atoms: C_5  and  N_6
REMARK    5  A    between atoms: N_18  and  C_19
REMARK    6  A    between atoms: C_19  and  C_20
REMARK    7  A    between atoms: C_20  and  S_21
REMARK    8  A    between atoms: S_21  and  C_22
REMARK    9  A    between atoms: C_22  and  C_23
REMARK                            x       y       z     vdW  Elec       q    Type
REMARK                         _______ _______ _______ _____ _____    ______ ____
ROOT
ATOM      1  C   UNL     1       2.216   3.953  21.218  0.00  0.00    +0.000 C 
ENDROOT
BRANCH   1   3
ATOM      2  O   UNL     1       0.350   5.289  20.457  0.00  0.00    +0.000 OA
ATOM      3  C   UNL     1       1.543   5.225  20.730  0.00  0.00    +0.000 C 
ATOM      4  N   UNL     1       2.389   6.310  20.660  0.00  0.00    +0.000 N 
ATOM      5  H   UNL     1       3.388   6.140  20.682  0.00  0.00    +0.000 HD
BRANCH   4   6
ATOM      6  C   UNL     1       1.946   7.563  20.064  0.00  0.00    +0.000 C 
BRANCH   6   7
ATOM      7  C   UNL     1       2.514   7.776  18.655  0.00  0.00    +0.000 C 
BRANCH   7   8
ATOM      8  S   UNL     1       1.644   9.190  17.878  0.00  0.00    +0.000 S 
BRANCH   8   9
ATOM      9  C   UNL     1       0.714   9.851  19.301  0.00  0.00    +0.000 C 
BRANCH   9  10
ATOM     10  C   UNL     1      -0.633  10.363  18.840  0.00  0.00    +0.000 A 
ATOM     11  C   UNL     1      -1.196   9.934  17.631  0.00  0.00    +0.000 A 
ATOM     12  C   UNL     1      -2.398  10.480  17.167  0.00  0.00    +0.000 A 
ATOM     13  C   UNL     1      -3.051  11.459  17.913  0.00  0.00    +0.000 A 
ATOM     14  C   UNL     1      -2.514  11.884  19.122  0.00  0.00    +0.000 A 
ATOM     15  C   UNL     1      -1.311  11.342  19.585  0.00  0.00    +0.000 A 
ENDBRANCH   9  10
ENDBRANCH   8   9
ENDBRANCH   7   8
ENDBRANCH   6   7
ENDBRANCH   4   6
ENDBRANCH   1   3
BRANCH   1  16
ATOM     16  C   UNL     1       1.574   2.687  20.646  0.00  0.00    +0.000 C 
BRANCH  16  17
ATOM     17  C   UNL     1       2.099   2.374  19.238  0.00  0.00    +0.000 C 
BRANCH  17  18
ATOM     18  N   UNL     1       3.359   3.068  18.936  0.00  0.00    +0.000 N 
ATOM     19  C   UNL     1       4.552   2.724  19.569  0.00  0.00    +0.000 A 
ATOM     20  S   UNL     1       4.788   1.553  20.746  0.00  0.00    +0.000 S 
ATOM     21  N   UNL     1       5.675   3.407  19.186  0.00  0.00    +0.000 N 
ATOM     22  C   UNL     1       5.702   4.356  18.169  0.00  0.00    +0.000 A 
ATOM     23  C   UNL     1       6.916   4.913  17.770  0.00  0.00    +0.000 A 
ATOM     24  C   UNL     1       6.943   5.826  16.715  0.00  0.00    +0.000 A 
ATOM     25  C   UNL     1       5.756   6.194  16.077  0.00  0.00    +0.000 A 
ATOM     26  C   UNL     1       4.540   5.652  16.497  0.00  0.00    +0.000 A 
ATOM     27  C   UNL     1       4.520   4.725  17.543  0.00  0.00    +0.000 A 
ATOM     28  C   UNL     1       3.260   4.103  17.992  0.00  0.00    +0.000 A 
ATOM     29  O   UNL     1       2.198   4.510  17.525  0.00  0.00    +0.000 OA
ATOM     30  H   UNL     1       6.538   3.139  19.646  0.00  0.00    +0.000 HD
ENDBRANCH  17  18
ENDBRANCH  16  17
ENDBRANCH   1  16
TORSDOF 9
ENDMDL
MODEL 5
REMARK VINA RESULT:      -7.4      3.278      9.737
REMARK  Name = 
REMARK  9 active torsions:
REMARK  status: ('A' for Active; 'I' for Inactive)
REMARK    1  A    between atoms: C_2  and  C_3
REMARK    2  A    between atoms: C_3  and  C_4
REMARK    3  A    between atoms: C_4  and  C_5
REMARK    4  A    between atoms: C_5  and  N_6
REMARK    5  A    between atoms: N_18  and  C_19
REMARK    6  A    between atoms: C_19  and  C_20
REMARK    7  A    between atoms: C_20  and  S_21
REMARK    8  A    between atoms: S_21  and  C_22
REMARK    9  A    between atoms: C_22  and  C_23
REMARK                            x       y       z     vdW  Elec       q    Type
REMARK                         _______ _______ _______ _____ _____    ______ ____
ROOT
ATOM      1  C   UNL     1       0.880   9.182  22.442  0.00  0.00    +0.000 C 
ENDROOT
BRANCH   1   3
ATOM      2  O   UNL     1      -0.616   7.705  21.245  0.00  0.00    +0.000 OA
ATOM      3  C   UNL     1       0.532   7.984  21.572  0.00  0.00    +0.000 C 
ATOM      4  N   UNL     1       1.629   7.264  21.154  0.00  0.00    +0.000 N 
ATOM      5  H   UNL     1       2.509   7.411  21.634  0.00  0.00    +0.000 HD
BRANCH   4   6
ATOM      6  C   UNL     1       1.466   6.001  20.448  0.00  0.00    +0.000 C 
BRANCH   6   7
ATOM      7  C   UNL     1       2.334   4.882  21.039  0.00  0.00    +0.000 C 
BRANCH   7   8
ATOM      8  S   UNL     1       3.332   4.140  19.693  0.00  0.00    +0.000 S 
BRANCH   8   9
ATOM      9  C   UNL     1       4.253   5.597  19.098  0.00  0.00    +0.000 C 
BRANCH   9  10
ATOM     10  C   UNL     1       5.159   5.199  17.954  0.00  0.00    +0.000 A 
ATOM     11  C   UNL     1       6.498   4.852  18.177  0.00  0.00    +0.000 A 
ATOM     12  C   UNL     1       7.354   4.574  17.105  0.00  0.00    +0.000 A 
ATOM     13  C   UNL     1       6.875   4.636  15.797  0.00  0.00    +0.000 A 
ATOM     14  C   UNL     1       5.546   4.963  15.561  0.00  0.00    +0.000 A 
ATOM     15  C   UNL     1       4.691   5.245  16.630  0.00  0.00    +0.000 A 
ENDBRANCH   9  10
ENDBRANCH   8   9
ENDBRANCH   7   8
ENDBRANCH   6   7
ENDBRANCH   4   6
ENDBRANCH   1   3
BRANCH   1  16
ATOM     16  C   UNL     1       0.110  10.444  22.046  0.00  0.00    +0.000 C 
BRANCH  16  17
ATOM     17  C   UNL     1       0.690  11.083  20.776  0.00  0.00    +0.000 C 
BRANCH  17  18
ATOM     18  N   UNL     1      -0.214  10.969  19.623  0.00  0.00    +0.000 N 
ATOM     19  C   UNL     1       0.146  10.256  18.480  0.00  0.00    +0.000 A 
ATOM     20  S   UNL     1       1.591   9.457  18.184  0.00  0.00    +0.000 S 
ATOM     21  N   UNL     1      -0.784  10.179  17.479  0.00  0.00    +0.000 N 
ATOM     22  C   UNL     1      -2.070  10.702  17.568  0.00  0.00    +0.000 A 
ATOM     23  C   UNL     1      -2.987  10.471  16.543  0.00  0.00    +0.000 A 
ATOM     24  C   UNL     1      -4.290  10.956  16.662  0.00  0.00    +0.000 A 
ATOM     25  C   UNL     1      -4.667  11.685  17.792  0.00  0.00    +0.000 A 
ATOM     26  C   UNL     1      -3.738  11.934  18.804  0.00  0.00    +0.000 A 
ATOM     27  C   UNL     1      -2.438  11.433  18.689  0.00  0.00    +0.000 A 
ATOM     28  C   UNL     1      -1.438  11.644  19.752  0.00  0.00    +0.000 A 
ATOM     29  O   UNL     1      -1.719  12.389  20.691  0.00  0.00    +0.000 OA
ATOM     30  H   UNL     1      -0.514   9.647  16.660  0.00  0.00    +0.000 HD
ENDBRANCH  17  18
ENDBRANCH  16  17
ENDBRANCH   1  16
TORSDOF 9
ENDMDL
MODEL 6
REMARK VINA RESULT:      -7.4      2.224      3.042
REMARK  Name = 
REMARK  9 active torsions:
REMARK  status: ('A' for Active; 'I' for Inactive)
REMARK    1  A    between atoms: C_2  and  C_3
REMARK    2  A    between atoms: C_3  and  C_4
REMARK    3  A    between atoms: C_4  and  C_5
REMARK    4  A    between atoms: C_5  and  N_6
REMARK    5  A    between atoms: N_18  and  C_19
REMARK    6  A    between atoms: C_19  and  C_20
REMARK    7  A    between atoms: C_20  and  S_21
REMARK    8  A    between atoms: S_21  and  C_22
REMARK    9  A    between atoms: C_22  and  C_23
REMARK                            x       y       z     vdW  Elec       q    Type
REMARK                         _______ _______ _______ _____ _____    ______ ____
ROOT
ATOM      1  C   UNL     1       2.149   6.515  20.333  0.00  0.00    +0.000 C 
ENDROOT
BRANCH   1   3
ATOM      2  O   UNL     1       2.472   6.811  17.955  0.00  0.00    +0.000 OA
ATOM      3  C   UNL     1       2.158   7.303  19.032  0.00  0.00    +0.000 C 
ATOM      4  N   UNL     1       1.745   8.609  19.171  0.00  0.00    +0.000 N 
ATOM      5  H   UNL     1       1.718   9.006  20.103  0.00  0.00    +0.000 HD
BRANCH   4   6
ATOM      6  C   UNL     1       1.844   9.543  18.059  0.00  0.00    +0.000 C 
BRANCH   6   7
ATOM      7  C   UNL     1       1.765  11.007  18.513  0.00  0.00    +0.000 C 
BRANCH   7   8
ATOM      8  S   UNL     1       0.016  11.416  18.875  0.00  0.00    +0.000 S 
BRANCH   8   9
ATOM      9  C   UNL     1      -0.851  10.175  17.857  0.00  0.00    +0.000 C 
BRANCH   9  10
ATOM     10  C   UNL     1      -2.214  10.698  17.462  0.00  0.00    +0.000 A 
ATOM     11  C   UNL     1      -3.067  11.283  18.406  0.00  0.00    +0.000 A 
ATOM     12  C   UNL     1      -4.362  11.681  18.053  0.00  0.00    +0.000 A 
ATOM     13  C   UNL     1      -4.813  11.501  16.746  0.00  0.00    +0.000 A 
ATOM     14  C   UNL     1      -3.973  10.936  15.794  0.00  0.00    +0.000 A 
ATOM     15  C   UNL     1      -2.681  10.534  16.147  0.00  0.00    +0.000 A 
ENDBRANCH   9  10
ENDBRANCH   8   9
ENDBRANCH   7   8
ENDBRANCH   6   7
ENDBRANCH   4   6
ENDBRANCH   1   3
BRANCH   1  16
ATOM     16  C   UNL     1       1.942   5.015  20.114  0.00  0.00    +0.000 C 
BRANCH  16  17
ATOM     17  C   UNL     1       3.249   4.231  20.298  0.00  0.00    +0.000 C 
BRANCH  17  18
ATOM     18  N   UNL     1       3.975   4.038  19.034  0.00  0.00    +0.000 N 
ATOM     19  C   UNL     1       3.577   3.079  18.103  0.00  0.00    +0.000 A 
ATOM     20  S   UNL     1       2.300   1.999  18.225  0.00  0.00    +0.000 S 
ATOM     21  N   UNL     1       4.298   3.009  16.942  0.00  0.00    +0.000 N 
ATOM     22  C   UNL     1       5.339   3.872  16.616  0.00  0.00    +0.000 A 
ATOM     23  C   UNL     1       5.937   3.797  15.358  0.00  0.00    +0.000 A 
ATOM     24  C   UNL     1       6.946   4.700  15.020  0.00  0.00    +0.000 A 
ATOM     25  C   UNL     1       7.368   5.659  15.944  0.00  0.00    +0.000 A 
ATOM     26  C   UNL     1       6.783   5.714  17.210  0.00  0.00    +0.000 A 
ATOM     27  C   UNL     1       5.761   4.818  17.539  0.00  0.00    +0.000 A 
ATOM     28  C   UNL     1       5.094   4.867  18.854  0.00  0.00    +0.000 A 
ATOM     29  O   UNL     1       5.539   5.620  19.718  0.00  0.00    +0.000 OA
ATOM     30  H   UNL     1       3.991   2.316  16.269  0.00  0.00    +0.000 HD
ENDBRANCH  17  18
ENDBRANCH  16  17
ENDBRANCH   1  16
TORSDOF 9
ENDMDL
MODEL 7
REMARK VINA RESULT:      -7.3      3.923     10.978
REMARK  Name = 
REMARK  9 active torsions:
REMARK  status: ('A' for Active; 'I' for Inactive)
REMARK    1  A    between atoms: C_2  and  C_3
REMARK    2  A    between atoms: C_3  and  C_4
REMARK    3  A    between atoms: C_4  and  C_5
REMARK    4  A    between atoms: C_5  and  N_6
REMARK    5  A    between atoms: N_18  and  C_19
REMARK    6  A    between atoms: C_19  and  C_20
REMARK    7  A    between atoms: C_20  and  S_21
REMARK    8  A    between atoms: S_21  and  C_22
REMARK    9  A    between atoms: C_22  and  C_23
REMARK                            x       y       z     vdW  Elec       q    Type
REMARK                         _______ _______ _______ _____ _____    ______ ____
ROOT
ATOM      1  C   UNL     1       1.340   8.495  20.719  0.00  0.00    +0.000 C 
ENDROOT
BRANCH   1   3
ATOM      2  O   UNL     1       1.624   8.854  18.344  0.00  0.00    +0.000 OA
ATOM      3  C   UNL     1       1.856   8.162  19.328  0.00  0.00    +0.000 C 
ATOM      4  N   UNL     1       2.641   7.031  19.283  0.00  0.00    +0.000 N 
ATOM      5  H   UNL     1       2.608   6.394  20.071  0.00  0.00    +0.000 HD
BRANCH   4   6
ATOM      6  C   UNL     1       3.085   6.483  18.009  0.00  0.00    +0.000 C 
BRANCH   6   7
ATOM      7  C   UNL     1       4.577   6.123  18.013  0.00  0.00    +0.000 C 
BRANCH   7   8
ATOM      8  S   UNL     1       4.772   4.418  17.370  0.00  0.00    +0.000 S 
BRANCH   8   9
ATOM      9  C   UNL     1       4.689   3.451  18.915  0.00  0.00    +0.000 C 
BRANCH   9  10
ATOM     10  C   UNL     1       3.244   3.240  19.311  0.00  0.00    +0.000 A 
ATOM     11  C   UNL     1       2.321   2.686  18.414  0.00  0.00    +0.000 A 
ATOM     12  C   UNL     1       0.968   2.578  18.754  0.00  0.00    +0.000 A 
ATOM     13  C   UNL     1       0.526   3.020  20.000  0.00  0.00    +0.000 A 
ATOM     14  C   UNL     1       1.431   3.557  20.906  0.00  0.00    +0.000 A 
ATOM     15  C   UNL     1       2.783   3.669  20.566  0.00  0.00    +0.000 A 
ENDBRANCH   9  10
ENDBRANCH   8   9
ENDBRANCH   7   8
ENDBRANCH   6   7
ENDBRANCH   4   6
ENDBRANCH   1   3
BRANCH   1  16
ATOM     16  C   UNL     1       0.013   9.256  20.691  0.00  0.00    +0.000 C 
BRANCH  16  17
ATOM     17  C   UNL     1       0.226  10.769  20.845  0.00  0.00    +0.000 C 
BRANCH  17  18
ATOM     18  N   UNL     1      -1.033  11.498  21.053  0.00  0.00    +0.000 N 
ATOM     19  C   UNL     1      -1.767  12.008  19.983  0.00  0.00    +0.000 A 
ATOM     20  S   UNL     1      -1.389  11.930  18.351  0.00  0.00    +0.000 S 
ATOM     21  N   UNL     1      -2.945  12.636  20.284  0.00  0.00    +0.000 N 
ATOM     22  C   UNL     1      -3.474  12.729  21.568  0.00  0.00    +0.000 A 
ATOM     23  C   UNL     1      -4.738  13.286  21.760  0.00  0.00    +0.000 A 
ATOM     24  C   UNL     1      -5.284  13.330  23.044  0.00  0.00    +0.000 A 
ATOM     25  C   UNL     1      -4.558  12.837  24.132  0.00  0.00    +0.000 A 
ATOM     26  C   UNL     1      -3.283  12.304  23.936  0.00  0.00    +0.000 A 
ATOM     27  C   UNL     1      -2.746  12.247  22.646  0.00  0.00    +0.000 A 
ATOM     28  C   UNL     1      -1.418  11.658  22.394  0.00  0.00    +0.000 A 
ATOM     29  O   UNL     1      -0.719  11.338  23.354  0.00  0.00    +0.000 OA
ATOM     30  H   UNL     1      -3.475  12.991  19.496  0.00  0.00    +0.000 HD
ENDBRANCH  17  18
ENDBRANCH  16  17
ENDBRANCH   1  16
TORSDOF 9
ENDMDL
MODEL 8
REMARK VINA RESULT:      -7.3      6.164      8.268
REMARK  Name = 
REMARK  9 active torsions:
REMARK  status: ('A' for Active; 'I' for Inactive)
REMARK    1  A    between atoms: C_2  and  C_3
REMARK    2  A    between atoms: C_3  and  C_4
REMARK    3  A    between atoms: C_4  and  C_5
REMARK    4  A    between atoms: C_5  and  N_6
REMARK    5  A    between atoms: N_18  and  C_19
REMARK    6  A    between atoms: C_19  and  C_20
REMARK    7  A    between atoms: C_20  and  S_21
REMARK    8  A    between atoms: S_21  and  C_22
REMARK    9  A    between atoms: C_22  and  C_23
REMARK                            x       y       z     vdW  Elec       q    Type
REMARK                         _______ _______ _______ _____ _____    ______ ____
ROOT
ATOM      1  C   UNL     1       8.263   7.684  18.648  0.00  0.00    +0.000 C 
ENDROOT
BRANCH   1   3
ATOM      2  O   UNL     1       8.127   9.730  17.367  0.00  0.00    +0.000 OA
ATOM      3  C   UNL     1       8.577   9.139  18.341  0.00  0.00    +0.000 C 
ATOM      4  N   UNL     1       9.384   9.743  19.280  0.00  0.00    +0.000 N 
ATOM      5  H   UNL     1       9.894   9.150  19.925  0.00  0.00    +0.000 HD
BRANCH   4   6
ATOM      6  C   UNL     1       9.909  11.083  19.059  0.00  0.00    +0.000 C 
BRANCH   6   7
ATOM      7  C   UNL     1       9.144  12.152  19.852  0.00  0.00    +0.000 C 
BRANCH   7   8
ATOM      8  S   UNL     1       9.018  11.610  21.598  0.00  0.00    +0.000 S 
BRANCH   8   9
ATOM      9  C   UNL     1       7.945  12.912  22.290  0.00  0.00    +0.000 C 
BRANCH   9  10
ATOM     10  C   UNL     1       7.466  12.504  23.666  0.00  0.00    +0.000 A 
ATOM     11  C   UNL     1       8.201  12.825  24.814  0.00  0.00    +0.000 A 
ATOM     12  C   UNL     1       7.800  12.365  26.074  0.00  0.00    +0.000 A 
ATOM     13  C   UNL     1       6.653  11.582  26.196  0.00  0.00    +0.000 A 
ATOM     14  C   UNL     1       5.905  11.269  25.069  0.00  0.00    +0.000 A 
ATOM     15  C   UNL     1       6.307  11.723  23.810  0.00  0.00    +0.000 A 
ENDBRANCH   9  10
ENDBRANCH   8   9
ENDBRANCH   7   8
ENDBRANCH   6   7
ENDBRANCH   4   6
ENDBRANCH   1   3
BRANCH   1  16
ATOM     16  C   UNL     1       7.382   7.031  17.580  0.00  0.00    +0.000 C 
BRANCH  16  17
ATOM     17  C   UNL     1       7.498   5.501  17.610  0.00  0.00    +0.000 C 
BRANCH  17  18
ATOM     18  N   UNL     1       6.191   4.833  17.533  0.00  0.00    +0.000 N 
ATOM     19  C   UNL     1       5.605   4.514  16.309  0.00  0.00    +0.000 A 
ATOM     20  S   UNL     1       6.203   4.826  14.774  0.00  0.00    +0.000 S 
ATOM     21  N   UNL     1       4.404   3.857  16.350  0.00  0.00    +0.000 N 
ATOM     22  C   UNL     1       3.786   3.435  17.523  0.00  0.00    +0.000 A 
ATOM     23  C   UNL     1       2.622   2.670  17.458  0.00  0.00    +0.000 A 
ATOM     24  C   UNL     1       2.035   2.207  18.637  0.00  0.00    +0.000 A 
ATOM     25  C   UNL     1       2.600   2.527  19.874  0.00  0.00    +0.000 A 
ATOM     26  C   UNL     1       3.751   3.314  19.934  0.00  0.00    +0.000 A 
ATOM     27  C   UNL     1       4.345   3.763  18.750  0.00  0.00    +0.000 A 
ATOM     28  C   UNL     1       5.581   4.567  18.770  0.00  0.00    +0.000 A 
ATOM     29  O   UNL     1       6.016   4.960  19.851  0.00  0.00    +0.000 OA
ATOM     30  H   UNL     1       3.996   3.621  15.454  0.00  0.00    +0.000 HD
ENDBRANCH  17  18
ENDBRANCH  16  17
ENDBRANCH   1  16
TORSDOF 9
ENDMDL
MODEL 9
REMARK VINA RESULT:      -7.2      5.962      9.255
REMARK  Name = 
REMARK  9 active torsions:
REMARK  status: ('A' for Active; 'I' for Inactive)
REMARK    1  A    between atoms: C_2  and  C_3
REMARK    2  A    between atoms: C_3  and  C_4
REMARK    3  A    between atoms: C_4  and  C_5
REMARK    4  A    between atoms: C_5  and  N_6
REMARK    5  A    between atoms: N_18  and  C_19
REMARK    6  A    between atoms: C_19  and  C_20
REMARK    7  A    between atoms: C_20  and  S_21
REMARK    8  A    between atoms: S_21  and  C_22
REMARK    9  A    between atoms: C_22  and  C_23
REMARK                            x       y       z     vdW  Elec       q    Type
REMARK                         _______ _______ _______ _____ _____    ______ ____
ROOT
ATOM      1  C   UNL     1       7.110   8.108  17.121  0.00  0.00    +0.000 C 
ENDROOT
BRANCH   1   3
ATOM      2  O   UNL     1       8.633   7.571  18.921  0.00  0.00    +0.000 OA
ATOM      3  C   UNL     1       8.150   8.423  18.185  0.00  0.00    +0.000 C 
ATOM      4  N   UNL     1       8.526   9.747  18.219  0.00  0.00    +0.000 N 
ATOM      5  H   UNL     1       7.937  10.425  17.748  0.00  0.00    +0.000 HD
BRANCH   4   6
ATOM      6  C   UNL     1       9.392  10.249  19.278  0.00  0.00    +0.000 C 
BRANCH   6   7
ATOM      7  C   UNL     1       9.932  11.653  18.978  0.00  0.00    +0.000 C 
BRANCH   7   8
ATOM      8  S   UNL     1      11.742  11.661  19.266  0.00  0.00    +0.000 S 
BRANCH   8   9
ATOM      9  C   UNL     1      12.244  13.117  18.288  0.00  0.00    +0.000 C 
BRANCH   9  10
ATOM     10  C   UNL     1      11.364  14.296  18.636  0.00  0.00    +0.000 A 
ATOM     11  C   UNL     1      10.557  14.909  17.668  0.00  0.00    +0.000 A 
ATOM     12  C   UNL     1       9.816  16.055  17.974  0.00  0.00    +0.000 A 
ATOM     13  C   UNL     1       9.871  16.599  19.257  0.00  0.00    +0.000 A 
ATOM     14  C   UNL     1      10.654  15.993  20.232  0.00  0.00    +0.000 A 
ATOM     15  C   UNL     1      11.399  14.851  19.926  0.00  0.00    +0.000 A 
ENDBRANCH   9  10
ENDBRANCH   8   9
ENDBRANCH   7   8
ENDBRANCH   6   7
ENDBRANCH   4   6
ENDBRANCH   1   3
BRANCH   1  16
ATOM     16  C   UNL     1       6.520   6.704  17.268  0.00  0.00    +0.000 C 
BRANCH  16  17
ATOM     17  C   UNL     1       5.109   6.618  16.669  0.00  0.00    +0.000 C 
BRANCH  17  18
ATOM     18  N   UNL     1       4.332   5.494  17.211  0.00  0.00    +0.000 N 
ATOM     19  C   UNL     1       4.549   4.184  16.786  0.00  0.00    +0.000 A 
ATOM     20  S   UNL     1       5.640   3.649  15.630  0.00  0.00    +0.000 S 
ATOM     21  N   UNL     1       3.798   3.207  17.383  0.00  0.00    +0.000 N 
ATOM     22  C   UNL     1       2.901   3.439  18.421  0.00  0.00    +0.000 A 
ATOM     23  C   UNL     1       2.269   2.364  19.045  0.00  0.00    +0.000 A 
ATOM     24  C   UNL     1       1.409   2.599  20.119  0.00  0.00    +0.000 A 
ATOM     25  C   UNL     1       1.168   3.906  20.551  0.00  0.00    +0.000 A 
ATOM     26  C   UNL     1       1.784   4.979  19.906  0.00  0.00    +0.000 A 
ATOM     27  C   UNL     1       2.658   4.738  18.841  0.00  0.00    +0.000 A 
ATOM     28  C   UNL     1       3.355   5.843  18.157  0.00  0.00    +0.000 A 
ATOM     29  O   UNL     1       3.057   7.001  18.444  0.00  0.00    +0.000 OA
ATOM     30  H   UNL     1       3.975   2.259  17.073  0.00  0.00    +0.000 HD
ENDBRANCH  17  18
ENDBRANCH  16  17
ENDBRANCH   1  16
TORSDOF 9
ENDMDL
