MODEL 1
REMARK VINA RESULT:      -7.8      0.000      0.000
REMARK  Name = 
REMARK  8 active torsions:
REMARK  status: ('A' for Active; 'I' for Inactive)
REMARK    1  A    between atoms: N_11  and  C_12
REMARK    2  A    between atoms: C_12  and  C_13
REMARK    3  A    between atoms: C_13  and  C_14
REMARK    4  A    between atoms: C_14  and  N_15
REMARK    5  A    between atoms: N_18  and  C_19
REMARK    6  A    between atoms: C_19  and  C_20
REMARK    7  A    between atoms: C_20  and  C_21
REMARK    8  A    between atoms: C_21  and  N_22
REMARK                            x       y       z     vdW  Elec       q    Type
REMARK                         _______ _______ _______ _____ _____    ______ ____
ROOT
ATOM      1  N   UNL     1       0.575  10.605  18.653  0.00  0.00    +0.000 NA
ATOM      2  C   UNL     1      -0.161   9.858  19.694  0.00  0.00    +0.000 C 
ATOM      3  C   UNL     1       0.463  10.037  21.091  0.00  0.00    +0.000 C 
ATOM      4  N   UNL     1       0.411  11.434  21.564  0.00  0.00    +0.000 NA
ATOM      5  C   UNL     1       1.006  12.323  20.545  0.00  0.00    +0.000 C 
ATOM      6  C   UNL     1       0.602  12.036  19.070  0.00  0.00    +0.000 C 
ENDROOT
BRANCH   1   7
ATOM      7  C   UNL     1       1.937  10.078  18.433  0.00  0.00    +0.000 C 
BRANCH   7   8
ATOM      8  C   UNL     1       2.016   8.705  17.733  0.00  0.00    +0.000 C 
BRANCH   8   9
ATOM      9  C   UNL     1       3.238   7.874  18.140  0.00  0.00    +0.000 C 
BRANCH   9  20
ATOM     10  O   UNL     1       1.708   7.046  20.536  0.00  0.00    +0.000 OA
ATOM     11  C   UNL     1       2.208   6.256  19.755  0.00  0.00    +0.000 C 
ATOM     12  C   UNL     1       2.324   4.767  19.951  0.00  0.00    +0.000 C 
ATOM     13  C   UNL     1       1.311   4.012  20.786  0.00  0.00    +0.000 C 
ATOM     14  C   UNL     1       1.661   2.517  20.730  0.00  0.00    +0.000 C 
ATOM     15  C   UNL     1       1.748   1.995  19.287  0.00  0.00    +0.000 C 
ATOM     16  C   UNL     1       2.689   2.835  18.403  0.00  0.00    +0.000 C 
ATOM     17  C   UNL     1       2.298   4.297  18.507  0.00  0.00    +0.000 C 
ATOM     18  C   UNL     1       3.143   5.375  17.869  0.00  0.00    +0.000 C 
ATOM     19  O   UNL     1       3.855   5.249  16.889  0.00  0.00    +0.000 OA
ATOM     20  N   UNL     1       2.867   6.530  18.574  0.00  0.00    +0.000 N 
ENDBRANCH   9  20
ENDBRANCH   8   9
ENDBRANCH   7   8
ENDBRANCH   1   7
BRANCH   4  21
ATOM     21  C   UNL     1      -0.944  11.857  21.948  0.00  0.00    +0.000 C 
BRANCH  21  22
ATOM     22  C   UNL     1      -0.938  13.239  22.604  0.00  0.00    +0.000 C 
BRANCH  22  23
ATOM     23  C   UNL     1      -1.801  14.229  21.822  0.00  0.00    +0.000 C 
BRANCH  23  24
ATOM     24  N   UNL     1      -3.196  13.908  22.001  0.00  0.00    +0.000 N 
ATOM     25  C   UNL     1      -3.952  13.259  21.057  0.00  0.00    +0.000 C 
ATOM     26  O   UNL     1      -3.597  12.809  19.980  0.00  0.00    +0.000 OA
ATOM     27  C   UNL     1      -5.339  13.239  21.623  0.00  0.00    +0.000 C 
ATOM     28  C   UNL     1      -6.330  12.207  21.153  0.00  0.00    +0.000 C 
ATOM     29  C   UNL     1      -7.601  12.354  22.000  0.00  0.00    +0.000 C 
ATOM     30  C   UNL     1      -7.316  12.266  23.509  0.00  0.00    +0.000 C 
ATOM     31  C   UNL     1      -6.223  13.243  23.969  0.00  0.00    +0.000 C 
ATOM     32  C   UNL     1      -5.010  13.039  23.095  0.00  0.00    +0.000 C 
ATOM     33  C   UNL     1      -3.809  13.936  23.234  0.00  0.00    +0.000 C 
ATOM     34  O   UNL     1      -3.409  14.428  24.275  0.00  0.00    +0.000 OA
ENDBRANCH  23  24
ENDBRANCH  22  23
ENDBRANCH  21  22
ENDBRANCH   4  21
TORSDOF 8
ENDMDL
MODEL 2
REMARK VINA RESULT:      -7.8      1.332      2.378
REMARK  Name = 
REMARK  8 active torsions:
REMARK  status: ('A' for Active; 'I' for Inactive)
REMARK    1  A    between atoms: N_11  and  C_12
REMARK    2  A    between atoms: C_12  and  C_13
REMARK    3  A    between atoms: C_13  and  C_14
REMARK    4  A    between atoms: C_14  and  N_15
REMARK    5  A    between atoms: N_18  and  C_19
REMARK    6  A    between atoms: C_19  and  C_20
REMARK    7  A    between atoms: C_20  and  C_21
REMARK    8  A    between atoms: C_21  and  N_22
REMARK                            x       y       z     vdW  Elec       q    Type
REMARK                         _______ _______ _______ _____ _____    ______ ____
ROOT
ATOM      1  N   UNL     1       0.833  10.232  19.473  0.00  0.00    +0.000 NA
ATOM      2  C   UNL     1       0.897  11.565  20.107  0.00  0.00    +0.000 C 
ATOM      3  C   UNL     1       0.280  12.663  19.221  0.00  0.00    +0.000 C 
ATOM      4  N   UNL     1      -1.164  12.460  18.985  0.00  0.00    +0.000 NA
ATOM      5  C   UNL     1      -1.392  11.097  18.465  0.00  0.00    +0.000 C 
ATOM      6  C   UNL     1      -0.600   9.956  19.167  0.00  0.00    +0.000 C 
ENDROOT
BRANCH   1   7
ATOM      7  C   UNL     1       1.675  10.138  18.264  0.00  0.00    +0.000 C 
BRANCH   7   8
ATOM      8  C   UNL     1       1.852   8.718  17.683  0.00  0.00    +0.000 C 
BRANCH   8   9
ATOM      9  C   UNL     1       3.092   7.987  18.208  0.00  0.00    +0.000 C 
BRANCH   9  20
ATOM     10  O   UNL     1       3.782   5.388  16.967  0.00  0.00    +0.000 OA
ATOM     11  C   UNL     1       3.092   5.491  17.966  0.00  0.00    +0.000 C 
ATOM     12  C   UNL     1       2.312   4.383  18.624  0.00  0.00    +0.000 C 
ATOM     13  C   UNL     1       2.776   2.944  18.528  0.00  0.00    +0.000 C 
ATOM     14  C   UNL     1       1.817   2.076  19.358  0.00  0.00    +0.000 C 
ATOM     15  C   UNL     1       1.697   2.566  20.809  0.00  0.00    +0.000 C 
ATOM     16  C   UNL     1       1.342   4.061  20.908  0.00  0.00    +0.000 C 
ATOM     17  C   UNL     1       2.315   4.862  20.065  0.00  0.00    +0.000 C 
ATOM     18  C   UNL     1       2.117   6.344  19.845  0.00  0.00    +0.000 C 
ATOM     19  O   UNL     1       1.555   7.117  20.599  0.00  0.00    +0.000 OA
ATOM     20  N   UNL     1       2.778   6.637  18.668  0.00  0.00    +0.000 N 
ENDBRANCH   9  20
ENDBRANCH   8   9
ENDBRANCH   7   8
ENDBRANCH   1   7
BRANCH   4  21
ATOM     21  C   UNL     1      -1.982  12.746  20.173  0.00  0.00    +0.000 C 
BRANCH  21  22
ATOM     22  C   UNL     1      -1.618  14.097  20.793  0.00  0.00    +0.000 C 
BRANCH  22  23
ATOM     23  C   UNL     1      -1.873  14.102  22.301  0.00  0.00    +0.000 C 
BRANCH  23  24
ATOM     24  N   UNL     1      -3.289  14.002  22.558  0.00  0.00    +0.000 N 
ATOM     25  C   UNL     1      -3.875  12.919  23.164  0.00  0.00    +0.000 C 
ATOM     26  O   UNL     1      -3.338  11.923  23.620  0.00  0.00    +0.000 OA
ATOM     27  C   UNL     1      -5.345  13.206  23.125  0.00  0.00    +0.000 C 
ATOM     28  C   UNL     1      -6.270  12.535  24.106  0.00  0.00    +0.000 C 
ATOM     29  C   UNL     1      -7.673  13.124  23.908  0.00  0.00    +0.000 C 
ATOM     30  C   UNL     1      -7.690  14.657  24.022  0.00  0.00    +0.000 C 
ATOM     31  C   UNL     1      -6.665  15.337  23.101  0.00  0.00    +0.000 C 
ATOM     32  C   UNL     1      -5.316  14.710  23.353  0.00  0.00    +0.000 C 
ATOM     33  C   UNL     1      -4.127  15.094  22.514  0.00  0.00    +0.000 C 
ATOM     34  O   UNL     1      -3.915  16.201  22.050  0.00  0.00    +0.000 OA
ENDBRANCH  23  24
ENDBRANCH  22  23
ENDBRANCH  21  22
ENDBRANCH   4  21
TORSDOF 8
ENDMDL
MODEL 3
REMARK VINA RESULT:      -7.6      2.896     11.078
REMARK  Name = 
REMARK  8 active torsions:
REMARK  status: ('A' for Active; 'I' for Inactive)
REMARK    1  A    between atoms: N_11  and  C_12
REMARK    2  A    between atoms: C_12  and  C_13
REMARK    3  A    between atoms: C_13  and  C_14
REMARK    4  A    between atoms: C_14  and  N_15
REMARK    5  A    between atoms: N_18  and  C_19
REMARK    6  A    between atoms: C_19  and  C_20
REMARK    7  A    between atoms: C_20  and  C_21
REMARK    8  A    between atoms: C_21  and  N_22
REMARK                            x       y       z     vdW  Elec       q    Type
REMARK                         _______ _______ _______ _____ _____    ______ ____
ROOT
ATOM      1  N   UNL     1       2.640   6.603  19.388  0.00  0.00    +0.000 NA
ATOM      2  C   UNL     1       2.469   5.616  20.474  0.00  0.00    +0.000 C 
ATOM      3  C   UNL     1       1.129   4.865  20.373  0.00  0.00    +0.000 C 
ATOM      4  N   UNL     1       1.023   4.050  19.145  0.00  0.00    +0.000 NA
ATOM      5  C   UNL     1       1.304   4.895  17.968  0.00  0.00    +0.000 C 
ATOM      6  C   UNL     1       2.513   5.867  18.096  0.00  0.00    +0.000 C 
ENDROOT
BRANCH   1   7
ATOM      7  C   UNL     1       1.674   7.716  19.475  0.00  0.00    +0.000 C 
BRANCH   7   8
ATOM      8  C   UNL     1       1.516   8.355  20.871  0.00  0.00    +0.000 C 
BRANCH   8   9
ATOM      9  C   UNL     1       0.062   8.452  21.344  0.00  0.00    +0.000 C 
BRANCH   9  20
ATOM     10  O   UNL     1      -0.852  10.202  19.138  0.00  0.00    +0.000 OA
ATOM     11  C   UNL     1      -0.742  10.580  20.291  0.00  0.00    +0.000 C 
ATOM     12  C   UNL     1      -0.842  12.004  20.771  0.00  0.00    +0.000 C 
ATOM     13  C   UNL     1      -1.696  13.014  20.033  0.00  0.00    +0.000 C 
ATOM     14  C   UNL     1      -1.648  14.340  20.808  0.00  0.00    +0.000 C 
ATOM     15  C   UNL     1      -2.066  14.170  22.276  0.00  0.00    +0.000 C 
ATOM     16  C   UNL     1      -1.279  13.059  22.997  0.00  0.00    +0.000 C 
ATOM     17  C   UNL     1      -1.357  11.783  22.183  0.00  0.00    +0.000 C 
ATOM     18  C   UNL     1      -0.549  10.565  22.565  0.00  0.00    +0.000 C 
ATOM     19  O   UNL     1      -0.177  10.268  23.686  0.00  0.00    +0.000 OA
ATOM     20  N   UNL     1      -0.405   9.834  21.402  0.00  0.00    +0.000 N 
ENDBRANCH   9  20
ENDBRANCH   8   9
ENDBRANCH   7   8
ENDBRANCH   1   7
BRANCH   4  21
ATOM     21  C   UNL     1       1.870   2.848  19.183  0.00  0.00    +0.000 C 
BRANCH  21  22
ATOM     22  C   UNL     1       2.250   2.385  17.776  0.00  0.00    +0.000 C 
BRANCH  22  23
ATOM     23  C   UNL     1       3.734   2.026  17.692  0.00  0.00    +0.000 C 
BRANCH  23  24
ATOM     24  N   UNL     1       4.532   3.227  17.751  0.00  0.00    +0.000 N 
ATOM     25  C   UNL     1       5.200   3.639  18.877  0.00  0.00    +0.000 C 
ATOM     26  O   UNL     1       5.286   3.075  19.956  0.00  0.00    +0.000 OA
ATOM     27  C   UNL     1       5.793   4.964  18.510  0.00  0.00    +0.000 C 
ATOM     28  C   UNL     1       6.985   5.491  19.263  0.00  0.00    +0.000 C 
ATOM     29  C   UNL     1       7.440   6.787  18.578  0.00  0.00    +0.000 C 
ATOM     30  C   UNL     1       7.719   6.593  17.078  0.00  0.00    +0.000 C 
ATOM     31  C   UNL     1       6.541   5.949  16.329  0.00  0.00    +0.000 C 
ATOM     32  C   UNL     1       6.153   4.686  17.058  0.00  0.00    +0.000 C 
ATOM     33  C   UNL     1       4.952   3.892  16.621  0.00  0.00    +0.000 C 
ATOM     34  O   UNL     1       4.566   3.764  15.472  0.00  0.00    +0.000 OA
ENDBRANCH  23  24
ENDBRANCH  22  23
ENDBRANCH  21  22
ENDBRANCH   4  21
TORSDOF 8
ENDMDL
MODEL 4
REMARK VINA RESULT:      -7.5      1.370      2.100
REMARK  Name = 
REMARK  8 active torsions:
REMARK  status: ('A' for Active; 'I' for Inactive)
REMARK    1  A    between atoms: N_11  and  C_12
REMARK    2  A    between atoms: C_12  and  C_13
REMARK    3  A    between atoms: C_13  and  C_14
REMARK    4  A    between atoms: C_14  and  N_15
REMARK    5  A    between atoms: N_18  and  C_19
REMARK    6  A    between atoms: C_19  and  C_20
REMARK    7  A    between atoms: C_20  and  C_21
REMARK    8  A    between atoms: C_21  and  N_22
REMARK                            x       y       z     vdW  Elec       q    Type
REMARK                         _______ _______ _______ _____ _____    ______ ____
ROOT
ATOM      1  N   UNL     1       0.279  10.561  18.567  0.00  0.00    +0.000 NA
ATOM      2  C   UNL     1      -0.651   9.993  19.565  0.00  0.00    +0.000 C 
ATOM      3  C   UNL     1      -0.260  10.368  21.006  0.00  0.00    +0.000 C 
ATOM      4  N   UNL     1      -0.329  11.821  21.256  0.00  0.00    +0.000 NA
ATOM      5  C   UNL     1       0.465  12.535  20.236  0.00  0.00    +0.000 C 
ATOM      6  C   UNL     1       0.299  12.038  18.770  0.00  0.00    +0.000 C 
ENDROOT
BRANCH   1   7
ATOM      7  C   UNL     1       1.634   9.982  18.661  0.00  0.00    +0.000 C 
BRANCH   7   8
ATOM      8  C   UNL     1       1.898   8.752  17.766  0.00  0.00    +0.000 C 
BRANCH   8   9
ATOM      9  C   UNL     1       3.141   7.952  18.168  0.00  0.00    +0.000 C 
BRANCH   9  20
ATOM     10  O   UNL     1       1.594   7.096  20.544  0.00  0.00    +0.000 OA
ATOM     11  C   UNL     1       2.133   6.316  19.779  0.00  0.00    +0.000 C 
ATOM     12  C   UNL     1       2.291   4.833  19.991  0.00  0.00    +0.000 C 
ATOM     13  C   UNL     1       1.287   4.054  20.815  0.00  0.00    +0.000 C 
ATOM     14  C   UNL     1       1.685   2.571  20.778  0.00  0.00    +0.000 C 
ATOM     15  C   UNL     1       1.814   2.039  19.343  0.00  0.00    +0.000 C 
ATOM     16  C   UNL     1       2.744   2.900  18.468  0.00  0.00    +0.000 C 
ATOM     17  C   UNL     1       2.307   4.350  18.551  0.00  0.00    +0.000 C 
ATOM     18  C   UNL     1       3.129   5.449  17.918  0.00  0.00    +0.000 C 
ATOM     19  O   UNL     1       3.862   5.336  16.952  0.00  0.00    +0.000 OA
ATOM     20  N   UNL     1       2.804   6.600  18.607  0.00  0.00    +0.000 N 
ENDBRANCH   9  20
ENDBRANCH   8   9
ENDBRANCH   7   8
ENDBRANCH   1   7
BRANCH   4  21
ATOM     21  C   UNL     1      -1.709  12.322  21.338  0.00  0.00    +0.000 C 
BRANCH  21  22
ATOM     22  C   UNL     1      -1.991  12.975  22.692  0.00  0.00    +0.000 C 
BRANCH  22  23
ATOM     23  C   UNL     1      -3.169  12.305  23.399  0.00  0.00    +0.000 C 
BRANCH  23  24
ATOM     24  N   UNL     1      -4.337  13.147  23.309  0.00  0.00    +0.000 N 
ATOM     25  C   UNL     1      -4.462  14.343  23.970  0.00  0.00    +0.000 C 
ATOM     26  O   UNL     1      -3.640  14.912  24.670  0.00  0.00    +0.000 OA
ATOM     27  C   UNL     1      -5.855  14.805  23.670  0.00  0.00    +0.000 C 
ATOM     28  C   UNL     1      -6.205  16.265  23.778  0.00  0.00    +0.000 C 
ATOM     29  C   UNL     1      -7.647  16.442  23.285  0.00  0.00    +0.000 C 
ATOM     30  C   UNL     1      -7.859  15.879  21.870  0.00  0.00    +0.000 C 
ATOM     31  C   UNL     1      -7.396  14.420  21.731  0.00  0.00    +0.000 C 
ATOM     32  C   UNL     1      -5.976  14.326  22.231  0.00  0.00    +0.000 C 
ATOM     33  C   UNL     1      -5.286  12.992  22.323  0.00  0.00    +0.000 C 
ATOM     34  O   UNL     1      -5.449  12.055  21.561  0.00  0.00    +0.000 OA
ENDBRANCH  23  24
ENDBRANCH  22  23
ENDBRANCH  21  22
ENDBRANCH   4  21
TORSDOF 8
ENDMDL
MODEL 5
REMARK VINA RESULT:      -7.4      2.249     11.057
REMARK  Name = 
REMARK  8 active torsions:
REMARK  status: ('A' for Active; 'I' for Inactive)
REMARK    1  A    between atoms: N_11  and  C_12
REMARK    2  A    between atoms: C_12  and  C_13
REMARK    3  A    between atoms: C_13  and  C_14
REMARK    4  A    between atoms: C_14  and  N_15
REMARK    5  A    between atoms: N_18  and  C_19
REMARK    6  A    between atoms: C_19  and  C_20
REMARK    7  A    between atoms: C_20  and  C_21
REMARK    8  A    between atoms: C_21  and  N_22
REMARK                            x       y       z     vdW  Elec       q    Type
REMARK                         _______ _______ _______ _____ _____    ______ ____
ROOT
ATOM      1  N   UNL     1       0.675   9.628  18.670  0.00  0.00    +0.000 NA
ATOM      2  C   UNL     1       1.304   8.673  17.734  0.00  0.00    +0.000 C 
ATOM      3  C   UNL     1       2.664   8.164  18.249  0.00  0.00    +0.000 C 
ATOM      4  N   UNL     1       2.546   7.393  19.503  0.00  0.00    +0.000 NA
ATOM      5  C   UNL     1       1.809   8.190  20.504  0.00  0.00    +0.000 C 
ATOM      6  C   UNL     1       0.546   8.939  19.986  0.00  0.00    +0.000 C 
ENDROOT
BRANCH   1   7
ATOM      7  C   UNL     1       1.433  10.889  18.790  0.00  0.00    +0.000 C 
BRANCH   7   8
ATOM      8  C   UNL     1       1.258  11.649  20.122  0.00  0.00    +0.000 C 
BRANCH   8   9
ATOM      9  C   UNL     1       0.551  12.999  19.975  0.00  0.00    +0.000 C 
BRANCH   9  20
ATOM     10  O   UNL     1      -2.255  12.125  19.612  0.00  0.00    +0.000 OA
ATOM     11  C   UNL     1      -1.868  12.746  20.587  0.00  0.00    +0.000 C 
ATOM     12  C   UNL     1      -2.738  13.349  21.657  0.00  0.00    +0.000 C 
ATOM     13  C   UNL     1      -4.082  12.741  22.001  0.00  0.00    +0.000 C 
ATOM     14  C   UNL     1      -4.682  13.535  23.171  0.00  0.00    +0.000 C 
ATOM     15  C   UNL     1      -3.734  13.599  24.378  0.00  0.00    +0.000 C 
ATOM     16  C   UNL     1      -2.328  14.106  24.007  0.00  0.00    +0.000 C 
ATOM     17  C   UNL     1      -1.793  13.291  22.845  0.00  0.00    +0.000 C 
ATOM     18  C   UNL     1      -0.498  13.664  22.163  0.00  0.00    +0.000 C 
ATOM     19  O   UNL     1       0.442  14.249  22.670  0.00  0.00    +0.000 OA
ATOM     20  N   UNL     1      -0.578  13.129  20.893  0.00  0.00    +0.000 N 
ENDBRANCH   9  20
ENDBRANCH   8   9
ENDBRANCH   7   8
ENDBRANCH   1   7
BRANCH   4  21
ATOM     21  C   UNL     1       1.951   6.063  19.302  0.00  0.00    +0.000 C 
BRANCH  21  22
ATOM     22  C   UNL     1       2.430   5.067  20.360  0.00  0.00    +0.000 C 
BRANCH  22  23
ATOM     23  C   UNL     1       2.980   3.795  19.716  0.00  0.00    +0.000 C 
BRANCH  23  24
ATOM     24  N   UNL     1       3.863   4.139  18.628  0.00  0.00    +0.000 N 
ATOM     25  C   UNL     1       5.174   4.509  18.803  0.00  0.00    +0.000 C 
ATOM     26  O   UNL     1       5.815   4.560  19.840  0.00  0.00    +0.000 OA
ATOM     27  C   UNL     1       5.657   4.871  17.432  0.00  0.00    +0.000 C 
ATOM     28  C   UNL     1       7.129   4.838  17.119  0.00  0.00    +0.000 C 
ATOM     29  C   UNL     1       7.299   5.122  15.621  0.00  0.00    +0.000 C 
ATOM     30  C   UNL     1       6.480   4.161  14.743  0.00  0.00    +0.000 C 
ATOM     31  C   UNL     1       4.995   4.111  15.137  0.00  0.00    +0.000 C 
ATOM     32  C   UNL     1       4.909   3.827  16.616  0.00  0.00    +0.000 C 
ATOM     33  C   UNL     1       3.578   3.829  17.317  0.00  0.00    +0.000 C 
ATOM     34  O   UNL     1       2.520   3.467  16.831  0.00  0.00    +0.000 OA
ENDBRANCH  23  24
ENDBRANCH  22  23
ENDBRANCH  21  22
ENDBRANCH   4  21
TORSDOF 8
ENDMDL
MODEL 6
REMARK VINA RESULT:      -7.4      3.955      5.977
REMARK  Name = 
REMARK  8 active torsions:
REMARK  status: ('A' for Active; 'I' for Inactive)
REMARK    1  A    between atoms: N_11  and  C_12
REMARK    2  A    between atoms: C_12  and  C_13
REMARK    3  A    between atoms: C_13  and  C_14
REMARK    4  A    between atoms: C_14  and  N_15
REMARK    5  A    between atoms: N_18  and  C_19
REMARK    6  A    between atoms: C_19  and  C_20
REMARK    7  A    between atoms: C_20  and  C_21
REMARK    8  A    between atoms: C_21  and  N_22
REMARK                            x       y       z     vdW  Elec       q    Type
REMARK                         _______ _______ _______ _____ _____    ______ ____
ROOT
ATOM      1  N   UNL     1       2.585   7.065  19.717  0.00  0.00    +0.000 NA
ATOM      2  C   UNL     1       2.919   7.720  18.436  0.00  0.00    +0.000 C 
ATOM      3  C   UNL     1       1.672   8.273  17.722  0.00  0.00    +0.000 C 
ATOM      4  N   UNL     1       1.001   9.340  18.491  0.00  0.00    +0.000 NA
ATOM      5  C   UNL     1       0.722   8.860  19.859  0.00  0.00    +0.000 C 
ATOM      6  C   UNL     1       1.868   8.070  20.554  0.00  0.00    +0.000 C 
ENDROOT
BRANCH   1   7
ATOM      7  C   UNL     1       1.784   5.838  19.537  0.00  0.00    +0.000 C 
BRANCH   7   8
ATOM      8  C   UNL     1       2.160   4.655  20.455  0.00  0.00    +0.000 C 
BRANCH   8   9
ATOM      9  C   UNL     1       2.649   3.417  19.697  0.00  0.00    +0.000 C 
BRANCH   9  20
ATOM     10  O   UNL     1       2.369   3.468  16.749  0.00  0.00    +0.000 OA
ATOM     11  C   UNL     1       3.423   3.673  17.326  0.00  0.00    +0.000 C 
ATOM     12  C   UNL     1       4.780   3.783  16.681  0.00  0.00    +0.000 C 
ATOM     13  C   UNL     1       4.927   4.282  15.259  0.00  0.00    +0.000 C 
ATOM     14  C   UNL     1       6.425   4.347  14.926  0.00  0.00    +0.000 C 
ATOM     15  C   UNL     1       7.209   5.198  15.937  0.00  0.00    +0.000 C 
ATOM     16  C   UNL     1       6.967   4.767  17.396  0.00  0.00    +0.000 C 
ATOM     17  C   UNL     1       5.475   4.714  17.660  0.00  0.00    +0.000 C 
ATOM     18  C   UNL     1       4.933   4.170  18.962  0.00  0.00    +0.000 C 
ATOM     19  O   UNL     1       5.502   4.178  20.039  0.00  0.00    +0.000 OA
ATOM     20  N   UNL     1       3.647   3.752  18.685  0.00  0.00    +0.000 N 
ENDBRANCH   9  20
ENDBRANCH   8   9
ENDBRANCH   7   8
ENDBRANCH   1   7
BRANCH   4  21
ATOM     21  C   UNL     1       1.753  10.605  18.488  0.00  0.00    +0.000 C 
BRANCH  21  22
ATOM     22  C   UNL     1       0.825  11.810  18.651  0.00  0.00    +0.000 C 
BRANCH  22  23
ATOM     23  C   UNL     1       1.305  12.733  19.772  0.00  0.00    +0.000 C 
BRANCH  23  24
ATOM     24  N   UNL     1       1.126  14.110  19.382  0.00  0.00    +0.000 N 
ATOM     25  C   UNL     1       2.042  14.815  18.641  0.00  0.00    +0.000 C 
ATOM     26  O   UNL     1       3.090  14.419  18.157  0.00  0.00    +0.000 OA
ATOM     27  C   UNL     1       1.493  16.206  18.572  0.00  0.00    +0.000 C 
ATOM     28  C   UNL     1       1.918  17.130  17.461  0.00  0.00    +0.000 C 
ATOM     29  C   UNL     1       1.094  18.419  17.579  0.00  0.00    +0.000 C 
ATOM     30  C   UNL     1      -0.420  18.152  17.588  0.00  0.00    +0.000 C 
ATOM     31  C   UNL     1      -0.840  17.122  18.649  0.00  0.00    +0.000 C 
ATOM     32  C   UNL     1       0.008  15.887  18.469  0.00  0.00    +0.000 C 
ATOM     33  C   UNL     1      -0.097  14.742  19.438  0.00  0.00    +0.000 C 
ATOM     34  O   UNL     1      -1.115  14.385  20.007  0.00  0.00    +0.000 OA
ENDBRANCH  23  24
ENDBRANCH  22  23
ENDBRANCH  21  22
ENDBRANCH   4  21
TORSDOF 8
ENDMDL
MODEL 7
REMARK VINA RESULT:      -7.4      2.932     10.966
REMARK  Name = 
REMARK  8 active torsions:
REMARK  status: ('A' for Active; 'I' for Inactive)
REMARK    1  A    between atoms: N_11  and  C_12
REMARK    2  A    between atoms: C_12  and  C_13
REMARK    3  A    between atoms: C_13  and  C_14
REMARK    4  A    between atoms: C_14  and  N_15
REMARK    5  A    between atoms: N_18  and  C_19
REMARK    6  A    between atoms: C_19  and  C_20
REMARK    7  A    between atoms: C_20  and  C_21
REMARK    8  A    between atoms: C_21  and  N_22
REMARK                            x       y       z     vdW  Elec       q    Type
REMARK                         _______ _______ _______ _____ _____    ______ ____
ROOT
ATOM      1  N   UNL     1       2.809   6.685  19.398  0.00  0.00    +0.000 NA
ATOM      2  C   UNL     1       2.647   5.671  20.460  0.00  0.00    +0.000 C 
ATOM      3  C   UNL     1       1.286   4.955  20.380  0.00  0.00    +0.000 C 
ATOM      4  N   UNL     1       1.122   4.180  19.134  0.00  0.00    +0.000 NA
ATOM      5  C   UNL     1       1.388   5.053  17.973  0.00  0.00    +0.000 C 
ATOM      6  C   UNL     1       2.624   5.991  18.091  0.00  0.00    +0.000 C 
ENDROOT
BRANCH   1   7
ATOM      7  C   UNL     1       1.875   7.818  19.548  0.00  0.00    +0.000 C 
BRANCH   7   8
ATOM      8  C   UNL     1       1.603   8.273  20.998  0.00  0.00    +0.000 C 
BRANCH   8   9
ATOM      9  C   UNL     1       0.115   8.378  21.344  0.00  0.00    +0.000 C 
BRANCH   9  20
ATOM     10  O   UNL     1      -0.763  10.171  19.157  0.00  0.00    +0.000 OA
ATOM     11  C   UNL     1      -0.654  10.531  20.316  0.00  0.00    +0.000 C 
ATOM     12  C   UNL     1      -0.738  11.950  20.815  0.00  0.00    +0.000 C 
ATOM     13  C   UNL     1      -1.574  12.982  20.087  0.00  0.00    +0.000 C 
ATOM     14  C   UNL     1      -1.512  14.296  20.880  0.00  0.00    +0.000 C 
ATOM     15  C   UNL     1      -1.941  14.111  22.344  0.00  0.00    +0.000 C 
ATOM     16  C   UNL     1      -1.173  12.980  23.054  0.00  0.00    +0.000 C 
ATOM     17  C   UNL     1      -1.264  11.716  22.221  0.00  0.00    +0.000 C 
ATOM     18  C   UNL     1      -0.474  10.482  22.590  0.00  0.00    +0.000 C 
ATOM     19  O   UNL     1      -0.112  10.165  23.709  0.00  0.00    +0.000 OA
ATOM     20  N   UNL     1      -0.334   9.766  21.418  0.00  0.00    +0.000 N 
ENDBRANCH   9  20
ENDBRANCH   8   9
ENDBRANCH   7   8
ENDBRANCH   1   7
BRANCH   4  21
ATOM     21  C   UNL     1       1.939   2.958  19.110  0.00  0.00    +0.000 C 
BRANCH  21  22
ATOM     22  C   UNL     1       2.380   2.604  17.689  0.00  0.00    +0.000 C 
BRANCH  22  23
ATOM     23  C   UNL     1       3.778   1.985  17.679  0.00  0.00    +0.000 C 
BRANCH  23  24
ATOM     24  N   UNL     1       4.774   3.028  17.676  0.00  0.00    +0.000 N 
ATOM     25  C   UNL     1       5.038   3.823  16.588  0.00  0.00    +0.000 C 
ATOM     26  O   UNL     1       4.478   3.833  15.504  0.00  0.00    +0.000 OA
ATOM     27  C   UNL     1       6.198   4.673  17.004  0.00  0.00    +0.000 C 
ATOM     28  C   UNL     1       6.457   5.986  16.314  0.00  0.00    +0.000 C 
ATOM     29  C   UNL     1       7.615   6.681  17.041  0.00  0.00    +0.000 C 
ATOM     30  C   UNL     1       7.353   6.840  18.548  0.00  0.00    +0.000 C 
ATOM     31  C   UNL     1       6.978   5.516  19.233  0.00  0.00    +0.000 C 
ATOM     32  C   UNL     1       5.837   4.896  18.466  0.00  0.00    +0.000 C 
ATOM     33  C   UNL     1       5.323   3.530  18.835  0.00  0.00    +0.000 C 
ATOM     34  O   UNL     1       5.273   3.073  19.964  0.00  0.00    +0.000 OA
ENDBRANCH  23  24
ENDBRANCH  22  23
ENDBRANCH  21  22
ENDBRANCH   4  21
TORSDOF 8
ENDMDL
MODEL 8
REMARK VINA RESULT:      -7.3      2.461      4.227
REMARK  Name = 
REMARK  8 active torsions:
REMARK  status: ('A' for Active; 'I' for Inactive)
REMARK    1  A    between atoms: N_11  and  C_12
REMARK    2  A    between atoms: C_12  and  C_13
REMARK    3  A    between atoms: C_13  and  C_14
REMARK    4  A    between atoms: C_14  and  N_15
REMARK    5  A    between atoms: N_18  and  C_19
REMARK    6  A    between atoms: C_19  and  C_20
REMARK    7  A    between atoms: C_20  and  C_21
REMARK    8  A    between atoms: C_21  and  N_22
REMARK                            x       y       z     vdW  Elec       q    Type
REMARK                         _______ _______ _______ _____ _____    ______ ____
ROOT
ATOM      1  N   UNL     1       2.626   7.625  19.117  0.00  0.00    +0.000 NA
ATOM      2  C   UNL     1       2.564   8.721  18.128  0.00  0.00    +0.000 C 
ATOM      3  C   UNL     1       1.116   9.152  17.826  0.00  0.00    +0.000 C 
ATOM      4  N   UNL     1       0.429   9.711  19.007  0.00  0.00    +0.000 NA
ATOM      5  C   UNL     1       0.528   8.760  20.132  0.00  0.00    +0.000 C 
ATOM      6  C   UNL     1       1.919   8.094  20.344  0.00  0.00    +0.000 C 
ENDROOT
BRANCH   1   7
ATOM      7  C   UNL     1       2.048   6.366  18.606  0.00  0.00    +0.000 C 
BRANCH   7   8
ATOM      8  C   UNL     1       1.785   5.274  19.666  0.00  0.00    +0.000 C 
BRANCH   8   9
ATOM      9  C   UNL     1       2.886   4.212  19.744  0.00  0.00    +0.000 C 
BRANCH   9  20
ATOM     10  O   UNL     1       5.620   5.346  19.670  0.00  0.00    +0.000 OA
ATOM     11  C   UNL     1       5.046   4.918  18.684  0.00  0.00    +0.000 C 
ATOM     12  C   UNL     1       5.505   5.064  17.257  0.00  0.00    +0.000 C 
ATOM     13  C   UNL     1       6.978   5.174  16.922  0.00  0.00    +0.000 C 
ATOM     14  C   UNL     1       7.119   5.235  15.394  0.00  0.00    +0.000 C 
ATOM     15  C   UNL     1       6.440   4.044  14.700  0.00  0.00    +0.000 C 
ATOM     16  C   UNL     1       4.972   3.858  15.130  0.00  0.00    +0.000 C 
ATOM     17  C   UNL     1       4.898   3.814  16.644  0.00  0.00    +0.000 C 
ATOM     18  C   UNL     1       3.567   3.796  17.358  0.00  0.00    +0.000 C 
ATOM     19  O   UNL     1       2.519   3.354  16.921  0.00  0.00    +0.000 OA
ATOM     20  N   UNL     1       3.814   4.300  18.619  0.00  0.00    +0.000 N 
ENDBRANCH   9  20
ENDBRANCH   8   9
ENDBRANCH   7   8
ENDBRANCH   1   7
BRANCH   4  21
ATOM     21  C   UNL     1       0.915  11.052  19.368  0.00  0.00    +0.000 C 
BRANCH  21  22
ATOM     22  C   UNL     1      -0.108  11.811  20.215  0.00  0.00    +0.000 C 
BRANCH  22  23
ATOM     23  C   UNL     1      -0.945  12.761  19.358  0.00  0.00    +0.000 C 
BRANCH  23  24
ATOM     24  N   UNL     1      -2.330  12.359  19.392  0.00  0.00    +0.000 N 
ATOM     25  C   UNL     1      -3.269  12.940  20.207  0.00  0.00    +0.000 C 
ATOM     26  O   UNL     1      -3.131  13.884  20.968  0.00  0.00    +0.000 OA
ATOM     27  C   UNL     1      -4.518  12.144  19.984  0.00  0.00    +0.000 C 
ATOM     28  C   UNL     1      -5.862  12.750  20.288  0.00  0.00    +0.000 C 
ATOM     29  C   UNL     1      -6.940  11.755  19.836  0.00  0.00    +0.000 C 
ATOM     30  C   UNL     1      -6.787  11.350  18.361  0.00  0.00    +0.000 C 
ATOM     31  C   UNL     1      -5.377  10.836  18.025  0.00  0.00    +0.000 C 
ATOM     32  C   UNL     1      -4.377  11.863  18.495  0.00  0.00    +0.000 C 
ATOM     33  C   UNL     1      -2.901  11.588  18.403  0.00  0.00    +0.000 C 
ATOM     34  O   UNL     1      -2.352  10.944  17.525  0.00  0.00    +0.000 OA
ENDBRANCH  23  24
ENDBRANCH  22  23
ENDBRANCH  21  22
ENDBRANCH   4  21
TORSDOF 8
ENDMDL
MODEL 9
REMARK VINA RESULT:      -7.3      2.507     10.776
REMARK  Name = 
REMARK  8 active torsions:
REMARK  status: ('A' for Active; 'I' for Inactive)
REMARK    1  A    between atoms: N_11  and  C_12
REMARK    2  A    between atoms: C_12  and  C_13
REMARK    3  A    between atoms: C_13  and  C_14
REMARK    4  A    between atoms: C_14  and  N_15
REMARK    5  A    between atoms: N_18  and  C_19
REMARK    6  A    between atoms: C_19  and  C_20
REMARK    7  A    between atoms: C_20  and  C_21
REMARK    8  A    between atoms: C_21  and  N_22
REMARK                            x       y       z     vdW  Elec       q    Type
REMARK                         _______ _______ _______ _____ _____    ______ ____
ROOT
ATOM      1  N   UNL     1       0.623   9.652  18.886  0.00  0.00    +0.000 NA
ATOM      2  C   UNL     1       1.226   8.794  17.846  0.00  0.00    +0.000 C 
ATOM      3  C   UNL     1       2.626   8.291  18.245  0.00  0.00    +0.000 C 
ATOM      4  N   UNL     1       2.602   7.423  19.439  0.00  0.00    +0.000 NA
ATOM      5  C   UNL     1       1.899   8.117  20.538  0.00  0.00    +0.000 C 
ATOM      6  C   UNL     1       0.589   8.861  20.149  0.00  0.00    +0.000 C 
ENDROOT
BRANCH   1   7
ATOM      7  C   UNL     1       1.350  10.925  19.063  0.00  0.00    +0.000 C 
BRANCH   7   8
ATOM      8  C   UNL     1       0.510  12.104  19.601  0.00  0.00    +0.000 C 
BRANCH   8   9
ATOM      9  C   UNL     1      -0.381  12.761  18.543  0.00  0.00    +0.000 C 
BRANCH   9  20
ATOM     10  O   UNL     1      -2.071  10.851  17.038  0.00  0.00    +0.000 OA
ATOM     11  C   UNL     1      -2.499  11.573  17.921  0.00  0.00    +0.000 C 
ATOM     12  C   UNL     1      -3.950  11.783  18.269  0.00  0.00    +0.000 C 
ATOM     13  C   UNL     1      -4.973  10.694  18.026  0.00  0.00    +0.000 C 
ATOM     14  C   UNL     1      -6.331  11.185  18.551  0.00  0.00    +0.000 C 
ATOM     15  C   UNL     1      -6.263  11.617  20.024  0.00  0.00    +0.000 C 
ATOM     16  C   UNL     1      -5.142  12.638  20.296  0.00  0.00    +0.000 C 
ATOM     17  C   UNL     1      -3.834  12.102  19.750  0.00  0.00    +0.000 C 
ATOM     18  C   UNL     1      -2.588  12.956  19.734  0.00  0.00    +0.000 C 
ATOM     19  O   UNL     1      -2.325  13.864  20.502  0.00  0.00    +0.000 OA
ATOM     20  N   UNL     1      -1.791  12.434  18.734  0.00  0.00    +0.000 N 
ENDBRANCH   9  20
ENDBRANCH   8   9
ENDBRANCH   7   8
ENDBRANCH   1   7
BRANCH   4  21
ATOM     21  C   UNL     1       2.034   6.094  19.167  0.00  0.00    +0.000 C 
BRANCH  21  22
ATOM     22  C   UNL     1       2.465   5.073  20.222  0.00  0.00    +0.000 C 
BRANCH  22  23
ATOM     23  C   UNL     1       2.716   3.701  19.596  0.00  0.00    +0.000 C 
BRANCH  23  24
ATOM     24  N   UNL     1       3.748   3.802  18.593  0.00  0.00    +0.000 N 
ATOM     25  C   UNL     1       3.504   3.732  17.244  0.00  0.00    +0.000 C 
ATOM     26  O   UNL     1       2.430   3.632  16.672  0.00  0.00    +0.000 OA
ATOM     27  C   UNL     1       4.858   3.777  16.605  0.00  0.00    +0.000 C 
ATOM     28  C   UNL     1       5.002   4.226  15.175  0.00  0.00    +0.000 C 
ATOM     29  C   UNL     1       6.500   4.294  14.852  0.00  0.00    +0.000 C 
ATOM     30  C   UNL     1       7.276   5.183  15.838  0.00  0.00    +0.000 C 
ATOM     31  C   UNL     1       7.039   4.795  17.306  0.00  0.00    +0.000 C 
ATOM     32  C   UNL     1       5.550   4.750  17.548  0.00  0.00    +0.000 C 
ATOM     33  C   UNL     1       5.006   4.288  18.872  0.00  0.00    +0.000 C 
ATOM     34  O   UNL     1       5.529   4.474  19.958  0.00  0.00    +0.000 OA
ENDBRANCH  23  24
ENDBRANCH  22  23
ENDBRANCH  21  22
ENDBRANCH   4  21
TORSDOF 8
ENDMDL
