MODEL 1
REMARK VINA RESULT:      -6.0      0.000      0.000
REMARK  Name = 
REMARK  12 active torsions:
REMARK  status: ('A' for Active; 'I' for Inactive)
REMARK    1  A    between atoms: N_3  and  C_4
REMARK    2  A    between atoms: C_4  and  C_5
REMARK    3  A    between atoms: C_5  and  C_6
REMARK    4  A    between atoms: C_6  and  C_7
REMARK    5  A    between atoms: C_7  and  N_8
REMARK    6  A    between atoms: C_7  and  C_9
REMARK    7  A    between atoms: C_9  and  C_10
REMARK    8  A    between atoms: C_10  and  O_11
REMARK    9  A    between atoms: C_10  and  C_12
REMARK   10  A    between atoms: C_12  and  C_13
REMARK   11  A    between atoms: C_13  and  N_14
REMARK   12  A    between atoms: N_15  and  N_16
REMARK                            x       y       z     vdW  Elec       q    Type
REMARK                         _______ _______ _______ _____ _____    ______ ____
ROOT
ATOM      1  C   UNL     1       4.163   4.022  17.369  0.00  0.00    +0.000 C 
ENDROOT
BRANCH   1   2
ATOM      2  C   UNL     1       2.915   3.144  17.541  0.00  0.00    +0.000 C 
BRANCH   2   3
ATOM      3  C   UNL     1       1.623   3.923  17.779  0.00  0.00    +0.000 C 
BRANCH   3   6
ATOM      4  N   UNL     1       2.307   5.227  21.137  0.00  0.00    +0.000 NA
ATOM      5  C   UNL     1       1.926   4.371  20.254  0.00  0.00    +0.000 C 
ATOM      6  N   UNL     1       1.763   4.778  18.955  0.00  0.00    +0.000 N 
ATOM      7  N   UNL     1       1.611   3.069  20.493  0.00  0.00    +0.000 N 
ATOM      8  H   UNL     1       2.441   6.151  20.723  0.00  0.00    +0.000 HD
ATOM      9  H   UNL     1       2.200   5.668  18.741  0.00  0.00    +0.000 HD
ATOM     10  H   UNL     1       0.721   2.802  20.118  0.00  0.00    +0.000 HD
BRANCH   7  11
ATOM     11  N   UNL     1       1.921   2.527  21.685  0.00  0.00    +0.000 N 
ATOM     12  O   UNL     1       1.046   2.452  22.553  0.00  0.00    +0.000 OA
ATOM     13  O   UNL     1       3.130   2.338  21.830  0.00  0.00    +0.000 OA
ENDBRANCH   7  11
ENDBRANCH   3   6
ENDBRANCH   2   3
ENDBRANCH   1   2
BRANCH   1  14
ATOM     14  C   UNL     1       5.190   3.786  18.500  0.00  0.00    +0.000 C 
BRANCH  14  15
ATOM     15  N   UNL     1       4.767   2.633  19.299  0.00  0.00    +0.000 NA
ATOM     16  H   UNL     1       4.348   2.988  20.169  0.00  0.00    +0.000 HD
ATOM     17  H   UNL     1       5.592   2.127  19.618  0.00  0.00    +0.000 HD
ENDBRANCH  14  15
BRANCH  14  18
ATOM     18  C   UNL     1       5.498   5.015  19.391  0.00  0.00    +0.000 C 
BRANCH  18  19
ATOM     19  C   UNL     1       6.861   5.703  19.189  0.00  0.00    +0.000 C 
BRANCH  19  20
ATOM     20  O   UNL     1       7.718   5.413  20.295  0.00  0.00    +0.000 OA
ATOM     21  H   UNL     1       8.247   6.210  20.478  0.00  0.00    +0.000 HD
ENDBRANCH  19  20
BRANCH  19  22
ATOM     22  C   UNL     1       7.586   5.257  17.901  0.00  0.00    +0.000 C 
BRANCH  22  23
ATOM     23  C   UNL     1       7.379   6.201  16.718  0.00  0.00    +0.000 C 
BRANCH  23  24
ATOM     24  N   UNL     1       7.374   5.463  15.459  0.00  0.00    +0.000 NA
ATOM     25  H   UNL     1       8.308   5.109  15.257  0.00  0.00    +0.000 HD
ATOM     26  H   UNL     1       7.156   6.110  14.699  0.00  0.00    +0.000 HD
ENDBRANCH  23  24
ENDBRANCH  22  23
ENDBRANCH  19  22
ENDBRANCH  18  19
ENDBRANCH  14  18
ENDBRANCH   1  14
TORSDOF 12
ENDMDL
MODEL 2
REMARK VINA RESULT:      -6.0      2.023      6.407
REMARK  Name = 
REMARK  12 active torsions:
REMARK  status: ('A' for Active; 'I' for Inactive)
REMARK    1  A    between atoms: N_3  and  C_4
REMARK    2  A    between atoms: C_4  and  C_5
REMARK    3  A    between atoms: C_5  and  C_6
REMARK    4  A    between atoms: C_6  and  C_7
REMARK    5  A    between atoms: C_7  and  N_8
REMARK    6  A    between atoms: C_7  and  C_9
REMARK    7  A    between atoms: C_9  and  C_10
REMARK    8  A    between atoms: C_10  and  O_11
REMARK    9  A    between atoms: C_10  and  C_12
REMARK   10  A    between atoms: C_12  and  C_13
REMARK   11  A    between atoms: C_13  and  N_14
REMARK   12  A    between atoms: N_15  and  N_16
REMARK                            x       y       z     vdW  Elec       q    Type
REMARK                         _______ _______ _______ _____ _____    ______ ____
ROOT
ATOM      1  C   UNL     1       4.031   4.807  17.225  0.00  0.00    +0.000 C 
ENDROOT
BRANCH   1   2
ATOM      2  C   UNL     1       4.289   4.016  15.936  0.00  0.00    +0.000 C 
BRANCH   2   3
ATOM      3  C   UNL     1       5.594   4.373  15.226  0.00  0.00    +0.000 C 
BRANCH   3   6
ATOM      4  N   UNL     1       8.247   4.177  17.749  0.00  0.00    +0.000 NA
ATOM      5  C   UNL     1       7.454   4.740  16.908  0.00  0.00    +0.000 C 
ATOM      6  N   UNL     1       6.735   3.959  16.040  0.00  0.00    +0.000 N 
ATOM      7  N   UNL     1       7.281   6.081  16.752  0.00  0.00    +0.000 N 
ATOM      8  H   UNL     1       8.234   3.161  17.647  0.00  0.00    +0.000 HD
ATOM      9  H   UNL     1       6.695   2.979  16.299  0.00  0.00    +0.000 HD
ATOM     10  H   UNL     1       7.373   6.384  15.800  0.00  0.00    +0.000 HD
BRANCH   7  11
ATOM     11  N   UNL     1       7.788   6.919  17.675  0.00  0.00    +0.000 N 
ATOM     12  O   UNL     1       7.930   6.518  18.833  0.00  0.00    +0.000 OA
ATOM     13  O   UNL     1       7.875   8.082  17.275  0.00  0.00    +0.000 OA
ENDBRANCH   7  11
ENDBRANCH   3   6
ENDBRANCH   2   3
ENDBRANCH   1   2
BRANCH   1  14
ATOM     14  C   UNL     1       3.314   3.947  18.291  0.00  0.00    +0.000 C 
BRANCH  14  15
ATOM     15  N   UNL     1       4.160   2.800  18.630  0.00  0.00    +0.000 NA
ATOM     16  H   UNL     1       4.584   2.452  17.760  0.00  0.00    +0.000 HD
ATOM     17  H   UNL     1       3.569   2.027  18.935  0.00  0.00    +0.000 HD
ENDBRANCH  14  15
BRANCH  14  18
ATOM     18  C   UNL     1       1.871   3.506  17.935  0.00  0.00    +0.000 C 
BRANCH  18  19
ATOM     19  C   UNL     1       1.080   2.756  19.023  0.00  0.00    +0.000 C 
BRANCH  19  20
ATOM     20  O   UNL     1       1.674   1.478  19.258  0.00  0.00    +0.000 OA
ATOM     21  H   UNL     1       2.583   1.503  18.905  0.00  0.00    +0.000 HD
ENDBRANCH  19  20
BRANCH  19  22
ATOM     22  C   UNL     1       1.028   3.507  20.370  0.00  0.00    +0.000 C 
BRANCH  22  23
ATOM     23  C   UNL     1       1.443   2.656  21.568  0.00  0.00    +0.000 C 
BRANCH  23  24
ATOM     24  N   UNL     1       2.894   2.648  21.723  0.00  0.00    +0.000 NA
ATOM     25  H   UNL     1       3.266   1.728  21.490  0.00  0.00    +0.000 HD
ATOM     26  H   UNL     1       3.121   2.795  22.707  0.00  0.00    +0.000 HD
ENDBRANCH  23  24
ENDBRANCH  22  23
ENDBRANCH  19  22
ENDBRANCH  18  19
ENDBRANCH  14  18
ENDBRANCH   1  14
TORSDOF 12
ENDMDL
MODEL 3
REMARK VINA RESULT:      -5.9      3.018      7.220
REMARK  Name = 
REMARK  12 active torsions:
REMARK  status: ('A' for Active; 'I' for Inactive)
REMARK    1  A    between atoms: N_3  and  C_4
REMARK    2  A    between atoms: C_4  and  C_5
REMARK    3  A    between atoms: C_5  and  C_6
REMARK    4  A    between atoms: C_6  and  C_7
REMARK    5  A    between atoms: C_7  and  N_8
REMARK    6  A    between atoms: C_7  and  C_9
REMARK    7  A    between atoms: C_9  and  C_10
REMARK    8  A    between atoms: C_10  and  O_11
REMARK    9  A    between atoms: C_10  and  C_12
REMARK   10  A    between atoms: C_12  and  C_13
REMARK   11  A    between atoms: C_13  and  N_14
REMARK   12  A    between atoms: N_15  and  N_16
REMARK                            x       y       z     vdW  Elec       q    Type
REMARK                         _______ _______ _______ _____ _____    ______ ____
ROOT
ATOM      1  C   UNL     1       5.147   5.239  18.272  0.00  0.00    +0.000 C 
ENDROOT
BRANCH   1   2
ATOM      2  C   UNL     1       6.620   4.915  18.554  0.00  0.00    +0.000 C 
BRANCH   2   3
ATOM      3  C   UNL     1       7.439   4.564  17.313  0.00  0.00    +0.000 C 
BRANCH   3   6
ATOM      4  N   UNL     1       6.027   3.498  14.101  0.00  0.00    +0.000 NA
ATOM      5  C   UNL     1       6.728   4.218  14.906  0.00  0.00    +0.000 C 
ATOM      6  N   UNL     1       6.560   4.066  16.258  0.00  0.00    +0.000 N 
ATOM      7  N   UNL     1       7.617   5.182  14.541  0.00  0.00    +0.000 N 
ATOM      8  H   UNL     1       5.400   2.875  14.613  0.00  0.00    +0.000 HD
ATOM      9  H   UNL     1       6.074   3.215  16.523  0.00  0.00    +0.000 HD
ATOM     10  H   UNL     1       7.465   6.056  15.008  0.00  0.00    +0.000 HD
BRANCH   7  11
ATOM     11  N   UNL     1       7.993   5.273  13.253  0.00  0.00    +0.000 N 
ATOM     12  O   UNL     1       7.422   4.574  12.412  0.00  0.00    +0.000 OA
ATOM     13  O   UNL     1       9.025   5.930  13.097  0.00  0.00    +0.000 OA
ENDBRANCH   7  11
ENDBRANCH   3   6
ENDBRANCH   2   3
ENDBRANCH   1   2
BRANCH   1  14
ATOM     14  C   UNL     1       4.200   4.181  18.884  0.00  0.00    +0.000 C 
BRANCH  14  15
ATOM     15  N   UNL     1       5.001   3.116  19.494  0.00  0.00    +0.000 NA
ATOM     16  H   UNL     1       4.746   3.059  20.489  0.00  0.00    +0.000 HD
ATOM     17  H   UNL     1       5.979   3.404  19.512  0.00  0.00    +0.000 HD
ENDBRANCH  14  15
BRANCH  14  18
ATOM     18  C   UNL     1       3.127   3.608  17.924  0.00  0.00    +0.000 C 
BRANCH  18  19
ATOM     19  C   UNL     1       1.886   2.962  18.567  0.00  0.00    +0.000 C 
BRANCH  19  20
ATOM     20  O   UNL     1       2.154   1.590  18.862  0.00  0.00    +0.000 OA
ATOM     21  H   UNL     1       1.323   1.184  19.172  0.00  0.00    +0.000 HD
ENDBRANCH  19  20
BRANCH  19  22
ATOM     22  C   UNL     1       1.448   3.649  19.878  0.00  0.00    +0.000 C 
BRANCH  22  23
ATOM     23  C   UNL     1       1.445   2.721  21.091  0.00  0.00    +0.000 C 
BRANCH  23  24
ATOM     24  N   UNL     1       2.755   2.702  21.735  0.00  0.00    +0.000 NA
ATOM     25  H   UNL     1       3.491   2.655  21.030  0.00  0.00    +0.000 HD
ATOM     26  H   UNL     1       2.842   1.843  22.279  0.00  0.00    +0.000 HD
ENDBRANCH  23  24
ENDBRANCH  22  23
ENDBRANCH  19  22
ENDBRANCH  18  19
ENDBRANCH  14  18
ENDBRANCH   1  14
TORSDOF 12
ENDMDL
MODEL 4
REMARK VINA RESULT:      -5.9      2.036      6.007
REMARK  Name = 
REMARK  12 active torsions:
REMARK  status: ('A' for Active; 'I' for Inactive)
REMARK    1  A    between atoms: N_3  and  C_4
REMARK    2  A    between atoms: C_4  and  C_5
REMARK    3  A    between atoms: C_5  and  C_6
REMARK    4  A    between atoms: C_6  and  C_7
REMARK    5  A    between atoms: C_7  and  N_8
REMARK    6  A    between atoms: C_7  and  C_9
REMARK    7  A    between atoms: C_9  and  C_10
REMARK    8  A    between atoms: C_10  and  O_11
REMARK    9  A    between atoms: C_10  and  C_12
REMARK   10  A    between atoms: C_12  and  C_13
REMARK   11  A    between atoms: C_13  and  N_14
REMARK   12  A    between atoms: N_15  and  N_16
REMARK                            x       y       z     vdW  Elec       q    Type
REMARK                         _______ _______ _______ _____ _____    ______ ____
ROOT
ATOM      1  C   UNL     1       3.004   2.924  17.246  0.00  0.00    +0.000 C 
ENDROOT
BRANCH   1   2
ATOM      2  C   UNL     1       3.888   4.179  17.219  0.00  0.00    +0.000 C 
BRANCH   2   3
ATOM      3  C   UNL     1       4.827   4.265  16.016  0.00  0.00    +0.000 C 
BRANCH   3   6
ATOM      4  N   UNL     1       8.151   4.093  17.553  0.00  0.00    +0.000 NA
ATOM      5  C   UNL     1       7.116   4.652  17.031  0.00  0.00    +0.000 C 
ATOM      6  N   UNL     1       6.177   3.870  16.407  0.00  0.00    +0.000 N 
ATOM      7  N   UNL     1       6.869   5.989  16.990  0.00  0.00    +0.000 N 
ATOM      8  H   UNL     1       8.132   3.081  17.421  0.00  0.00    +0.000 HD
ATOM      9  H   UNL     1       6.248   2.882  16.627  0.00  0.00    +0.000 HD
ATOM     10  H   UNL     1       6.644   6.322  16.071  0.00  0.00    +0.000 HD
BRANCH   7  11
ATOM     11  N   UNL     1       7.622   6.818  17.735  0.00  0.00    +0.000 N 
ATOM     12  O   UNL     1       7.924   6.482  18.883  0.00  0.00    +0.000 OA
ATOM     13  O   UNL     1       7.765   7.932  17.225  0.00  0.00    +0.000 OA
ENDBRANCH   7  11
ENDBRANCH   3   6
ENDBRANCH   2   3
ENDBRANCH   1   2
BRANCH   1  14
ATOM     14  C   UNL     1       3.193   2.119  18.553  0.00  0.00    +0.000 C 
BRANCH  14  15
ATOM     15  N   UNL     1       3.842   0.843  18.241  0.00  0.00    +0.000 NA
ATOM     16  H   UNL     1       4.158   0.881  17.263  0.00  0.00    +0.000 HD
ATOM     17  H   UNL     1       3.141   0.104  18.240  0.00  0.00    +0.000 HD
ENDBRANCH  14  15
BRANCH  14  18
ATOM     18  C   UNL     1       1.913   1.915  19.402  0.00  0.00    +0.000 C 
BRANCH  18  19
ATOM     19  C   UNL     1       1.740   2.820  20.636  0.00  0.00    +0.000 C 
BRANCH  19  20
ATOM     20  O   UNL     1       3.021   3.226  21.122  0.00  0.00    +0.000 OA
ATOM     21  H   UNL     1       3.697   2.853  20.526  0.00  0.00    +0.000 HD
ENDBRANCH  19  20
BRANCH  19  22
ATOM     22  C   UNL     1       0.919   4.096  20.350  0.00  0.00    +0.000 C 
BRANCH  22  23
ATOM     23  C   UNL     1       1.769   5.303  19.960  0.00  0.00    +0.000 C 
BRANCH  23  24
ATOM     24  N   UNL     1       2.169   6.061  21.142  0.00  0.00    +0.000 NA
ATOM     25  H   UNL     1       3.004   5.648  21.557  0.00  0.00    +0.000 HD
ATOM     26  H   UNL     1       1.439   5.975  21.850  0.00  0.00    +0.000 HD
ENDBRANCH  23  24
ENDBRANCH  22  23
ENDBRANCH  19  22
ENDBRANCH  18  19
ENDBRANCH  14  18
ENDBRANCH   1  14
TORSDOF 12
ENDMDL
MODEL 5
REMARK VINA RESULT:      -5.8      1.989      5.986
REMARK  Name = 
REMARK  12 active torsions:
REMARK  status: ('A' for Active; 'I' for Inactive)
REMARK    1  A    between atoms: N_3  and  C_4
REMARK    2  A    between atoms: C_4  and  C_5
REMARK    3  A    between atoms: C_5  and  C_6
REMARK    4  A    between atoms: C_6  and  C_7
REMARK    5  A    between atoms: C_7  and  N_8
REMARK    6  A    between atoms: C_7  and  C_9
REMARK    7  A    between atoms: C_9  and  C_10
REMARK    8  A    between atoms: C_10  and  O_11
REMARK    9  A    between atoms: C_10  and  C_12
REMARK   10  A    between atoms: C_12  and  C_13
REMARK   11  A    between atoms: C_13  and  N_14
REMARK   12  A    between atoms: N_15  and  N_16
REMARK                            x       y       z     vdW  Elec       q    Type
REMARK                         _______ _______ _______ _____ _____    ______ ____
ROOT
ATOM      1  C   UNL     1       2.726   3.064  17.162  0.00  0.00    +0.000 C 
ENDROOT
BRANCH   1   2
ATOM      2  C   UNL     1       3.924   3.990  17.415  0.00  0.00    +0.000 C 
BRANCH   2   3
ATOM      3  C   UNL     1       4.847   4.171  16.211  0.00  0.00    +0.000 C 
BRANCH   3   6
ATOM      4  N   UNL     1       8.224   4.122  17.637  0.00  0.00    +0.000 NA
ATOM      5  C   UNL     1       7.164   4.639  17.125  0.00  0.00    +0.000 C 
ATOM      6  N   UNL     1       6.217   3.815  16.573  0.00  0.00    +0.000 N 
ATOM      7  N   UNL     1       6.894   5.970  17.029  0.00  0.00    +0.000 N 
ATOM      8  H   UNL     1       8.217   3.104  17.555  0.00  0.00    +0.000 HD
ATOM      9  H   UNL     1       6.310   2.840  16.838  0.00  0.00    +0.000 HD
ATOM     10  H   UNL     1       6.633   6.254  16.104  0.00  0.00    +0.000 HD
BRANCH   7  11
ATOM     11  N   UNL     1       7.659   6.845  17.706  0.00  0.00    +0.000 N 
ATOM     12  O   UNL     1       7.958   6.596  18.878  0.00  0.00    +0.000 OA
ATOM     13  O   UNL     1       7.816   7.912  17.110  0.00  0.00    +0.000 OA
ENDBRANCH   7  11
ENDBRANCH   3   6
ENDBRANCH   2   3
ENDBRANCH   1   2
BRANCH   1  14
ATOM     14  C   UNL     1       2.390   2.209  18.406  0.00  0.00    +0.000 C 
BRANCH  14  15
ATOM     15  N   UNL     1       0.951   1.938  18.427  0.00  0.00    +0.000 NA
ATOM     16  H   UNL     1       0.822   0.924  18.539  0.00  0.00    +0.000 HD
ATOM     17  H   UNL     1       0.562   2.129  17.504  0.00  0.00    +0.000 HD
ENDBRANCH  14  15
BRANCH  14  18
ATOM     18  C   UNL     1       2.884   2.777  19.760  0.00  0.00    +0.000 C 
BRANCH  18  19
ATOM     19  C   UNL     1       1.807   3.203  20.775  0.00  0.00    +0.000 C 
BRANCH  19  20
ATOM     20  O   UNL     1       1.976   2.478  21.994  0.00  0.00    +0.000 OA
ATOM     21  H   UNL     1       1.179   2.619  22.537  0.00  0.00    +0.000 HD
ENDBRANCH  19  20
BRANCH  19  22
ATOM     22  C   UNL     1       1.847   4.709  21.112  0.00  0.00    +0.000 C 
BRANCH  22  23
ATOM     23  C   UNL     1       2.639   5.546  20.110  0.00  0.00    +0.000 C 
BRANCH  23  24
ATOM     24  N   UNL     1       2.281   6.957  20.212  0.00  0.00    +0.000 NA
ATOM     25  H   UNL     1       1.665   7.218  19.442  0.00  0.00    +0.000 HD
ATOM     26  H   UNL     1       3.124   7.520  20.093  0.00  0.00    +0.000 HD
ENDBRANCH  23  24
ENDBRANCH  22  23
ENDBRANCH  19  22
ENDBRANCH  18  19
ENDBRANCH  14  18
ENDBRANCH   1  14
TORSDOF 12
ENDMDL
MODEL 6
REMARK VINA RESULT:      -5.8      2.697      6.572
REMARK  Name = 
REMARK  12 active torsions:
REMARK  status: ('A' for Active; 'I' for Inactive)
REMARK    1  A    between atoms: N_3  and  C_4
REMARK    2  A    between atoms: C_4  and  C_5
REMARK    3  A    between atoms: C_5  and  C_6
REMARK    4  A    between atoms: C_6  and  C_7
REMARK    5  A    between atoms: C_7  and  N_8
REMARK    6  A    between atoms: C_7  and  C_9
REMARK    7  A    between atoms: C_9  and  C_10
REMARK    8  A    between atoms: C_10  and  O_11
REMARK    9  A    between atoms: C_10  and  C_12
REMARK   10  A    between atoms: C_12  and  C_13
REMARK   11  A    between atoms: C_13  and  N_14
REMARK   12  A    between atoms: N_15  and  N_16
REMARK                            x       y       z     vdW  Elec       q    Type
REMARK                         _______ _______ _______ _____ _____    ______ ____
ROOT
ATOM      1  C   UNL     1       5.134   3.726  19.281  0.00  0.00    +0.000 C 
ENDROOT
BRANCH   1   2
ATOM      2  C   UNL     1       5.363   5.231  19.479  0.00  0.00    +0.000 C 
BRANCH   2   3
ATOM      3  C   UNL     1       6.454   5.827  18.592  0.00  0.00    +0.000 C 
BRANCH   3   6
ATOM      4  N   UNL     1       5.199   6.788  15.284  0.00  0.00    +0.000 NA
ATOM      5  C   UNL     1       5.999   6.249  16.135  0.00  0.00    +0.000 C 
ATOM      6  N   UNL     1       5.852   6.539  17.468  0.00  0.00    +0.000 N 
ATOM      7  N   UNL     1       7.043   5.429  15.837  0.00  0.00    +0.000 N 
ATOM      8  H   UNL     1       4.523   7.399  15.746  0.00  0.00    +0.000 HD
ATOM      9  H   UNL     1       4.961   6.961  17.705  0.00  0.00    +0.000 HD
ATOM     10  H   UNL     1       7.905   5.714  16.263  0.00  0.00    +0.000 HD
BRANCH   7  11
ATOM     11  N   UNL     1       7.152   4.933  14.591  0.00  0.00    +0.000 N 
ATOM     12  O   UNL     1       6.585   3.872  14.318  0.00  0.00    +0.000 OA
ATOM     13  O   UNL     1       7.989   5.527  13.907  0.00  0.00    +0.000 OA
ENDBRANCH   7  11
ENDBRANCH   3   6
ENDBRANCH   2   3
ENDBRANCH   1   2
BRANCH   1  14
ATOM     14  C   UNL     1       4.077   3.446  18.188  0.00  0.00    +0.000 C 
BRANCH  14  15
ATOM     15  N   UNL     1       4.747   3.340  16.889  0.00  0.00    +0.000 NA
ATOM     16  H   UNL     1       5.161   2.401  16.823  0.00  0.00    +0.000 HD
ATOM     17  H   UNL     1       5.556   3.961  16.880  0.00  0.00    +0.000 HD
ENDBRANCH  14  15
BRANCH  14  18
ATOM     18  C   UNL     1       2.888   4.438  18.138  0.00  0.00    +0.000 C 
BRANCH  18  19
ATOM     19  C   UNL     1       1.488   3.869  18.436  0.00  0.00    +0.000 C 
BRANCH  19  20
ATOM     20  O   UNL     1       1.423   2.504  18.020  0.00  0.00    +0.000 OA
ATOM     21  H   UNL     1       1.004   2.480  17.141  0.00  0.00    +0.000 HD
ENDBRANCH  19  20
BRANCH  19  22
ATOM     22  C   UNL     1       1.111   3.925  19.932  0.00  0.00    +0.000 C 
BRANCH  22  23
ATOM     23  C   UNL     1       1.548   2.696  20.726  0.00  0.00    +0.000 C 
BRANCH  23  24
ATOM     24  N   UNL     1       2.086   3.082  22.027  0.00  0.00    +0.000 NA
ATOM     25  H   UNL     1       3.084   2.876  22.068  0.00  0.00    +0.000 HD
ATOM     26  H   UNL     1       1.656   2.501  22.747  0.00  0.00    +0.000 HD
ENDBRANCH  23  24
ENDBRANCH  22  23
ENDBRANCH  19  22
ENDBRANCH  18  19
ENDBRANCH  14  18
ENDBRANCH   1  14
TORSDOF 12
ENDMDL
MODEL 7
REMARK VINA RESULT:      -5.8      3.394      7.263
REMARK  Name = 
REMARK  12 active torsions:
REMARK  status: ('A' for Active; 'I' for Inactive)
REMARK    1  A    between atoms: N_3  and  C_4
REMARK    2  A    between atoms: C_4  and  C_5
REMARK    3  A    between atoms: C_5  and  C_6
REMARK    4  A    between atoms: C_6  and  C_7
REMARK    5  A    between atoms: C_7  and  N_8
REMARK    6  A    between atoms: C_7  and  C_9
REMARK    7  A    between atoms: C_9  and  C_10
REMARK    8  A    between atoms: C_10  and  O_11
REMARK    9  A    between atoms: C_10  and  C_12
REMARK   10  A    between atoms: C_12  and  C_13
REMARK   11  A    between atoms: C_13  and  N_14
REMARK   12  A    between atoms: N_15  and  N_16
REMARK                            x       y       z     vdW  Elec       q    Type
REMARK                         _______ _______ _______ _____ _____    ______ ____
ROOT
ATOM      1  C   UNL     1       4.429   3.762  16.581  0.00  0.00    +0.000 C 
ENDROOT
BRANCH   1   2
ATOM      2  C   UNL     1       5.396   4.945  16.720  0.00  0.00    +0.000 C 
BRANCH   2   3
ATOM      3  C   UNL     1       6.874   4.566  16.646  0.00  0.00    +0.000 C 
BRANCH   3   6
ATOM      4  N   UNL     1       7.647   5.681  13.240  0.00  0.00    +0.000 NA
ATOM      5  C   UNL     1       7.236   4.878  14.157  0.00  0.00    +0.000 C 
ATOM      6  N   UNL     1       7.490   5.178  15.471  0.00  0.00    +0.000 N 
ATOM      7  N   UNL     1       6.593   3.697  13.951  0.00  0.00    +0.000 N 
ATOM      8  H   UNL     1       8.139   6.481  13.641  0.00  0.00    +0.000 HD
ATOM      9  H   UNL     1       7.764   6.142  15.631  0.00  0.00    +0.000 HD
ATOM     10  H   UNL     1       7.009   2.929  14.445  0.00  0.00    +0.000 HD
BRANCH   7  11
ATOM     11  N   UNL     1       6.130   3.408  12.722  0.00  0.00    +0.000 N 
ATOM     12  O   UNL     1       6.924   3.028  11.857  0.00  0.00    +0.000 OA
ATOM     13  O   UNL     1       4.957   3.749  12.556  0.00  0.00    +0.000 OA
ENDBRANCH   7  11
ENDBRANCH   3   6
ENDBRANCH   2   3
ENDBRANCH   1   2
BRANCH   1  14
ATOM     14  C   UNL     1       3.559   3.582  17.846  0.00  0.00    +0.000 C 
BRANCH  14  15
ATOM     15  N   UNL     1       4.072   2.451  18.624  0.00  0.00    +0.000 NA
ATOM     16  H   UNL     1       5.050   2.653  18.868  0.00  0.00    +0.000 HD
ATOM     17  H   UNL     1       4.139   1.633  18.019  0.00  0.00    +0.000 HD
ENDBRANCH  14  15
BRANCH  14  18
ATOM     18  C   UNL     1       2.035   3.458  17.597  0.00  0.00    +0.000 C 
BRANCH  18  19
ATOM     19  C   UNL     1       1.171   2.965  18.773  0.00  0.00    +0.000 C 
BRANCH  19  20
ATOM     20  O   UNL     1       1.437   1.584  19.023  0.00  0.00    +0.000 OA
ATOM     21  H   UNL     1       2.404   1.471  19.072  0.00  0.00    +0.000 HD
ENDBRANCH  19  20
BRANCH  19  22
ATOM     22  C   UNL     1       1.424   3.739  20.085  0.00  0.00    +0.000 C 
BRANCH  22  23
ATOM     23  C   UNL     1       1.414   2.859  21.333  0.00  0.00    +0.000 C 
BRANCH  23  24
ATOM     24  N   UNL     1       2.773   2.595  21.795  0.00  0.00    +0.000 NA
ATOM     25  H   UNL     1       3.233   1.934  21.170  0.00  0.00    +0.000 HD
ATOM     26  H   UNL     1       2.728   2.130  22.702  0.00  0.00    +0.000 HD
ENDBRANCH  23  24
ENDBRANCH  22  23
ENDBRANCH  19  22
ENDBRANCH  18  19
ENDBRANCH  14  18
ENDBRANCH   1  14
TORSDOF 12
ENDMDL
MODEL 8
REMARK VINA RESULT:      -5.8      2.015      2.436
REMARK  Name = 
REMARK  12 active torsions:
REMARK  status: ('A' for Active; 'I' for Inactive)
REMARK    1  A    between atoms: N_3  and  C_4
REMARK    2  A    between atoms: C_4  and  C_5
REMARK    3  A    between atoms: C_5  and  C_6
REMARK    4  A    between atoms: C_6  and  C_7
REMARK    5  A    between atoms: C_7  and  N_8
REMARK    6  A    between atoms: C_7  and  C_9
REMARK    7  A    between atoms: C_9  and  C_10
REMARK    8  A    between atoms: C_10  and  O_11
REMARK    9  A    between atoms: C_10  and  C_12
REMARK   10  A    between atoms: C_12  and  C_13
REMARK   11  A    between atoms: C_13  and  N_14
REMARK   12  A    between atoms: N_15  and  N_16
REMARK                            x       y       z     vdW  Elec       q    Type
REMARK                         _______ _______ _______ _____ _____    ______ ____
ROOT
ATOM      1  C   UNL     1       5.149   3.566  18.783  0.00  0.00    +0.000 C 
ENDROOT
BRANCH   1   2
ATOM      2  C   UNL     1       4.061   3.228  17.754  0.00  0.00    +0.000 C 
BRANCH   2   3
ATOM      3  C   UNL     1       3.410   1.860  17.949  0.00  0.00    +0.000 C 
BRANCH   3   6
ATOM      4  N   UNL     1       0.200   2.810  19.443  0.00  0.00    +0.000 NA
ATOM      5  C   UNL     1       1.439   2.464  19.422  0.00  0.00    +0.000 C 
ATOM      6  N   UNL     1       1.989   2.020  18.247  0.00  0.00    +0.000 N 
ATOM      7  N   UNL     1       2.280   2.450  20.492  0.00  0.00    +0.000 N 
ATOM      8  H   UNL     1      -0.232   2.695  18.525  0.00  0.00    +0.000 HD
ATOM      9  H   UNL     1       1.439   2.236  17.422  0.00  0.00    +0.000 HD
ATOM     10  H   UNL     1       2.764   1.579  20.602  0.00  0.00    +0.000 HD
BRANCH   7  11
ATOM     11  N   UNL     1       1.896   3.045  21.635  0.00  0.00    +0.000 N 
ATOM     12  O   UNL     1       1.216   2.407  22.443  0.00  0.00    +0.000 OA
ATOM     13  O   UNL     1       2.123   4.257  21.649  0.00  0.00    +0.000 OA
ENDBRANCH   7  11
ENDBRANCH   3   6
ENDBRANCH   2   3
ENDBRANCH   1   2
BRANCH   1  14
ATOM     14  C   UNL     1       5.903   4.865  18.414  0.00  0.00    +0.000 C 
BRANCH  14  15
ATOM     15  N   UNL     1       6.553   5.398  19.614  0.00  0.00    +0.000 NA
ATOM     16  H   UNL     1       7.349   5.975  19.311  0.00  0.00    +0.000 HD
ATOM     17  H   UNL     1       6.990   4.633  20.125  0.00  0.00    +0.000 HD
ENDBRANCH  14  15
BRANCH  14  18
ATOM     18  C   UNL     1       5.058   5.946  17.694  0.00  0.00    +0.000 C 
BRANCH  18  19
ATOM     19  C   UNL     1       5.626   6.517  16.381  0.00  0.00    +0.000 C 
BRANCH  19  20
ATOM     20  O   UNL     1       7.011   6.826  16.546  0.00  0.00    +0.000 OA
ATOM     21  H   UNL     1       7.101   7.796  16.548  0.00  0.00    +0.000 HD
ENDBRANCH  19  20
BRANCH  19  22
ATOM     22  C   UNL     1       5.497   5.548  15.186  0.00  0.00    +0.000 C 
BRANCH  22  23
ATOM     23  C   UNL     1       6.765   4.743  14.905  0.00  0.00    +0.000 C 
BRANCH  23  24
ATOM     24  N   UNL     1       7.646   5.463  13.991  0.00  0.00    +0.000 NA
ATOM     25  H   UNL     1       7.912   6.360  14.395  0.00  0.00    +0.000 HD
ATOM     26  H   UNL     1       7.126   5.688  13.142  0.00  0.00    +0.000 HD
ENDBRANCH  23  24
ENDBRANCH  22  23
ENDBRANCH  19  22
ENDBRANCH  18  19
ENDBRANCH  14  18
ENDBRANCH   1  14
TORSDOF 12
ENDMDL
MODEL 9
REMARK VINA RESULT:      -5.7      2.408      5.936
REMARK  Name = 
REMARK  12 active torsions:
REMARK  status: ('A' for Active; 'I' for Inactive)
REMARK    1  A    between atoms: N_3  and  C_4
REMARK    2  A    between atoms: C_4  and  C_5
REMARK    3  A    between atoms: C_5  and  C_6
REMARK    4  A    between atoms: C_6  and  C_7
REMARK    5  A    between atoms: C_7  and  N_8
REMARK    6  A    between atoms: C_7  and  C_9
REMARK    7  A    between atoms: C_9  and  C_10
REMARK    8  A    between atoms: C_10  and  O_11
REMARK    9  A    between atoms: C_10  and  C_12
REMARK   10  A    between atoms: C_12  and  C_13
REMARK   11  A    between atoms: C_13  and  N_14
REMARK   12  A    between atoms: N_15  and  N_16
REMARK                            x       y       z     vdW  Elec       q    Type
REMARK                         _______ _______ _______ _____ _____    ______ ____
ROOT
ATOM      1  C   UNL     1       2.308   5.185  20.980  0.00  0.00    +0.000 C 
ENDROOT
BRANCH   1   2
ATOM      2  C   UNL     1       2.576   5.956  19.681  0.00  0.00    +0.000 C 
BRANCH   2   3
ATOM      3  C   UNL     1       3.993   5.796  19.132  0.00  0.00    +0.000 C 
BRANCH   3   6
ATOM      4  N   UNL     1       4.854   4.158  15.966  0.00  0.00    +0.000 NA
ATOM      5  C   UNL     1       5.014   4.937  16.977  0.00  0.00    +0.000 C 
ATOM      6  N   UNL     1       3.949   5.190  17.803  0.00  0.00    +0.000 N 
ATOM      7  N   UNL     1       6.160   5.597  17.299  0.00  0.00    +0.000 N 
ATOM      8  H   UNL     1       3.893   3.816  15.911  0.00  0.00    +0.000 HD
ATOM      9  H   UNL     1       3.177   4.540  17.695  0.00  0.00    +0.000 HD
ATOM     10  H   UNL     1       6.022   6.578  17.454  0.00  0.00    +0.000 HD
BRANCH   7  11
ATOM     11  N   UNL     1       7.304   5.269  16.672  0.00  0.00    +0.000 N 
ATOM     12  O   UNL     1       8.007   4.369  17.141  0.00  0.00    +0.000 OA
ATOM     13  O   UNL     1       7.611   6.063  15.780  0.00  0.00    +0.000 OA
ENDBRANCH   7  11
ENDBRANCH   3   6
ENDBRANCH   2   3
ENDBRANCH   1   2
BRANCH   1  14
ATOM     14  C   UNL     1       1.286   4.044  20.770  0.00  0.00    +0.000 C 
BRANCH  14  15
ATOM     15  N   UNL     1       1.676   2.894  21.590  0.00  0.00    +0.000 NA
ATOM     16  H   UNL     1       2.637   3.052  21.920  0.00  0.00    +0.000 HD
ATOM     17  H   UNL     1       1.759   2.071  20.993  0.00  0.00    +0.000 HD
ENDBRANCH  14  15
BRANCH  14  18
ATOM     18  C   UNL     1       1.035   3.635  19.296  0.00  0.00    +0.000 C 
BRANCH  18  19
ATOM     19  C   UNL     1       1.387   2.189  18.901  0.00  0.00    +0.000 C 
BRANCH  19  20
ATOM     20  O   UNL     1       0.274   1.583  18.242  0.00  0.00    +0.000 OA
ATOM     21  H   UNL     1      -0.270   1.143  18.920  0.00  0.00    +0.000 HD
ENDBRANCH  19  20
BRANCH  19  22
ATOM     22  C   UNL     1       2.605   2.091  17.958  0.00  0.00    +0.000 C 
BRANCH  22  23
ATOM     23  C   UNL     1       3.808   1.378  18.573  0.00  0.00    +0.000 C 
BRANCH  23  24
ATOM     24  N   UNL     1       4.621   2.307  19.350  0.00  0.00    +0.000 NA
ATOM     25  H   UNL     1       5.450   1.833  19.707  0.00  0.00    +0.000 HD
ATOM     26  H   UNL     1       4.094   2.596  20.175  0.00  0.00    +0.000 HD
ENDBRANCH  23  24
ENDBRANCH  22  23
ENDBRANCH  19  22
ENDBRANCH  18  19
ENDBRANCH  14  18
ENDBRANCH   1  14
TORSDOF 12
ENDMDL
