MODEL 1
REMARK VINA RESULT:      -7.7      0.000      0.000
REMARK  Name = 
REMARK  7 active torsions:
REMARK  status: ('A' for Active; 'I' for Inactive)
REMARK    1  A    between atoms: C_2  and  C_3
REMARK    2  A    between atoms: C_3  and  S_4
REMARK    3  A    between atoms: S_4  and  C_5
REMARK    4  A    between atoms: C_10  and  C_12
REMARK    5  A    between atoms: C_12  and  C_13
REMARK    6  A    between atoms: N_20  and  C_21
REMARK    7  A    between atoms: C_21  and  C_22
REMARK                            x       y       z     vdW  Elec       q    Type
REMARK                         _______ _______ _______ _____ _____    ______ ____
ROOT
ATOM      1  C   UNL     1       6.483   5.735  17.163  0.00  0.00    +0.000 A 
ATOM      2  N   UNL     1       6.842   5.152  18.288  0.00  0.00    +0.000 NA
ATOM      3  N   UNL     1       7.703   5.952  19.032  0.00  0.00    +0.000 NA
ATOM      4  C   UNL     1       7.912   7.124  18.464  0.00  0.00    +0.000 A 
ATOM      5  N   UNL     1       8.733   8.102  18.999  0.00  0.00    +0.000 N 
ATOM      6  C   UNL     1       8.693   9.439  18.651  0.00  0.00    +0.000 C 
ATOM      7  O   UNL     1       7.929   9.941  17.820  0.00  0.00    +0.000 OA
ATOM      8  S   UNL     1       7.150   7.295  16.944  0.00  0.00    +0.000 S 
ATOM      9  H   UNL     1       9.240   7.818  19.827  0.00  0.00    +0.000 HD
ENDROOT
BRANCH   1  10
ATOM     10  S   UNL     1       5.468   4.980  15.956  0.00  0.00    +0.000 S 
BRANCH  10  11
ATOM     11  C   UNL     1       5.040   3.395  16.724  0.00  0.00    +0.000 C 
BRANCH  11  13
ATOM     12  O   UNL     1       2.879   2.443  17.216  0.00  0.00    +0.000 OA
ATOM     13  C   UNL     1       3.622   3.419  17.272  0.00  0.00    +0.000 C 
ATOM     14  N   UNL     1       3.236   4.623  17.813  0.00  0.00    +0.000 N 
ATOM     15  H   UNL     1       3.905   5.384  17.880  0.00  0.00    +0.000 HD
BRANCH  14  16
ATOM     16  C   UNL     1       1.912   4.870  18.336  0.00  0.00    +0.000 C 
BRANCH  16  17
ATOM     17  C   UNL     1       1.753   4.144  19.616  0.00  0.00    +0.000 A 
ATOM     18  C   UNL     1       0.880   3.165  20.041  0.00  0.00    +0.000 A 
ATOM     19  C   UNL     1       1.255   2.844  21.367  0.00  0.00    +0.000 A 
ATOM     20  C   UNL     1       2.322   3.656  21.672  0.00  0.00    +0.000 A 
ATOM     21  O   UNL     1       2.631   4.453  20.616  0.00  0.00    +0.000 OA
ENDBRANCH  16  17
ENDBRANCH  14  16
ENDBRANCH  11  13
ENDBRANCH  10  11
ENDBRANCH   1  10
BRANCH   6  22
ATOM     22  C   UNL     1       9.675  10.334  19.396  0.00  0.00    +0.000 C 
BRANCH  22  23
ATOM     23  C   UNL     1      10.001  11.632  18.687  0.00  0.00    +0.000 A 
ATOM     24  C   UNL     1       9.348  12.824  19.036  0.00  0.00    +0.000 A 
ATOM     25  C   UNL     1       9.670  14.031  18.405  0.00  0.00    +0.000 A 
ATOM     26  C   UNL     1      10.650  14.067  17.414  0.00  0.00    +0.000 A 
ATOM     27  C   UNL     1      11.317  12.896  17.067  0.00  0.00    +0.000 A 
ATOM     28  C   UNL     1      11.004  11.690  17.705  0.00  0.00    +0.000 A 
ENDBRANCH  22  23
ENDBRANCH   6  22
TORSDOF 7
ENDMDL
MODEL 2
REMARK VINA RESULT:      -7.7      5.195      8.063
REMARK  Name = 
REMARK  7 active torsions:
REMARK  status: ('A' for Active; 'I' for Inactive)
REMARK    1  A    between atoms: C_2  and  C_3
REMARK    2  A    between atoms: C_3  and  S_4
REMARK    3  A    between atoms: S_4  and  C_5
REMARK    4  A    between atoms: C_10  and  C_12
REMARK    5  A    between atoms: C_12  and  C_13
REMARK    6  A    between atoms: N_20  and  C_21
REMARK    7  A    between atoms: C_21  and  C_22
REMARK                            x       y       z     vdW  Elec       q    Type
REMARK                         _______ _______ _______ _____ _____    ______ ____
ROOT
ATOM      1  C   UNL     1       2.638   4.965  19.292  0.00  0.00    +0.000 A 
ATOM      2  N   UNL     1       2.008   5.113  20.439  0.00  0.00    +0.000 NA
ATOM      3  N   UNL     1       1.634   6.435  20.656  0.00  0.00    +0.000 NA
ATOM      4  C   UNL     1       1.948   7.216  19.640  0.00  0.00    +0.000 A 
ATOM      5  N   UNL     1       1.689   8.576  19.607  0.00  0.00    +0.000 N 
ATOM      6  C   UNL     1       1.658   9.342  18.458  0.00  0.00    +0.000 C 
ATOM      7  O   UNL     1       1.859   8.926  17.312  0.00  0.00    +0.000 OA
ATOM      8  S   UNL     1       2.801   6.413  18.396  0.00  0.00    +0.000 S 
ATOM      9  H   UNL     1       1.313   8.952  20.468  0.00  0.00    +0.000 HD
ENDROOT
BRANCH   1  10
ATOM     10  S   UNL     1       3.312   3.449  18.740  0.00  0.00    +0.000 S 
BRANCH  10  11
ATOM     11  C   UNL     1       4.892   3.364  19.624  0.00  0.00    +0.000 C 
BRANCH  11  13
ATOM     12  O   UNL     1       6.606   5.058  19.715  0.00  0.00    +0.000 OA
ATOM     13  C   UNL     1       5.906   4.324  19.023  0.00  0.00    +0.000 C 
ATOM     14  N   UNL     1       5.959   4.317  17.649  0.00  0.00    +0.000 N 
ATOM     15  H   UNL     1       5.394   3.656  17.126  0.00  0.00    +0.000 HD
BRANCH  14  16
ATOM     16  C   UNL     1       6.815   5.194  16.883  0.00  0.00    +0.000 C 
BRANCH  16  17
ATOM     17  C   UNL     1       6.772   4.792  15.459  0.00  0.00    +0.000 A 
ATOM     18  C   UNL     1       5.981   3.910  14.754  0.00  0.00    +0.000 A 
ATOM     19  C   UNL     1       6.400   3.989  13.405  0.00  0.00    +0.000 A 
ATOM     20  C   UNL     1       7.427   4.901  13.375  0.00  0.00    +0.000 A 
ATOM     21  O   UNL     1       7.665   5.394  14.619  0.00  0.00    +0.000 OA
ENDBRANCH  16  17
ENDBRANCH  14  16
ENDBRANCH  11  13
ENDBRANCH  10  11
ENDBRANCH   1  10
BRANCH   6  22
ATOM     22  C   UNL     1       1.322  10.814  18.667  0.00  0.00    +0.000 C 
BRANCH  22  23
ATOM     23  C   UNL     1      -0.161  11.118  18.706  0.00  0.00    +0.000 A 
ATOM     24  C   UNL     1      -1.074  10.334  17.983  0.00  0.00    +0.000 A 
ATOM     25  C   UNL     1      -2.448  10.593  18.043  0.00  0.00    +0.000 A 
ATOM     26  C   UNL     1      -2.932  11.639  18.826  0.00  0.00    +0.000 A 
ATOM     27  C   UNL     1      -2.042  12.416  19.561  0.00  0.00    +0.000 A 
ATOM     28  C   UNL     1      -0.668  12.151  19.511  0.00  0.00    +0.000 A 
ENDBRANCH  22  23
ENDBRANCH   6  22
TORSDOF 7
ENDMDL
MODEL 3
REMARK VINA RESULT:      -7.6      2.028      2.804
REMARK  Name = 
REMARK  7 active torsions:
REMARK  status: ('A' for Active; 'I' for Inactive)
REMARK    1  A    between atoms: C_2  and  C_3
REMARK    2  A    between atoms: C_3  and  S_4
REMARK    3  A    between atoms: S_4  and  C_5
REMARK    4  A    between atoms: C_10  and  C_12
REMARK    5  A    between atoms: C_12  and  C_13
REMARK    6  A    between atoms: N_20  and  C_21
REMARK    7  A    between atoms: C_21  and  C_22
REMARK                            x       y       z     vdW  Elec       q    Type
REMARK                         _______ _______ _______ _____ _____    ______ ____
ROOT
ATOM      1  C   UNL     1       7.025   5.095  17.253  0.00  0.00    +0.000 A 
ATOM      2  N   UNL     1       7.323   4.628  18.448  0.00  0.00    +0.000 NA
ATOM      3  N   UNL     1       7.974   5.579  19.226  0.00  0.00    +0.000 NA
ATOM      4  C   UNL     1       8.090   6.737  18.606  0.00  0.00    +0.000 A 
ATOM      5  N   UNL     1       8.703   7.848  19.161  0.00  0.00    +0.000 N 
ATOM      6  C   UNL     1       8.526   9.146  18.720  0.00  0.00    +0.000 C 
ATOM      7  O   UNL     1       7.807   9.491  17.777  0.00  0.00    +0.000 OA
ATOM      8  S   UNL     1       7.498   6.720  17.003  0.00  0.00    +0.000 S 
ATOM      9  H   UNL     1       9.141   7.681  20.057  0.00  0.00    +0.000 HD
ENDROOT
BRANCH   1  10
ATOM     10  S   UNL     1       6.271   4.142  15.995  0.00  0.00    +0.000 S 
BRANCH  10  11
ATOM     11  C   UNL     1       4.605   4.849  15.898  0.00  0.00    +0.000 C 
BRANCH  11  13
ATOM     12  O   UNL     1       3.692   3.929  17.932  0.00  0.00    +0.000 OA
ATOM     13  C   UNL     1       3.965   4.930  17.275  0.00  0.00    +0.000 C 
ATOM     14  N   UNL     1       3.700   6.207  17.711  0.00  0.00    +0.000 N 
ATOM     15  H   UNL     1       3.991   7.001  17.150  0.00  0.00    +0.000 HD
BRANCH  14  16
ATOM     16  C   UNL     1       3.045   6.497  18.965  0.00  0.00    +0.000 C 
BRANCH  16  17
ATOM     17  C   UNL     1       2.295   7.767  18.838  0.00  0.00    +0.000 A 
ATOM     18  C   UNL     1       2.055   8.616  17.779  0.00  0.00    +0.000 A 
ATOM     19  C   UNL     1       1.234   9.655  18.278  0.00  0.00    +0.000 A 
ATOM     20  C   UNL     1       1.037   9.382  19.610  0.00  0.00    +0.000 A 
ATOM     21  O   UNL     1       1.680   8.238  19.963  0.00  0.00    +0.000 OA
ENDBRANCH  16  17
ENDBRANCH  14  16
ENDBRANCH  11  13
ENDBRANCH  10  11
ENDBRANCH   1  10
BRANCH   6  22
ATOM     22  C   UNL     1       9.285  10.208  19.507  0.00  0.00    +0.000 C 
BRANCH  22  23
ATOM     23  C   UNL     1       9.759  11.382  18.676  0.00  0.00    +0.000 A 
ATOM     24  C   UNL     1      10.958  11.310  17.950  0.00  0.00    +0.000 A 
ATOM     25  C   UNL     1      11.382  12.382  17.156  0.00  0.00    +0.000 A 
ATOM     26  C   UNL     1      10.615  13.543  17.075  0.00  0.00    +0.000 A 
ATOM     27  C   UNL     1       9.417  13.624  17.777  0.00  0.00    +0.000 A 
ATOM     28  C   UNL     1       8.985  12.549  18.563  0.00  0.00    +0.000 A 
ENDBRANCH  22  23
ENDBRANCH   6  22
TORSDOF 7
ENDMDL
MODEL 4
REMARK VINA RESULT:      -7.6      5.442      7.406
REMARK  Name = 
REMARK  7 active torsions:
REMARK  status: ('A' for Active; 'I' for Inactive)
REMARK    1  A    between atoms: C_2  and  C_3
REMARK    2  A    between atoms: C_3  and  S_4
REMARK    3  A    between atoms: S_4  and  C_5
REMARK    4  A    between atoms: C_10  and  C_12
REMARK    5  A    between atoms: C_12  and  C_13
REMARK    6  A    between atoms: N_20  and  C_21
REMARK    7  A    between atoms: C_21  and  C_22
REMARK                            x       y       z     vdW  Elec       q    Type
REMARK                         _______ _______ _______ _____ _____    ______ ____
ROOT
ATOM      1  C   UNL     1       3.980   6.149  18.365  0.00  0.00    +0.000 A 
ATOM      2  N   UNL     1       3.302   5.632  19.369  0.00  0.00    +0.000 NA
ATOM      3  N   UNL     1       2.346   6.518  19.856  0.00  0.00    +0.000 NA
ATOM      4  C   UNL     1       2.307   7.641  19.164  0.00  0.00    +0.000 A 
ATOM      5  N   UNL     1       1.446   8.688  19.447  0.00  0.00    +0.000 N 
ATOM      6  C   UNL     1       1.114   9.693  18.559  0.00  0.00    +0.000 C 
ATOM      7  O   UNL     1       1.537   9.799  17.404  0.00  0.00    +0.000 OA
ATOM      8  S   UNL     1       3.491   7.730  17.935  0.00  0.00    +0.000 S 
ATOM      9  H   UNL     1       0.900   8.566  20.290  0.00  0.00    +0.000 HD
ENDROOT
BRANCH   1  10
ATOM     10  S   UNL     1       5.306   5.336  17.566  0.00  0.00    +0.000 S 
BRANCH  10  11
ATOM     11  C   UNL     1       4.469   4.350  16.296  0.00  0.00    +0.000 C 
BRANCH  11  13
ATOM     12  O   UNL     1       2.355   3.235  16.615  0.00  0.00    +0.000 OA
ATOM     13  C   UNL     1       3.539   3.326  16.926  0.00  0.00    +0.000 C 
ATOM     14  N   UNL     1       4.124   2.529  17.882  0.00  0.00    +0.000 N 
ATOM     15  H   UNL     1       5.119   2.611  18.067  0.00  0.00    +0.000 HD
BRANCH  14  16
ATOM     16  C   UNL     1       3.400   1.533  18.638  0.00  0.00    +0.000 C 
BRANCH  16  17
ATOM     17  C   UNL     1       2.619   2.204  19.702  0.00  0.00    +0.000 A 
ATOM     18  C   UNL     1       1.292   2.558  19.815  0.00  0.00    +0.000 A 
ATOM     19  C   UNL     1       1.142   3.143  21.094  0.00  0.00    +0.000 A 
ATOM     20  C   UNL     1       2.388   3.123  21.674  0.00  0.00    +0.000 A 
ATOM     21  O   UNL     1       3.295   2.558  20.835  0.00  0.00    +0.000 OA
ENDBRANCH  16  17
ENDBRANCH  14  16
ENDBRANCH  11  13
ENDBRANCH  10  11
ENDBRANCH   1  10
BRANCH   6  22
ATOM     22  C   UNL     1       0.123  10.724  19.086  0.00  0.00    +0.000 C 
BRANCH  22  23
ATOM     23  C   UNL     1      -1.222  10.712  18.390  0.00  0.00    +0.000 A 
ATOM     24  C   UNL     1      -1.483   9.808  17.349  0.00  0.00    +0.000 A 
ATOM     25  C   UNL     1      -2.736   9.772  16.726  0.00  0.00    +0.000 A 
ATOM     26  C   UNL     1      -3.748  10.640  17.133  0.00  0.00    +0.000 A 
ATOM     27  C   UNL     1      -3.510  11.532  18.174  0.00  0.00    +0.000 A 
ATOM     28  C   UNL     1      -2.260  11.561  18.806  0.00  0.00    +0.000 A 
ENDBRANCH  22  23
ENDBRANCH   6  22
TORSDOF 7
ENDMDL
MODEL 5
REMARK VINA RESULT:      -7.5      2.136     10.029
REMARK  Name = 
REMARK  7 active torsions:
REMARK  status: ('A' for Active; 'I' for Inactive)
REMARK    1  A    between atoms: C_2  and  C_3
REMARK    2  A    between atoms: C_3  and  S_4
REMARK    3  A    between atoms: S_4  and  C_5
REMARK    4  A    between atoms: C_10  and  C_12
REMARK    5  A    between atoms: C_12  and  C_13
REMARK    6  A    between atoms: N_20  and  C_21
REMARK    7  A    between atoms: C_21  and  C_22
REMARK                            x       y       z     vdW  Elec       q    Type
REMARK                         _______ _______ _______ _____ _____    ______ ____
ROOT
ATOM      1  C   UNL     1       7.595   7.279  18.078  0.00  0.00    +0.000 A 
ATOM      2  N   UNL     1       8.258   6.531  18.936  0.00  0.00    +0.000 NA
ATOM      3  N   UNL     1       7.594   5.339  19.201  0.00  0.00    +0.000 NA
ATOM      4  C   UNL     1       6.488   5.214  18.492  0.00  0.00    +0.000 A 
ATOM      5  N   UNL     1       5.643   4.120  18.574  0.00  0.00    +0.000 N 
ATOM      6  C   UNL     1       4.707   3.778  17.617  0.00  0.00    +0.000 C 
ATOM      7  O   UNL     1       4.494   4.395  16.568  0.00  0.00    +0.000 OA
ATOM      8  S   UNL     1       6.136   6.578  17.525  0.00  0.00    +0.000 S 
ATOM      9  H   UNL     1       5.890   3.452  19.292  0.00  0.00    +0.000 HD
ENDROOT
BRANCH   1  10
ATOM     10  S   UNL     1       8.106   8.876  17.580  0.00  0.00    +0.000 S 
BRANCH  10  11
ATOM     11  C   UNL     1       8.947   9.508  19.055  0.00  0.00    +0.000 C 
BRANCH  11  13
ATOM     12  O   UNL     1      10.728  11.133  19.094  0.00  0.00    +0.000 OA
ATOM     13  C   UNL     1       9.569  10.870  18.788  0.00  0.00    +0.000 C 
ATOM     14  N   UNL     1       8.724  11.781  18.199  0.00  0.00    +0.000 N 
ATOM     15  H   UNL     1       7.790  11.497  17.921  0.00  0.00    +0.000 HD
BRANCH  14  16
ATOM     16  C   UNL     1       9.104  13.146  17.913  0.00  0.00    +0.000 C 
BRANCH  16  17
ATOM     17  C   UNL     1       7.997  14.048  18.300  0.00  0.00    +0.000 A 
ATOM     18  C   UNL     1       6.970  14.635  17.592  0.00  0.00    +0.000 A 
ATOM     19  C   UNL     1       6.206  15.368  18.531  0.00  0.00    +0.000 A 
ATOM     20  C   UNL     1       6.822  15.194  19.747  0.00  0.00    +0.000 A 
ATOM     21  O   UNL     1       7.914  14.396  19.619  0.00  0.00    +0.000 OA
ENDBRANCH  16  17
ENDBRANCH  14  16
ENDBRANCH  11  13
ENDBRANCH  10  11
ENDBRANCH   1  10
BRANCH   6  22
ATOM     22  C   UNL     1       3.909   2.514  17.912  0.00  0.00    +0.000 C 
BRANCH  22  23
ATOM     23  C   UNL     1       2.943   2.639  19.072  0.00  0.00    +0.000 A 
ATOM     24  C   UNL     1       3.392   2.514  20.396  0.00  0.00    +0.000 A 
ATOM     25  C   UNL     1       2.508   2.662  21.470  0.00  0.00    +0.000 A 
ATOM     26  C   UNL     1       1.161   2.937  21.240  0.00  0.00    +0.000 A 
ATOM     27  C   UNL     1       0.704   3.079  19.934  0.00  0.00    +0.000 A 
ATOM     28  C   UNL     1       1.589   2.943  18.857  0.00  0.00    +0.000 A 
ENDBRANCH  22  23
ENDBRANCH   6  22
TORSDOF 7
ENDMDL
MODEL 6
REMARK VINA RESULT:      -7.5      6.055      8.660
REMARK  Name = 
REMARK  7 active torsions:
REMARK  status: ('A' for Active; 'I' for Inactive)
REMARK    1  A    between atoms: C_2  and  C_3
REMARK    2  A    between atoms: C_3  and  S_4
REMARK    3  A    between atoms: S_4  and  C_5
REMARK    4  A    between atoms: C_10  and  C_12
REMARK    5  A    between atoms: C_12  and  C_13
REMARK    6  A    between atoms: N_20  and  C_21
REMARK    7  A    between atoms: C_21  and  C_22
REMARK                            x       y       z     vdW  Elec       q    Type
REMARK                         _______ _______ _______ _____ _____    ______ ____
ROOT
ATOM      1  C   UNL     1       2.317   7.447  18.432  0.00  0.00    +0.000 A 
ATOM      2  N   UNL     1       2.498   8.254  17.406  0.00  0.00    +0.000 NA
ATOM      3  N   UNL     1       2.050   9.542  17.677  0.00  0.00    +0.000 NA
ATOM      4  C   UNL     1       1.602   9.666  18.911  0.00  0.00    +0.000 A 
ATOM      5  N   UNL     1       1.096  10.846  19.431  0.00  0.00    +0.000 N 
ATOM      6  C   UNL     1       0.968  11.120  20.779  0.00  0.00    +0.000 C 
ATOM      7  O   UNL     1       1.280  10.357  21.699  0.00  0.00    +0.000 OA
ATOM      8  S   UNL     1       1.611   8.203  19.794  0.00  0.00    +0.000 S 
ATOM      9  H   UNL     1       1.011  11.597  18.758  0.00  0.00    +0.000 HD
ENDROOT
BRANCH   1  10
ATOM     10  S   UNL     1       2.698   5.741  18.408  0.00  0.00    +0.000 S 
BRANCH  10  11
ATOM     11  C   UNL     1       4.078   5.620  19.576  0.00  0.00    +0.000 C 
BRANCH  11  13
ATOM     12  O   UNL     1       5.469   3.677  19.244  0.00  0.00    +0.000 OA
ATOM     13  C   UNL     1       5.242   4.852  18.968  0.00  0.00    +0.000 C 
ATOM     14  N   UNL     1       6.025   5.584  18.107  0.00  0.00    +0.000 N 
ATOM     15  H   UNL     1       5.765   6.537  17.875  0.00  0.00    +0.000 HD
BRANCH  14  16
ATOM     16  C   UNL     1       7.210   5.056  17.469  0.00  0.00    +0.000 C 
BRANCH  16  17
ATOM     17  C   UNL     1       6.890   4.705  16.067  0.00  0.00    +0.000 A 
ATOM     18  C   UNL     1       5.955   3.868  15.496  0.00  0.00    +0.000 A 
ATOM     19  C   UNL     1       6.118   3.984  14.096  0.00  0.00    +0.000 A 
ATOM     20  C   UNL     1       7.149   4.871  13.901  0.00  0.00    +0.000 A 
ATOM     21  O   UNL     1       7.629   5.314  15.092  0.00  0.00    +0.000 OA
ENDBRANCH  16  17
ENDBRANCH  14  16
ENDBRANCH  11  13
ENDBRANCH  10  11
ENDBRANCH   1  10
BRANCH   6  22
ATOM     22  C   UNL     1       0.410  12.498  21.111  0.00  0.00    +0.000 C 
BRANCH  22  23
ATOM     23  C   UNL     1      -1.047  12.501  21.523  0.00  0.00    +0.000 A 
ATOM     24  C   UNL     1      -1.419  12.228  22.849  0.00  0.00    +0.000 A 
ATOM     25  C   UNL     1      -2.762  12.262  23.240  0.00  0.00    +0.000 A 
ATOM     26  C   UNL     1      -3.756  12.569  22.312  0.00  0.00    +0.000 A 
ATOM     27  C   UNL     1      -3.403  12.857  20.998  0.00  0.00    +0.000 A 
ATOM     28  C   UNL     1      -2.058  12.834  20.608  0.00  0.00    +0.000 A 
ENDBRANCH  22  23
ENDBRANCH   6  22
TORSDOF 7
ENDMDL
MODEL 7
REMARK VINA RESULT:      -7.4      1.810     10.260
REMARK  Name = 
REMARK  7 active torsions:
REMARK  status: ('A' for Active; 'I' for Inactive)
REMARK    1  A    between atoms: C_2  and  C_3
REMARK    2  A    between atoms: C_3  and  S_4
REMARK    3  A    between atoms: S_4  and  C_5
REMARK    4  A    between atoms: C_10  and  C_12
REMARK    5  A    between atoms: C_12  and  C_13
REMARK    6  A    between atoms: N_20  and  C_21
REMARK    7  A    between atoms: C_21  and  C_22
REMARK                            x       y       z     vdW  Elec       q    Type
REMARK                         _______ _______ _______ _____ _____    ______ ____
ROOT
ATOM      1  C   UNL     1       7.637   7.308  18.059  0.00  0.00    +0.000 A 
ATOM      2  N   UNL     1       8.308   6.565  18.916  0.00  0.00    +0.000 NA
ATOM      3  N   UNL     1       7.653   5.368  19.184  0.00  0.00    +0.000 NA
ATOM      4  C   UNL     1       6.546   5.235  18.479  0.00  0.00    +0.000 A 
ATOM      5  N   UNL     1       5.708   4.136  18.564  0.00  0.00    +0.000 N 
ATOM      6  C   UNL     1       4.771   3.787  17.610  0.00  0.00    +0.000 C 
ATOM      7  O   UNL     1       4.551   4.402  16.562  0.00  0.00    +0.000 OA
ATOM      8  S   UNL     1       6.182   6.596  17.512  0.00  0.00    +0.000 S 
ATOM      9  H   UNL     1       5.961   3.470  19.282  0.00  0.00    +0.000 HD
ENDROOT
BRANCH   1  10
ATOM     10  S   UNL     1       8.137   8.907  17.558  0.00  0.00    +0.000 S 
BRANCH  10  11
ATOM     11  C   UNL     1       8.906   9.577  19.056  0.00  0.00    +0.000 C 
BRANCH  11  13
ATOM     12  O   UNL     1      10.290  11.028  17.717  0.00  0.00    +0.000 OA
ATOM     13  C   UNL     1       9.655  10.865  18.755  0.00  0.00    +0.000 C 
ATOM     14  N   UNL     1       9.582  11.817  19.745  0.00  0.00    +0.000 N 
ATOM     15  H   UNL     1       9.004  11.650  20.562  0.00  0.00    +0.000 HD
BRANCH  14  16
ATOM     16  C   UNL     1      10.270  13.086  19.678  0.00  0.00    +0.000 C 
BRANCH  16  17
ATOM     17  C   UNL     1       9.400  14.073  19.000  0.00  0.00    +0.000 A 
ATOM     18  C   UNL     1       9.660  15.230  18.297  0.00  0.00    +0.000 A 
ATOM     19  C   UNL     1       8.408  15.719  17.856  0.00  0.00    +0.000 A 
ATOM     20  C   UNL     1       7.464  14.840  18.330  0.00  0.00    +0.000 A 
ATOM     21  O   UNL     1       8.055  13.836  19.029  0.00  0.00    +0.000 OA
ENDBRANCH  16  17
ENDBRANCH  14  16
ENDBRANCH  11  13
ENDBRANCH  10  11
ENDBRANCH   1  10
BRANCH   6  22
ATOM     22  C   UNL     1       3.982   2.518  17.908  0.00  0.00    +0.000 C 
BRANCH  22  23
ATOM     23  C   UNL     1       2.988   2.652  19.043  0.00  0.00    +0.000 A 
ATOM     24  C   UNL     1       3.407   2.562  20.379  0.00  0.00    +0.000 A 
ATOM     25  C   UNL     1       2.496   2.717  21.430  0.00  0.00    +0.000 A 
ATOM     26  C   UNL     1       1.151   2.964  21.163  0.00  0.00    +0.000 A 
ATOM     27  C   UNL     1       0.722   3.070  19.844  0.00  0.00    +0.000 A 
ATOM     28  C   UNL     1       1.634   2.926  18.791  0.00  0.00    +0.000 A 
ENDBRANCH  22  23
ENDBRANCH   6  22
TORSDOF 7
ENDMDL
MODEL 8
REMARK VINA RESULT:      -7.4      6.377     10.902
REMARK  Name = 
REMARK  7 active torsions:
REMARK  status: ('A' for Active; 'I' for Inactive)
REMARK    1  A    between atoms: C_2  and  C_3
REMARK    2  A    between atoms: C_3  and  S_4
REMARK    3  A    between atoms: S_4  and  C_5
REMARK    4  A    between atoms: C_10  and  C_12
REMARK    5  A    between atoms: C_12  and  C_13
REMARK    6  A    between atoms: N_20  and  C_21
REMARK    7  A    between atoms: C_21  and  C_22
REMARK                            x       y       z     vdW  Elec       q    Type
REMARK                         _______ _______ _______ _____ _____    ______ ____
ROOT
ATOM      1  C   UNL     1      -0.506  10.837  21.972  0.00  0.00    +0.000 A 
ATOM      2  N   UNL     1       0.101  10.481  23.085  0.00  0.00    +0.000 NA
ATOM      3  N   UNL     1       0.942   9.392  22.888  0.00  0.00    +0.000 NA
ATOM      4  C   UNL     1       0.976   9.008  21.626  0.00  0.00    +0.000 A 
ATOM      5  N   UNL     1       1.733   7.943  21.167  0.00  0.00    +0.000 N 
ATOM      6  C   UNL     1       2.084   7.741  19.845  0.00  0.00    +0.000 C 
ATOM      7  O   UNL     1       1.772   8.473  18.900  0.00  0.00    +0.000 OA
ATOM      8  S   UNL     1      -0.083   9.887  20.614  0.00  0.00    +0.000 S 
ATOM      9  H   UNL     1       2.199   7.416  21.893  0.00  0.00    +0.000 HD
ENDROOT
BRANCH   1  10
ATOM     10  S   UNL     1      -1.689  12.121  21.876  0.00  0.00    +0.000 S 
BRANCH  10  11
ATOM     11  C   UNL     1      -0.922  13.293  20.728  0.00  0.00    +0.000 C 
BRANCH  11  13
ATOM     12  O   UNL     1       0.721  14.158  22.267  0.00  0.00    +0.000 OA
ATOM     13  C   UNL     1       0.487  13.651  21.173  0.00  0.00    +0.000 C 
ATOM     14  N   UNL     1       1.468  13.382  20.248  0.00  0.00    +0.000 N 
ATOM     15  H   UNL     1       1.227  12.917  19.379  0.00  0.00    +0.000 HD
BRANCH  14  16
ATOM     16  C   UNL     1       2.863  13.698  20.455  0.00  0.00    +0.000 C 
BRANCH  16  17
ATOM     17  C   UNL     1       3.324  14.591  19.367  0.00  0.00    +0.000 A 
ATOM     18  C   UNL     1       2.775  14.962  18.158  0.00  0.00    +0.000 A 
ATOM     19  C   UNL     1       3.682  15.876  17.572  0.00  0.00    +0.000 A 
ATOM     20  C   UNL     1       4.731  15.994  18.453  0.00  0.00    +0.000 A 
ATOM     21  O   UNL     1       4.526  15.215  19.546  0.00  0.00    +0.000 OA
ENDBRANCH  16  17
ENDBRANCH  14  16
ENDBRANCH  11  13
ENDBRANCH  10  11
ENDBRANCH   1  10
BRANCH   6  22
ATOM     22  C   UNL     1       2.947   6.513  19.583  0.00  0.00    +0.000 C 
BRANCH  22  23
ATOM     23  C   UNL     1       2.180   5.208  19.537  0.00  0.00    +0.000 A 
ATOM     24  C   UNL     1       1.928   4.567  18.314  0.00  0.00    +0.000 A 
ATOM     25  C   UNL     1       1.248   3.344  18.270  0.00  0.00    +0.000 A 
ATOM     26  C   UNL     1       0.809   2.743  19.448  0.00  0.00    +0.000 A 
ATOM     27  C   UNL     1       1.063   3.358  20.669  0.00  0.00    +0.000 A 
ATOM     28  C   UNL     1       1.754   4.576  20.715  0.00  0.00    +0.000 A 
ENDBRANCH  22  23
ENDBRANCH   6  22
TORSDOF 7
ENDMDL
MODEL 9
REMARK VINA RESULT:      -7.3      1.995     10.430
REMARK  Name = 
REMARK  7 active torsions:
REMARK  status: ('A' for Active; 'I' for Inactive)
REMARK    1  A    between atoms: C_2  and  C_3
REMARK    2  A    between atoms: C_3  and  S_4
REMARK    3  A    between atoms: S_4  and  C_5
REMARK    4  A    between atoms: C_10  and  C_12
REMARK    5  A    between atoms: C_12  and  C_13
REMARK    6  A    between atoms: N_20  and  C_21
REMARK    7  A    between atoms: C_21  and  C_22
REMARK                            x       y       z     vdW  Elec       q    Type
REMARK                         _______ _______ _______ _____ _____    ______ ____
ROOT
ATOM      1  C   UNL     1       7.632   7.329  18.129  0.00  0.00    +0.000 A 
ATOM      2  N   UNL     1       8.266   6.575  19.003  0.00  0.00    +0.000 NA
ATOM      3  N   UNL     1       7.586   5.387  19.248  0.00  0.00    +0.000 NA
ATOM      4  C   UNL     1       6.500   5.270  18.508  0.00  0.00    +0.000 A 
ATOM      5  N   UNL     1       5.645   4.183  18.563  0.00  0.00    +0.000 N 
ATOM      6  C   UNL     1       4.734   3.849  17.580  0.00  0.00    +0.000 C 
ATOM      7  O   UNL     1       4.555   4.469  16.527  0.00  0.00    +0.000 OA
ATOM      8  S   UNL     1       6.184   6.639  17.534  0.00  0.00    +0.000 S 
ATOM      9  H   UNL     1       5.868   3.511  19.286  0.00  0.00    +0.000 HD
ENDROOT
BRANCH   1  10
ATOM     10  S   UNL     1       8.168   8.923  17.649  0.00  0.00    +0.000 S 
BRANCH  10  11
ATOM     11  C   UNL     1       8.974   9.546  19.147  0.00  0.00    +0.000 C 
BRANCH  11  13
ATOM     12  O   UNL     1      10.026  11.154  17.691  0.00  0.00    +0.000 OA
ATOM     13  C   UNL     1       9.846  10.752  18.837  0.00  0.00    +0.000 C 
ATOM     14  N   UNL     1      10.429  11.337  19.936  0.00  0.00    +0.000 N 
ATOM     15  H   UNL     1      10.208  10.996  20.866  0.00  0.00    +0.000 HD
BRANCH  14  16
ATOM     16  C   UNL     1      11.336  12.459  19.851  0.00  0.00    +0.000 C 
BRANCH  16  17
ATOM     17  C   UNL     1      10.552  13.715  19.827  0.00  0.00    +0.000 A 
ATOM     18  C   UNL     1       9.634  14.268  20.693  0.00  0.00    +0.000 A 
ATOM     19  C   UNL     1       9.258  15.513  20.135  0.00  0.00    +0.000 A 
ATOM     20  C   UNL     1       9.959  15.634  18.959  0.00  0.00    +0.000 A 
ATOM     21  O   UNL     1      10.747  14.545  18.759  0.00  0.00    +0.000 OA
ENDBRANCH  16  17
ENDBRANCH  14  16
ENDBRANCH  11  13
ENDBRANCH  10  11
ENDBRANCH   1  10
BRANCH   6  22
ATOM     22  C   UNL     1       3.920   2.589  17.850  0.00  0.00    +0.000 C 
BRANCH  22  23
ATOM     23  C   UNL     1       2.974   2.696  19.028  0.00  0.00    +0.000 A 
ATOM     24  C   UNL     1       3.430   2.471  20.336  0.00  0.00    +0.000 A 
ATOM     25  C   UNL     1       2.567   2.601  21.430  0.00  0.00    +0.000 A 
ATOM     26  C   UNL     1       1.234   2.956  21.235  0.00  0.00    +0.000 A 
ATOM     27  C   UNL     1       0.770   3.197  19.945  0.00  0.00    +0.000 A 
ATOM     28  C   UNL     1       1.635   3.079  18.851  0.00  0.00    +0.000 A 
ENDBRANCH  22  23
ENDBRANCH   6  22
TORSDOF 7
ENDMDL
