MODEL 1
REMARK VINA RESULT:      -7.7      0.000      0.000
REMARK  Name = 
REMARK  6 active torsions:
REMARK  status: ('A' for Active; 'I' for Inactive)
REMARK    1  A    between atoms: C_1  and  C_2
REMARK    2  A    between atoms: C_2  and  C_3
REMARK    3  A    between atoms: C_3  and  C_4
REMARK    4  A    between atoms: C_4  and  O_5
REMARK    5  A    between atoms: O_5  and  C_6
REMARK    6  A    between atoms: N_8  and  C_9
REMARK                            x       y       z     vdW  Elec       q    Type
REMARK                         _______ _______ _______ _____ _____    ______ ____
ROOT
ATOM      1  C   UNL     1       2.943   5.839  18.665  0.00  0.00    +0.000 C 
ATOM      2  O   UNL     1       3.360   4.870  19.677  0.00  0.00    +0.000 OA
ATOM      3  C   UNL     1       2.638   4.625  20.792  0.00  0.00    +0.000 C 
ATOM      4  O   UNL     1       2.731   3.571  21.408  0.00  0.00    +0.000 OA
ATOM      5  N   UNL     1       1.849   5.641  21.234  0.00  0.00    +0.000 N 
ATOM      6  C   UNL     1       1.713   6.862  20.589  0.00  0.00    +0.000 A 
ATOM      7  C   UNL     1       1.032   7.899  21.232  0.00  0.00    +0.000 A 
ATOM      8  C   UNL     1       0.868   9.119  20.578  0.00  0.00    +0.000 A 
ATOM      9  C   UNL     1       1.377   9.288  19.293  0.00  0.00    +0.000 A 
ATOM     10 CL   UNL     1       1.132  10.777  18.467  0.00  0.00    +0.000 Cl
ATOM     11  C   UNL     1       2.064   8.252  18.659  0.00  0.00    +0.000 A 
ATOM     12  C   UNL     1       2.246   7.018  19.307  0.00  0.00    +0.000 A 
ATOM     13  H   UNL     1       1.414   5.476  22.131  0.00  0.00    +0.000 HD
ENDROOT
BRANCH   1  15
ATOM     14  C   UNL     1       2.538   3.676  17.253  0.00  0.00    +0.000 C 
ATOM     15  C   UNL     1       2.014   5.024  17.725  0.00  0.00    +0.000 C 
ENDBRANCH   1  15
BRANCH   1  16
ATOM     16  C   UNL     1       4.258   6.261  17.946  0.00  0.00    +0.000 C 
BRANCH  16  17
ATOM     17  O   UNL     1       5.358   5.537  18.528  0.00  0.00    +0.000 OA
BRANCH  17  18
ATOM     18  C   UNL     1       6.197   5.012  17.595  0.00  0.00    +0.000 C 
ATOM     19  O   UNL     1       7.128   4.269  17.867  0.00  0.00    +0.000 OA
ATOM     20  N   UNL     1       5.764   5.403  16.359  0.00  0.00    +0.000 N 
ATOM     21  H   UNL     1       4.994   6.055  16.375  0.00  0.00    +0.000 HD
BRANCH  20  22
ATOM     22  C   UNL     1       6.227   4.943  15.119  0.00  0.00    +0.000 A 
ATOM     23  C   UNL     1       7.427   5.375  14.544  0.00  0.00    +0.000 A 
ATOM     24  C   UNL     1       7.786   4.955  13.265  0.00  0.00    +0.000 A 
ATOM     25  C   UNL     1       6.952   4.095  12.569  0.00  0.00    +0.000 A 
ATOM     26  F   UNL     1       7.273   3.732  11.320  0.00  0.00    +0.000 F 
ATOM     27  C   UNL     1       5.788   3.606  13.145  0.00  0.00    +0.000 A 
ATOM     28  C   UNL     1       5.432   4.016  14.433  0.00  0.00    +0.000 A 
ENDBRANCH  20  22
ENDBRANCH  17  18
ENDBRANCH  16  17
ENDBRANCH   1  16
TORSDOF 5
ENDMDL
MODEL 2
REMARK VINA RESULT:      -7.6      4.239      7.903
REMARK  Name = 
REMARK  6 active torsions:
REMARK  status: ('A' for Active; 'I' for Inactive)
REMARK    1  A    between atoms: C_1  and  C_2
REMARK    2  A    between atoms: C_2  and  C_3
REMARK    3  A    between atoms: C_3  and  C_4
REMARK    4  A    between atoms: C_4  and  O_5
REMARK    5  A    between atoms: O_5  and  C_6
REMARK    6  A    between atoms: N_8  and  C_9
REMARK                            x       y       z     vdW  Elec       q    Type
REMARK                         _______ _______ _______ _____ _____    ______ ____
ROOT
ATOM      1  C   UNL     1       4.477   5.790  17.597  0.00  0.00    +0.000 C 
ATOM      2  O   UNL     1       5.705   6.259  18.237  0.00  0.00    +0.000 OA
ATOM      3  C   UNL     1       6.608   5.419  18.784  0.00  0.00    +0.000 C 
ATOM      4  O   UNL     1       7.782   5.733  18.933  0.00  0.00    +0.000 OA
ATOM      5  N   UNL     1       6.129   4.224  19.226  0.00  0.00    +0.000 N 
ATOM      6  C   UNL     1       4.809   3.818  19.100  0.00  0.00    +0.000 A 
ATOM      7  C   UNL     1       4.387   2.661  19.761  0.00  0.00    +0.000 A 
ATOM      8  C   UNL     1       3.069   2.232  19.616  0.00  0.00    +0.000 A 
ATOM      9  C   UNL     1       2.191   2.955  18.813  0.00  0.00    +0.000 A 
ATOM     10 CL   UNL     1       0.578   2.398  18.595  0.00  0.00    +0.000 Cl
ATOM     11  C   UNL     1       2.615   4.115  18.163  0.00  0.00    +0.000 A 
ATOM     12  C   UNL     1       3.939   4.566  18.304  0.00  0.00    +0.000 A 
ATOM     13  H   UNL     1       6.798   3.666  19.738  0.00  0.00    +0.000 HD
ENDROOT
BRANCH   1  15
ATOM     14  C   UNL     1       5.209   4.056  15.781  0.00  0.00    +0.000 C 
ATOM     15  C   UNL     1       4.904   5.505  16.131  0.00  0.00    +0.000 C 
ENDBRANCH   1  15
BRANCH   1  16
ATOM     16  C   UNL     1       3.492   6.993  17.682  0.00  0.00    +0.000 C 
BRANCH  16  17
ATOM     17  O   UNL     1       2.881   6.999  18.987  0.00  0.00    +0.000 OA
BRANCH  17  18
ATOM     18  C   UNL     1       2.082   8.081  19.189  0.00  0.00    +0.000 C 
ATOM     19  O   UNL     1       1.596   8.739  18.281  0.00  0.00    +0.000 OA
ATOM     20  N   UNL     1       1.888   8.227  20.534  0.00  0.00    +0.000 N 
ATOM     21  H   UNL     1       2.425   7.590  21.103  0.00  0.00    +0.000 HD
BRANCH  20  22
ATOM     22  C   UNL     1       0.992   9.099  21.167  0.00  0.00    +0.000 A 
ATOM     23  C   UNL     1       0.810  10.428  20.769  0.00  0.00    +0.000 A 
ATOM     24  C   UNL     1      -0.025  11.273  21.499  0.00  0.00    +0.000 A 
ATOM     25  C   UNL     1      -0.683  10.785  22.615  0.00  0.00    +0.000 A 
ATOM     26  F   UNL     1      -1.445  11.612  23.345  0.00  0.00    +0.000 F 
ATOM     27  C   UNL     1      -0.565   9.454  22.991  0.00  0.00    +0.000 A 
ATOM     28  C   UNL     1       0.261   8.602  22.253  0.00  0.00    +0.000 A 
ENDBRANCH  20  22
ENDBRANCH  17  18
ENDBRANCH  16  17
ENDBRANCH   1  16
TORSDOF 5
ENDMDL
MODEL 3
REMARK VINA RESULT:      -7.6      4.273      7.860
REMARK  Name = 
REMARK  6 active torsions:
REMARK  status: ('A' for Active; 'I' for Inactive)
REMARK    1  A    between atoms: C_1  and  C_2
REMARK    2  A    between atoms: C_2  and  C_3
REMARK    3  A    between atoms: C_3  and  C_4
REMARK    4  A    between atoms: C_4  and  O_5
REMARK    5  A    between atoms: O_5  and  C_6
REMARK    6  A    between atoms: N_8  and  C_9
REMARK                            x       y       z     vdW  Elec       q    Type
REMARK                         _______ _______ _______ _____ _____    ______ ____
ROOT
ATOM      1  C   UNL     1       3.144   5.546  18.264  0.00  0.00    +0.000 C 
ATOM      2  O   UNL     1       2.388   4.422  17.715  0.00  0.00    +0.000 OA
ATOM      3  C   UNL     1       2.950   3.220  17.465  0.00  0.00    +0.000 C 
ATOM      4  O   UNL     1       2.288   2.191  17.417  0.00  0.00    +0.000 OA
ATOM      5  N   UNL     1       4.284   3.222  17.201  0.00  0.00    +0.000 N 
ATOM      6  C   UNL     1       5.084   4.355  17.226  0.00  0.00    +0.000 A 
ATOM      7  C   UNL     1       6.395   4.273  16.749  0.00  0.00    +0.000 A 
ATOM      8  C   UNL     1       7.212   5.402  16.797  0.00  0.00    +0.000 A 
ATOM      9  C   UNL     1       6.717   6.592  17.322  0.00  0.00    +0.000 A 
ATOM     10 CL   UNL     1       7.740   7.971  17.426  0.00  0.00    +0.000 Cl
ATOM     11  C   UNL     1       5.403   6.671  17.788  0.00  0.00    +0.000 A 
ATOM     12  C   UNL     1       4.563   5.545  17.740  0.00  0.00    +0.000 A 
ATOM     13  H   UNL     1       4.655   2.331  16.901  0.00  0.00    +0.000 HD
ENDROOT
BRANCH   1  15
ATOM     14  C   UNL     1       1.702   4.976  20.369  0.00  0.00    +0.000 C 
ATOM     15  C   UNL     1       3.065   5.337  19.800  0.00  0.00    +0.000 C 
ENDBRANCH   1  15
BRANCH   1  16
ATOM     16  C   UNL     1       2.360   6.816  17.818  0.00  0.00    +0.000 C 
BRANCH  16  17
ATOM     17  O   UNL     1       2.521   7.836  18.822  0.00  0.00    +0.000 OA
BRANCH  17  18
ATOM     18  C   UNL     1       1.856   8.983  18.518  0.00  0.00    +0.000 C 
ATOM     19  O   UNL     1       2.039   9.616  17.489  0.00  0.00    +0.000 OA
ATOM     20  N   UNL     1       0.944   9.226  19.507  0.00  0.00    +0.000 N 
ATOM     21  H   UNL     1       0.996   8.589  20.287  0.00  0.00    +0.000 HD
BRANCH  20  22
ATOM     22  C   UNL     1      -0.067  10.197  19.501  0.00  0.00    +0.000 A 
ATOM     23  C   UNL     1      -0.162  11.205  20.466  0.00  0.00    +0.000 A 
ATOM     24  C   UNL     1      -1.245  12.083  20.463  0.00  0.00    +0.000 A 
ATOM     25  C   UNL     1      -2.222  11.958  19.489  0.00  0.00    +0.000 A 
ATOM     26  F   UNL     1      -3.288  12.770  19.517  0.00  0.00    +0.000 F 
ATOM     27  C   UNL     1      -2.115  11.005  18.486  0.00  0.00    +0.000 A 
ATOM     28  C   UNL     1      -1.023  10.132  18.481  0.00  0.00    +0.000 A 
ENDBRANCH  20  22
ENDBRANCH  17  18
ENDBRANCH  16  17
ENDBRANCH   1  16
TORSDOF 5
ENDMDL
MODEL 4
REMARK VINA RESULT:      -7.5      3.958      7.102
REMARK  Name = 
REMARK  6 active torsions:
REMARK  status: ('A' for Active; 'I' for Inactive)
REMARK    1  A    between atoms: C_1  and  C_2
REMARK    2  A    between atoms: C_2  and  C_3
REMARK    3  A    between atoms: C_3  and  C_4
REMARK    4  A    between atoms: C_4  and  O_5
REMARK    5  A    between atoms: O_5  and  C_6
REMARK    6  A    between atoms: N_8  and  C_9
REMARK                            x       y       z     vdW  Elec       q    Type
REMARK                         _______ _______ _______ _____ _____    ______ ____
ROOT
ATOM      1  C   UNL     1       4.635   5.137  17.104  0.00  0.00    +0.000 C 
ATOM      2  O   UNL     1       5.882   5.628  17.689  0.00  0.00    +0.000 OA
ATOM      3  C   UNL     1       6.658   4.868  18.490  0.00  0.00    +0.000 C 
ATOM      4  O   UNL     1       7.854   5.088  18.635  0.00  0.00    +0.000 OA
ATOM      5  N   UNL     1       6.026   3.883  19.183  0.00  0.00    +0.000 N 
ATOM      6  C   UNL     1       4.674   3.594  19.073  0.00  0.00    +0.000 A 
ATOM      7  C   UNL     1       4.095   2.695  19.973  0.00  0.00    +0.000 A 
ATOM      8  C   UNL     1       2.742   2.380  19.849  0.00  0.00    +0.000 A 
ATOM      9  C   UNL     1       1.988   2.958  18.832  0.00  0.00    +0.000 A 
ATOM     10 CL   UNL     1       0.331   2.531  18.651  0.00  0.00    +0.000 Cl
ATOM     11  C   UNL     1       2.569   3.862  17.943  0.00  0.00    +0.000 A 
ATOM     12  C   UNL     1       3.930   4.198  18.057  0.00  0.00    +0.000 A 
ATOM     13  H   UNL     1       6.605   3.409  19.863  0.00  0.00    +0.000 HD
ENDROOT
BRANCH   1  15
ATOM     14  C   UNL     1       6.023   5.232  14.891  0.00  0.00    +0.000 C 
ATOM     15  C   UNL     1       5.084   4.444  15.790  0.00  0.00    +0.000 C 
ENDBRANCH   1  15
BRANCH   1  16
ATOM     16  C   UNL     1       3.793   6.416  16.818  0.00  0.00    +0.000 C 
BRANCH  16  17
ATOM     17  O   UNL     1       3.956   7.334  17.917  0.00  0.00    +0.000 OA
BRANCH  17  18
ATOM     18  C   UNL     1       2.770   7.747  18.438  0.00  0.00    +0.000 C 
ATOM     19  O   UNL     1       2.236   7.219  19.402  0.00  0.00    +0.000 OA
ATOM     20  N   UNL     1       2.360   8.854  17.749  0.00  0.00    +0.000 N 
ATOM     21  H   UNL     1       2.940   9.091  16.958  0.00  0.00    +0.000 HD
BRANCH  20  22
ATOM     22  C   UNL     1       1.289   9.699  18.072  0.00  0.00    +0.000 A 
ATOM     23  C   UNL     1      -0.045   9.377  17.803  0.00  0.00    +0.000 A 
ATOM     24  C   UNL     1      -1.058  10.301  18.059  0.00  0.00    +0.000 A 
ATOM     25  C   UNL     1      -0.734  11.537  18.594  0.00  0.00    +0.000 A 
ATOM     26  F   UNL     1      -1.702  12.443  18.792  0.00  0.00    +0.000 F 
ATOM     27  C   UNL     1       0.576  11.853  18.925  0.00  0.00    +0.000 A 
ATOM     28  C   UNL     1       1.591  10.923  18.681  0.00  0.00    +0.000 A 
ENDBRANCH  20  22
ENDBRANCH  17  18
ENDBRANCH  16  17
ENDBRANCH   1  16
TORSDOF 5
ENDMDL
MODEL 5
REMARK VINA RESULT:      -7.5      4.143      7.545
REMARK  Name = 
REMARK  6 active torsions:
REMARK  status: ('A' for Active; 'I' for Inactive)
REMARK    1  A    between atoms: C_1  and  C_2
REMARK    2  A    between atoms: C_2  and  C_3
REMARK    3  A    between atoms: C_3  and  C_4
REMARK    4  A    between atoms: C_4  and  O_5
REMARK    5  A    between atoms: O_5  and  C_6
REMARK    6  A    between atoms: N_8  and  C_9
REMARK                            x       y       z     vdW  Elec       q    Type
REMARK                         _______ _______ _______ _____ _____    ______ ____
ROOT
ATOM      1  C   UNL     1       3.175   5.324  18.369  0.00  0.00    +0.000 C 
ATOM      2  O   UNL     1       2.546   4.101  17.873  0.00  0.00    +0.000 OA
ATOM      3  C   UNL     1       3.232   2.954  17.685  0.00  0.00    +0.000 C 
ATOM      4  O   UNL     1       2.682   1.860  17.685  0.00  0.00    +0.000 OA
ATOM      5  N   UNL     1       4.562   3.083  17.428  0.00  0.00    +0.000 N 
ATOM      6  C   UNL     1       5.238   4.294  17.399  0.00  0.00    +0.000 A 
ATOM      7  C   UNL     1       6.556   4.326  16.934  0.00  0.00    +0.000 A 
ATOM      8  C   UNL     1       7.250   5.535  16.930  0.00  0.00    +0.000 A 
ATOM      9  C   UNL     1       6.628   6.691  17.393  0.00  0.00    +0.000 A 
ATOM     10 CL   UNL     1       7.502   8.172  17.433  0.00  0.00    +0.000 Cl
ATOM     11  C   UNL     1       5.309   6.654  17.848  0.00  0.00    +0.000 A 
ATOM     12  C   UNL     1       4.591   5.446  17.852  0.00  0.00    +0.000 A 
ATOM     13  H   UNL     1       5.026   2.222  17.173  0.00  0.00    +0.000 HD
ENDROOT
BRANCH   1  15
ATOM     14  C   UNL     1       1.795   4.663  20.490  0.00  0.00    +0.000 C 
ATOM     15  C   UNL     1       3.104   5.183  19.913  0.00  0.00    +0.000 C 
ENDBRANCH   1  15
BRANCH   1  16
ATOM     16  C   UNL     1       2.267   6.481  17.857  0.00  0.00    +0.000 C 
BRANCH  16  17
ATOM     17  O   UNL     1       2.206   7.504  18.869  0.00  0.00    +0.000 OA
BRANCH  17  18
ATOM     18  C   UNL     1       2.027   8.749  18.351  0.00  0.00    +0.000 C 
ATOM     19  O   UNL     1       2.404   9.074  17.234  0.00  0.00    +0.000 OA
ATOM     20  N   UNL     1       1.317   9.492  19.251  0.00  0.00    +0.000 N 
ATOM     21  H   UNL     1       1.147   9.029  20.131  0.00  0.00    +0.000 HD
BRANCH  20  22
ATOM     22  C   UNL     1       0.763  10.763  19.044  0.00  0.00    +0.000 A 
ATOM     23  C   UNL     1      -0.572  10.963  18.675  0.00  0.00    +0.000 A 
ATOM     24  C   UNL     1      -1.039  12.245  18.390  0.00  0.00    +0.000 A 
ATOM     25  C   UNL     1      -0.174  13.324  18.485  0.00  0.00    +0.000 A 
ATOM     26  F   UNL     1      -0.610  14.548  18.161  0.00  0.00    +0.000 F 
ATOM     27  C   UNL     1       1.136  13.154  18.909  0.00  0.00    +0.000 A 
ATOM     28  C   UNL     1       1.603  11.871  19.209  0.00  0.00    +0.000 A 
ENDBRANCH  20  22
ENDBRANCH  17  18
ENDBRANCH  16  17
ENDBRANCH   1  16
TORSDOF 5
ENDMDL
MODEL 6
REMARK VINA RESULT:      -7.5      4.462      8.007
REMARK  Name = 
REMARK  6 active torsions:
REMARK  status: ('A' for Active; 'I' for Inactive)
REMARK    1  A    between atoms: C_1  and  C_2
REMARK    2  A    between atoms: C_2  and  C_3
REMARK    3  A    between atoms: C_3  and  C_4
REMARK    4  A    between atoms: C_4  and  O_5
REMARK    5  A    between atoms: O_5  and  C_6
REMARK    6  A    between atoms: N_8  and  C_9
REMARK                            x       y       z     vdW  Elec       q    Type
REMARK                         _______ _______ _______ _____ _____    ______ ____
ROOT
ATOM      1  C   UNL     1       2.686   4.682  19.789  0.00  0.00    +0.000 C 
ATOM      2  O   UNL     1       1.475   4.135  19.179  0.00  0.00    +0.000 OA
ATOM      3  C   UNL     1       1.504   3.126  18.283  0.00  0.00    +0.000 C 
ATOM      4  O   UNL     1       0.537   2.398  18.093  0.00  0.00    +0.000 OA
ATOM      5  N   UNL     1       2.644   3.001  17.551  0.00  0.00    +0.000 N 
ATOM      6  C   UNL     1       3.765   3.803  17.710  0.00  0.00    +0.000 A 
ATOM      7  C   UNL     1       4.801   3.715  16.777  0.00  0.00    +0.000 A 
ATOM      8  C   UNL     1       5.943   4.498  16.946  0.00  0.00    +0.000 A 
ATOM      9  C   UNL     1       6.039   5.351  18.042  0.00  0.00    +0.000 A 
ATOM     10 CL   UNL     1       7.468   6.280  18.277  0.00  0.00    +0.000 Cl
ATOM     11  C   UNL     1       4.997   5.442  18.966  0.00  0.00    +0.000 A 
ATOM     12  C   UNL     1       3.835   4.666  18.806  0.00  0.00    +0.000 A 
ATOM     13  H   UNL     1       2.594   2.318  16.808  0.00  0.00    +0.000 HD
ENDROOT
BRANCH   1  15
ATOM     14  C   UNL     1       1.698   3.150  21.664  0.00  0.00    +0.000 C 
ATOM     15  C   UNL     1       2.930   3.770  21.022  0.00  0.00    +0.000 C 
ENDBRANCH   1  15
BRANCH   1  16
ATOM     16  C   UNL     1       2.305   6.131  20.215  0.00  0.00    +0.000 C 
BRANCH  16  17
ATOM     17  O   UNL     1       2.350   6.982  19.054  0.00  0.00    +0.000 OA
BRANCH  17  18
ATOM     18  C   UNL     1       1.769   8.193  19.265  0.00  0.00    +0.000 C 
ATOM     19  O   UNL     1       1.513   8.984  18.369  0.00  0.00    +0.000 OA
ATOM     20  N   UNL     1       1.480   8.305  20.596  0.00  0.00    +0.000 N 
ATOM     21  H   UNL     1       1.821   7.542  21.162  0.00  0.00    +0.000 HD
BRANCH  20  22
ATOM     22  C   UNL     1       0.720   9.309  21.213  0.00  0.00    +0.000 A 
ATOM     23  C   UNL     1       0.690  10.631  20.758  0.00  0.00    +0.000 A 
ATOM     24  C   UNL     1      -0.008  11.605  21.471  0.00  0.00    +0.000 A 
ATOM     25  C   UNL     1      -0.683  11.252  22.628  0.00  0.00    +0.000 A 
ATOM     26  F   UNL     1      -1.311  12.198  23.339  0.00  0.00    +0.000 F 
ATOM     27  C   UNL     1      -0.717   9.934  23.062  0.00  0.00    +0.000 A 
ATOM     28  C   UNL     1      -0.028   8.954  22.342  0.00  0.00    +0.000 A 
ENDBRANCH  20  22
ENDBRANCH  17  18
ENDBRANCH  16  17
ENDBRANCH   1  16
TORSDOF 5
ENDMDL
MODEL 7
REMARK VINA RESULT:      -7.5      1.394      1.882
REMARK  Name = 
REMARK  6 active torsions:
REMARK  status: ('A' for Active; 'I' for Inactive)
REMARK    1  A    between atoms: C_1  and  C_2
REMARK    2  A    between atoms: C_2  and  C_3
REMARK    3  A    between atoms: C_3  and  C_4
REMARK    4  A    between atoms: C_4  and  O_5
REMARK    5  A    between atoms: O_5  and  C_6
REMARK    6  A    between atoms: N_8  and  C_9
REMARK                            x       y       z     vdW  Elec       q    Type
REMARK                         _______ _______ _______ _____ _____    ______ ____
ROOT
ATOM      1  C   UNL     1       2.942   3.312  18.936  0.00  0.00    +0.000 C 
ATOM      2  O   UNL     1       3.225   2.582  20.171  0.00  0.00    +0.000 OA
ATOM      3  C   UNL     1       2.620   2.872  21.342  0.00  0.00    +0.000 C 
ATOM      4  O   UNL     1       2.518   2.049  22.243  0.00  0.00    +0.000 OA
ATOM      5  N   UNL     1       2.187   4.153  21.496  0.00  0.00    +0.000 N 
ATOM      6  C   UNL     1       2.287   5.134  20.520  0.00  0.00    +0.000 A 
ATOM      7  C   UNL     1       1.991   6.458  20.853  0.00  0.00    +0.000 A 
ATOM      8  C   UNL     1       2.062   7.444  19.870  0.00  0.00    +0.000 A 
ATOM      9  C   UNL     1       2.422   7.098  18.570  0.00  0.00    +0.000 A 
ATOM     10 CL   UNL     1       2.462   8.306  17.346  0.00  0.00    +0.000 Cl
ATOM     11  C   UNL     1       2.726   5.776  18.245  0.00  0.00    +0.000 A 
ATOM     12  C   UNL     1       2.667   4.770  19.226  0.00  0.00    +0.000 A 
ATOM     13  H   UNL     1       1.848   4.374  22.422  0.00  0.00    +0.000 HD
ENDROOT
BRANCH   1  15
ATOM     14  C   UNL     1       0.357   2.916  18.922  0.00  0.00    +0.000 C 
ATOM     15  C   UNL     1       1.717   2.571  18.335  0.00  0.00    +0.000 C 
ENDBRANCH   1  15
BRANCH   1  16
ATOM     16  C   UNL     1       4.213   3.123  18.056  0.00  0.00    +0.000 C 
BRANCH  16  17
ATOM     17  O   UNL     1       5.252   3.989  18.551  0.00  0.00    +0.000 OA
BRANCH  17  18
ATOM     18  C   UNL     1       6.052   4.472  17.562  0.00  0.00    +0.000 C 
ATOM     19  O   UNL     1       7.094   5.075  17.772  0.00  0.00    +0.000 OA
ATOM     20  N   UNL     1       5.519   4.102  16.360  0.00  0.00    +0.000 N 
ATOM     21  H   UNL     1       4.624   3.642  16.425  0.00  0.00    +0.000 HD
BRANCH  20  22
ATOM     22  C   UNL     1       6.114   4.235  15.098  0.00  0.00    +0.000 A 
ATOM     23  C   UNL     1       7.222   5.055  14.859  0.00  0.00    +0.000 A 
ATOM     24  C   UNL     1       7.709   5.221  13.563  0.00  0.00    +0.000 A 
ATOM     25  C   UNL     1       7.094   4.558  12.513  0.00  0.00    +0.000 A 
ATOM     26  F   UNL     1       7.531   4.758  11.262  0.00  0.00    +0.000 F 
ATOM     27  C   UNL     1       6.033   3.692  12.737  0.00  0.00    +0.000 A 
ATOM     28  C   UNL     1       5.552   3.515  14.036  0.00  0.00    +0.000 A 
ENDBRANCH  20  22
ENDBRANCH  17  18
ENDBRANCH  16  17
ENDBRANCH   1  16
TORSDOF 5
ENDMDL
MODEL 8
REMARK VINA RESULT:      -7.4      4.408      8.207
REMARK  Name = 
REMARK  6 active torsions:
REMARK  status: ('A' for Active; 'I' for Inactive)
REMARK    1  A    between atoms: C_1  and  C_2
REMARK    2  A    between atoms: C_2  and  C_3
REMARK    3  A    between atoms: C_3  and  C_4
REMARK    4  A    between atoms: C_4  and  O_5
REMARK    5  A    between atoms: O_5  and  C_6
REMARK    6  A    between atoms: N_8  and  C_9
REMARK                            x       y       z     vdW  Elec       q    Type
REMARK                         _______ _______ _______ _____ _____    ______ ____
ROOT
ATOM      1  C   UNL     1       3.003   5.728  18.276  0.00  0.00    +0.000 C 
ATOM      2  O   UNL     1       2.176   4.652  17.732  0.00  0.00    +0.000 OA
ATOM      3  C   UNL     1       2.668   3.428  17.448  0.00  0.00    +0.000 C 
ATOM      4  O   UNL     1       1.953   2.435  17.402  0.00  0.00    +0.000 OA
ATOM      5  N   UNL     1       3.993   3.366  17.147  0.00  0.00    +0.000 N 
ATOM      6  C   UNL     1       4.850   4.457  17.167  0.00  0.00    +0.000 A 
ATOM      7  C   UNL     1       6.142   4.316  16.653  0.00  0.00    +0.000 A 
ATOM      8  C   UNL     1       7.017   5.401  16.696  0.00  0.00    +0.000 A 
ATOM      9  C   UNL     1       6.597   6.606  17.252  0.00  0.00    +0.000 A 
ATOM     10 CL   UNL     1       7.693   7.929  17.349  0.00  0.00    +0.000 Cl
ATOM     11  C   UNL     1       5.303   6.744  17.755  0.00  0.00    +0.000 A 
ATOM     12  C   UNL     1       4.405   5.663  17.713  0.00  0.00    +0.000 A 
ATOM     13  H   UNL     1       4.309   2.463  16.823  0.00  0.00    +0.000 HD
ENDROOT
BRANCH   1  15
ATOM     14  C   UNL     1       1.596   5.161  20.407  0.00  0.00    +0.000 C 
ATOM     15  C   UNL     1       2.954   5.498  19.811  0.00  0.00    +0.000 C 
ENDBRANCH   1  15
BRANCH   1  16
ATOM     16  C   UNL     1       2.273   7.043  17.872  0.00  0.00    +0.000 C 
BRANCH  16  17
ATOM     17  O   UNL     1       2.632   8.078  18.807  0.00  0.00    +0.000 OA
BRANCH  17  18
ATOM     18  C   UNL     1       1.600   8.922  19.080  0.00  0.00    +0.000 C 
ATOM     19  O   UNL     1       0.814   9.321  18.234  0.00  0.00    +0.000 OA
ATOM     20  N   UNL     1       1.582   9.156  20.426  0.00  0.00    +0.000 N 
ATOM     21  H   UNL     1       2.358   8.753  20.930  0.00  0.00    +0.000 HD
BRANCH  20  22
ATOM     22  C   UNL     1       0.584   9.819  21.153  0.00  0.00    +0.000 A 
ATOM     23  C   UNL     1       0.026  11.036  20.749  0.00  0.00    +0.000 A 
ATOM     24  C   UNL     1      -0.894  11.695  21.564  0.00  0.00    +0.000 A 
ATOM     25  C   UNL     1      -1.263  11.128  22.773  0.00  0.00    +0.000 A 
ATOM     26  F   UNL     1      -2.107  11.786  23.579  0.00  0.00    +0.000 F 
ATOM     27  C   UNL     1      -0.768   9.891  23.164  0.00  0.00    +0.000 A 
ATOM     28  C   UNL     1       0.144   9.224  22.342  0.00  0.00    +0.000 A 
ENDBRANCH  20  22
ENDBRANCH  17  18
ENDBRANCH  16  17
ENDBRANCH   1  16
TORSDOF 5
ENDMDL
MODEL 9
REMARK VINA RESULT:      -7.4      4.020      7.276
REMARK  Name = 
REMARK  6 active torsions:
REMARK  status: ('A' for Active; 'I' for Inactive)
REMARK    1  A    between atoms: C_1  and  C_2
REMARK    2  A    between atoms: C_2  and  C_3
REMARK    3  A    between atoms: C_3  and  C_4
REMARK    4  A    between atoms: C_4  and  O_5
REMARK    5  A    between atoms: O_5  and  C_6
REMARK    6  A    between atoms: N_8  and  C_9
REMARK                            x       y       z     vdW  Elec       q    Type
REMARK                         _______ _______ _______ _____ _____    ______ ____
ROOT
ATOM      1  C   UNL     1       4.404   5.358  17.400  0.00  0.00    +0.000 C 
ATOM      2  O   UNL     1       5.666   5.809  17.984  0.00  0.00    +0.000 OA
ATOM      3  C   UNL     1       6.503   4.977  18.639  0.00  0.00    +0.000 C 
ATOM      4  O   UNL     1       7.698   5.217  18.756  0.00  0.00    +0.000 OA
ATOM      5  N   UNL     1       5.935   3.888  19.224  0.00  0.00    +0.000 N 
ATOM      6  C   UNL     1       4.587   3.571  19.141  0.00  0.00    +0.000 A 
ATOM      7  C   UNL     1       4.080   2.542  19.939  0.00  0.00    +0.000 A 
ATOM      8  C   UNL     1       2.732   2.200  19.839  0.00  0.00    +0.000 A 
ATOM      9  C   UNL     1       1.911   2.881  18.945  0.00  0.00    +0.000 A 
ATOM     10 CL   UNL     1       0.259   2.426  18.787  0.00  0.00    +0.000 Cl
ATOM     11  C   UNL     1       2.420   3.914  18.158  0.00  0.00    +0.000 A 
ATOM     12  C   UNL     1       3.775   4.278  18.251  0.00  0.00    +0.000 A 
ATOM     13  H   UNL     1       6.561   3.349  19.807  0.00  0.00    +0.000 HD
ENDROOT
BRANCH   1  15
ATOM     14  C   UNL     1       5.588   5.831  15.116  0.00  0.00    +0.000 C 
ATOM     15  C   UNL     1       4.804   4.859  15.985  0.00  0.00    +0.000 C 
ENDBRANCH   1  15
BRANCH   1  16
ATOM     16  C   UNL     1       3.514   6.634  17.326  0.00  0.00    +0.000 C 
BRANCH  16  17
ATOM     17  O   UNL     1       3.603   7.333  18.583  0.00  0.00    +0.000 OA
BRANCH  17  18
ATOM     18  C   UNL     1       2.388   7.718  19.058  0.00  0.00    +0.000 C 
ATOM     19  O   UNL     1       1.818   7.159  19.983  0.00  0.00    +0.000 OA
ATOM     20  N   UNL     1       1.996   8.837  18.379  0.00  0.00    +0.000 N 
ATOM     21  H   UNL     1       2.609   9.101  17.622  0.00  0.00    +0.000 HD
BRANCH  20  22
ATOM     22  C   UNL     1       0.900   9.660  18.672  0.00  0.00    +0.000 A 
ATOM     23  C   UNL     1       0.846  10.487  19.799  0.00  0.00    +0.000 A 
ATOM     24  C   UNL     1      -0.311  11.209  20.088  0.00  0.00    +0.000 A 
ATOM     25  C   UNL     1      -1.405  11.112  19.244  0.00  0.00    +0.000 A 
ATOM     26  F   UNL     1      -2.534  11.766  19.550  0.00  0.00    +0.000 F 
ATOM     27  C   UNL     1      -1.350  10.346  18.088  0.00  0.00    +0.000 A 
ATOM     28  C   UNL     1      -0.187   9.631  17.790  0.00  0.00    +0.000 A 
ENDBRANCH  20  22
ENDBRANCH  17  18
ENDBRANCH  16  17
ENDBRANCH   1  16
TORSDOF 5
ENDMDL
