MODEL 1
REMARK VINA RESULT:      -8.4      0.000      0.000
REMARK  Name = 
REMARK  4 active torsions:
REMARK  status: ('A' for Active; 'I' for Inactive)
REMARK    1  A    between atoms: C_1  and  O_2
REMARK    2  A    between atoms: O_2  and  C_3
REMARK    3  A    between atoms: C_8  and  C_9
REMARK    4  A    between atoms: C_12  and  C_13
REMARK                            x       y       z     vdW  Elec       q    Type
REMARK                         _______ _______ _______ _____ _____    ______ ____
ROOT
ATOM      1  C   UNL     1       4.423   3.476  18.572  0.00  0.00    +0.000 A 
ATOM      2  N   UNL     1       5.523   4.121  18.906  0.00  0.00    +0.000 NA
ATOM      3  C   UNL     1       6.122   4.468  17.723  0.00  0.00    +0.000 A 
ATOM      4  C   UNL     1       7.150   5.397  17.482  0.00  0.00    +0.000 A 
ATOM      5  C   UNL     1       7.512   5.656  16.154  0.00  0.00    +0.000 A 
ATOM      6  C   UNL     1       6.903   4.965  15.100  0.00  0.00    +0.000 A 
ATOM      7  C   UNL     1       5.891   4.020  15.328  0.00  0.00    +0.000 A 
ATOM      8  C   UNL     1       5.506   3.824  16.657  0.00  0.00    +0.000 A 
ATOM      9  N   UNL     1       4.490   3.103  17.246  0.00  0.00    +0.000 N 
ATOM     10  H   UNL     1       3.772   2.577  16.768  0.00  0.00    +0.000 HD
ENDROOT
BRANCH   1  16
ATOM     11  C   UNL     1       2.064   4.104  19.296  0.00  0.00    +0.000 A 
ATOM     12  C   UNL     1       1.073   4.030  20.286  0.00  0.00    +0.000 A 
ATOM     13  C   UNL     1       1.274   3.278  21.448  0.00  0.00    +0.000 A 
ATOM     14  C   UNL     1       2.443   2.555  21.613  0.00  0.00    +0.000 A 
ATOM     15  C   UNL     1       3.411   2.585  20.615  0.00  0.00    +0.000 A 
ATOM     16  C   UNL     1       3.250   3.365  19.449  0.00  0.00    +0.000 A 
BRANCH  11  18
ATOM     17  C   UNL     1       2.370   6.220  18.301  0.00  0.00    +0.000 C 
ATOM     18  O   UNL     1       1.917   4.875  18.164  0.00  0.00    +0.000 OA
ENDBRANCH  11  18
ENDBRANCH   1  16
BRANCH   4  19
ATOM     19  C   UNL     1       7.750   6.158  18.597  0.00  0.00    +0.000 C 
ATOM     20  N   UNL     1       7.920   5.505  19.785  0.00  0.00    +0.000 N 
ATOM     21  O   UNL     1       8.078   7.333  18.464  0.00  0.00    +0.000 OA
ATOM     22  H   UNL     1       7.476   4.597  19.927  0.00  0.00    +0.000 HD
ATOM     23  H   UNL     1       8.178   6.043  20.595  0.00  0.00    +0.000 HD
ENDBRANCH   4  19
TORSDOF 3
ENDMDL
MODEL 2
REMARK VINA RESULT:      -7.7      1.696      6.289
REMARK  Name = 
REMARK  4 active torsions:
REMARK  status: ('A' for Active; 'I' for Inactive)
REMARK    1  A    between atoms: C_1  and  O_2
REMARK    2  A    between atoms: O_2  and  C_3
REMARK    3  A    between atoms: C_8  and  C_9
REMARK    4  A    between atoms: C_12  and  C_13
REMARK                            x       y       z     vdW  Elec       q    Type
REMARK                         _______ _______ _______ _____ _____    ______ ____
ROOT
ATOM      1  C   UNL     1       4.918   4.514  17.749  0.00  0.00    +0.000 A 
ATOM      2  N   UNL     1       4.082   3.542  18.060  0.00  0.00    +0.000 NA
ATOM      3  C   UNL     1       3.170   4.098  18.917  0.00  0.00    +0.000 A 
ATOM      4  C   UNL     1       1.918   3.609  19.328  0.00  0.00    +0.000 A 
ATOM      5  C   UNL     1       1.115   4.429  20.132  0.00  0.00    +0.000 A 
ATOM      6  C   UNL     1       1.574   5.681  20.557  0.00  0.00    +0.000 A 
ATOM      7  C   UNL     1       2.831   6.172  20.172  0.00  0.00    +0.000 A 
ATOM      8  C   UNL     1       3.587   5.361  19.321  0.00  0.00    +0.000 A 
ATOM      9  N   UNL     1       4.770   5.553  18.644  0.00  0.00    +0.000 N 
ATOM     10  H   UNL     1       5.320   6.401  18.622  0.00  0.00    +0.000 HD
ENDROOT
BRANCH   1  16
ATOM     11  C   UNL     1       6.952   5.195  16.378  0.00  0.00    +0.000 A 
ATOM     12  C   UNL     1       7.550   5.273  15.112  0.00  0.00    +0.000 A 
ATOM     13  C   UNL     1       6.912   4.751  13.982  0.00  0.00    +0.000 A 
ATOM     14  C   UNL     1       5.694   4.104  14.110  0.00  0.00    +0.000 A 
ATOM     15  C   UNL     1       5.116   3.980  15.369  0.00  0.00    +0.000 A 
ATOM     16  C   UNL     1       5.721   4.531  16.520  0.00  0.00    +0.000 A 
BRANCH  11  18
ATOM     17  C   UNL     1       7.589   7.168  17.502  0.00  0.00    +0.000 C 
ATOM     18  O   UNL     1       7.531   5.743  17.501  0.00  0.00    +0.000 OA
ENDBRANCH  11  18
ENDBRANCH   1  16
BRANCH   4  19
ATOM     19  C   UNL     1       1.421   2.309  18.831  0.00  0.00    +0.000 C 
ATOM     20  N   UNL     1       2.331   1.300  18.690  0.00  0.00    +0.000 N 
ATOM     21  O   UNL     1       0.237   2.143  18.551  0.00  0.00    +0.000 OA
ATOM     22  H   UNL     1       3.327   1.511  18.751  0.00  0.00    +0.000 HD
ATOM     23  H   UNL     1       2.047   0.462  18.209  0.00  0.00    +0.000 HD
ENDBRANCH   4  19
TORSDOF 3
ENDMDL
MODEL 3
REMARK VINA RESULT:      -7.5      1.280      2.135
REMARK  Name = 
REMARK  4 active torsions:
REMARK  status: ('A' for Active; 'I' for Inactive)
REMARK    1  A    between atoms: C_1  and  O_2
REMARK    2  A    between atoms: O_2  and  C_3
REMARK    3  A    between atoms: C_8  and  C_9
REMARK    4  A    between atoms: C_12  and  C_13
REMARK                            x       y       z     vdW  Elec       q    Type
REMARK                         _______ _______ _______ _____ _____    ______ ____
ROOT
ATOM      1  C   UNL     1       4.529   3.518  18.708  0.00  0.00    +0.000 A 
ATOM      2  N   UNL     1       5.640   4.187  18.948  0.00  0.00    +0.000 NA
ATOM      3  C   UNL     1       6.118   4.565  17.721  0.00  0.00    +0.000 A 
ATOM      4  C   UNL     1       7.096   5.523  17.401  0.00  0.00    +0.000 A 
ATOM      5  C   UNL     1       7.328   5.808  16.049  0.00  0.00    +0.000 A 
ATOM      6  C   UNL     1       6.640   5.117  15.045  0.00  0.00    +0.000 A 
ATOM      7  C   UNL     1       5.677   4.142  15.351  0.00  0.00    +0.000 A 
ATOM      8  C   UNL     1       5.422   3.919  16.707  0.00  0.00    +0.000 A 
ATOM      9  N   UNL     1       4.483   3.165  17.376  0.00  0.00    +0.000 N 
ATOM     10  H   UNL     1       3.736   2.626  16.958  0.00  0.00    +0.000 HD
ENDROOT
BRANCH   1  16
ATOM     11  C   UNL     1       3.530   2.595  20.860  0.00  0.00    +0.000 A 
ATOM     12  C   UNL     1       2.380   2.396  21.638  0.00  0.00    +0.000 A 
ATOM     13  C   UNL     1       1.142   2.904  21.232  0.00  0.00    +0.000 A 
ATOM     14  C   UNL     1       1.046   3.656  20.073  0.00  0.00    +0.000 A 
ATOM     15  C   UNL     1       2.190   3.898  19.321  0.00  0.00    +0.000 A 
ATOM     16  C   UNL     1       3.446   3.366  19.687  0.00  0.00    +0.000 A 
BRANCH  11  18
ATOM     17  C   UNL     1       5.049   0.810  20.599  0.00  0.00    +0.000 C 
ATOM     18  O   UNL     1       4.753   2.066  21.206  0.00  0.00    +0.000 OA
ENDBRANCH  11  18
ENDBRANCH   1  16
BRANCH   4  19
ATOM     19  C   UNL     1       7.777   6.284  18.468  0.00  0.00    +0.000 C 
ATOM     20  N   UNL     1       8.071   5.621  19.625  0.00  0.00    +0.000 N 
ATOM     21  O   UNL     1       8.065   7.469  18.323  0.00  0.00    +0.000 OA
ATOM     22  H   UNL     1       7.663   4.701  19.794  0.00  0.00    +0.000 HD
ATOM     23  H   UNL     1       8.390   6.155  20.417  0.00  0.00    +0.000 HD
ENDBRANCH   4  19
TORSDOF 3
ENDMDL
MODEL 4
REMARK VINA RESULT:      -7.5      3.074      5.598
REMARK  Name = 
REMARK  4 active torsions:
REMARK  status: ('A' for Active; 'I' for Inactive)
REMARK    1  A    between atoms: C_1  and  O_2
REMARK    2  A    between atoms: O_2  and  C_3
REMARK    3  A    between atoms: C_8  and  C_9
REMARK    4  A    between atoms: C_12  and  C_13
REMARK                            x       y       z     vdW  Elec       q    Type
REMARK                         _______ _______ _______ _____ _____    ______ ____
ROOT
ATOM      1  C   UNL     1       2.227   6.603  19.995  0.00  0.00    +0.000 A 
ATOM      2  N   UNL     1       3.256   5.950  19.492  0.00  0.00    +0.000 NA
ATOM      3  C   UNL     1       2.933   4.622  19.583  0.00  0.00    +0.000 A 
ATOM      4  C   UNL     1       3.524   3.514  18.951  0.00  0.00    +0.000 A 
ATOM      5  C   UNL     1       2.930   2.257  19.121  0.00  0.00    +0.000 A 
ATOM      6  C   UNL     1       1.809   2.103  19.945  0.00  0.00    +0.000 A 
ATOM      7  C   UNL     1       1.222   3.197  20.600  0.00  0.00    +0.000 A 
ATOM      8  C   UNL     1       1.797   4.449  20.365  0.00  0.00    +0.000 A 
ATOM      9  N   UNL     1       1.433   5.732  20.711  0.00  0.00    +0.000 N 
ATOM     10  H   UNL     1       0.596   6.006  21.208  0.00  0.00    +0.000 HD
ENDROOT
BRANCH   1  16
ATOM     11  C   UNL     1       1.214   8.883  20.500  0.00  0.00    +0.000 A 
ATOM     12  C   UNL     1       0.827  10.139  20.009  0.00  0.00    +0.000 A 
ATOM     13  C   UNL     1       1.070  10.496  18.678  0.00  0.00    +0.000 A 
ATOM     14  C   UNL     1       1.743   9.625  17.838  0.00  0.00    +0.000 A 
ATOM     15  C   UNL     1       2.172   8.397  18.330  0.00  0.00    +0.000 A 
ATOM     16  C   UNL     1       1.907   7.996  19.658  0.00  0.00    +0.000 A 
BRANCH  11  18
ATOM     17  C   UNL     1       0.045   9.333  22.498  0.00  0.00    +0.000 C 
ATOM     18  O   UNL     1       0.944   8.483  21.789  0.00  0.00    +0.000 OA
ENDBRANCH  11  18
ENDBRANCH   1  16
BRANCH   4  19
ATOM     19  C   UNL     1       4.675   3.696  18.042  0.00  0.00    +0.000 C 
ATOM     20  N   UNL     1       5.889   3.960  18.609  0.00  0.00    +0.000 N 
ATOM     21  O   UNL     1       4.545   3.617  16.824  0.00  0.00    +0.000 OA
ATOM     22  H   UNL     1       5.938   4.202  19.599  0.00  0.00    +0.000 HD
ATOM     23  H   UNL     1       6.647   4.240  18.009  0.00  0.00    +0.000 HD
ENDBRANCH   4  19
TORSDOF 3
ENDMDL
MODEL 5
REMARK VINA RESULT:      -7.5      1.067      1.080
REMARK  Name = 
REMARK  4 active torsions:
REMARK  status: ('A' for Active; 'I' for Inactive)
REMARK    1  A    between atoms: C_1  and  O_2
REMARK    2  A    between atoms: O_2  and  C_3
REMARK    3  A    between atoms: C_8  and  C_9
REMARK    4  A    between atoms: C_12  and  C_13
REMARK                            x       y       z     vdW  Elec       q    Type
REMARK                         _______ _______ _______ _____ _____    ______ ____
ROOT
ATOM      1  C   UNL     1       4.454   3.832  18.256  0.00  0.00    +0.000 A 
ATOM      2  N   UNL     1       5.473   4.657  18.392  0.00  0.00    +0.000 NA
ATOM      3  C   UNL     1       6.040   4.754  17.149  0.00  0.00    +0.000 A 
ATOM      4  C   UNL     1       6.961   5.697  16.659  0.00  0.00    +0.000 A 
ATOM      5  C   UNL     1       7.304   5.647  15.301  0.00  0.00    +0.000 A 
ATOM      6  C   UNL     1       6.783   4.648  14.470  0.00  0.00    +0.000 A 
ATOM      7  C   UNL     1       5.880   3.687  14.952  0.00  0.00    +0.000 A 
ATOM      8  C   UNL     1       5.508   3.796  16.294  0.00  0.00    +0.000 A 
ATOM      9  N   UNL     1       4.573   3.143  17.067  0.00  0.00    +0.000 N 
ATOM     10  H   UNL     1       3.922   2.437  16.753  0.00  0.00    +0.000 HD
ENDROOT
BRANCH   1  16
ATOM     11  C   UNL     1       2.809   4.943  19.850  0.00  0.00    +0.000 A 
ATOM     12  C   UNL     1       1.793   4.778  20.802  0.00  0.00    +0.000 A 
ATOM     13  C   UNL     1       1.296   3.507  21.110  0.00  0.00    +0.000 A 
ATOM     14  C   UNL     1       1.773   2.394  20.438  0.00  0.00    +0.000 A 
ATOM     15  C   UNL     1       2.748   2.554  19.459  0.00  0.00    +0.000 A 
ATOM     16  C   UNL     1       3.293   3.821  19.155  0.00  0.00    +0.000 A 
BRANCH  11  18
ATOM     17  C   UNL     1       2.496   7.045  18.827  0.00  0.00    +0.000 C 
ATOM     18  O   UNL     1       3.354   6.174  19.562  0.00  0.00    +0.000 OA
ENDBRANCH  11  18
ENDBRANCH   1  16
BRANCH   4  19
ATOM     19  C   UNL     1       7.463   6.778  17.531  0.00  0.00    +0.000 C 
ATOM     20  N   UNL     1       7.916   6.426  18.772  0.00  0.00    +0.000 N 
ATOM     21  O   UNL     1       7.470   7.948  17.160  0.00  0.00    +0.000 OA
ATOM     22  H   UNL     1       7.732   5.487  19.125  0.00  0.00    +0.000 HD
ATOM     23  H   UNL     1       8.114   7.157  19.435  0.00  0.00    +0.000 HD
ENDBRANCH   4  19
TORSDOF 3
ENDMDL
MODEL 6
REMARK VINA RESULT:      -7.3      2.006      5.874
REMARK  Name = 
REMARK  4 active torsions:
REMARK  status: ('A' for Active; 'I' for Inactive)
REMARK    1  A    between atoms: C_1  and  O_2
REMARK    2  A    between atoms: O_2  and  C_3
REMARK    3  A    between atoms: C_8  and  C_9
REMARK    4  A    between atoms: C_12  and  C_13
REMARK                            x       y       z     vdW  Elec       q    Type
REMARK                         _______ _______ _______ _____ _____    ______ ____
ROOT
ATOM      1  C   UNL     1       3.893   4.008  17.225  0.00  0.00    +0.000 A 
ATOM      2  N   UNL     1       3.241   5.005  17.789  0.00  0.00    +0.000 NA
ATOM      3  C   UNL     1       2.489   4.439  18.785  0.00  0.00    +0.000 A 
ATOM      4  C   UNL     1       1.836   5.053  19.868  0.00  0.00    +0.000 A 
ATOM      5  C   UNL     1       1.221   4.234  20.824  0.00  0.00    +0.000 A 
ATOM      6  C   UNL     1       1.212   2.843  20.671  0.00  0.00    +0.000 A 
ATOM      7  C   UNL     1       1.841   2.218  19.583  0.00  0.00    +0.000 A 
ATOM      8  C   UNL     1       2.499   3.054  18.677  0.00  0.00    +0.000 A 
ATOM      9  N   UNL     1       3.316   2.810  17.595  0.00  0.00    +0.000 N 
ATOM     10  H   UNL     1       3.629   1.906  17.269  0.00  0.00    +0.000 HD
ENDROOT
BRANCH   1  16
ATOM     11  C   UNL     1       6.401   4.417  17.077  0.00  0.00    +0.000 A 
ATOM     12  C   UNL     1       7.503   4.718  16.263  0.00  0.00    +0.000 A 
ATOM     13  C   UNL     1       7.360   4.838  14.877  0.00  0.00    +0.000 A 
ATOM     14  C   UNL     1       6.129   4.612  14.284  0.00  0.00    +0.000 A 
ATOM     15  C   UNL     1       5.042   4.267  15.079  0.00  0.00    +0.000 A 
ATOM     16  C   UNL     1       5.150   4.176  16.484  0.00  0.00    +0.000 A 
BRANCH  11  18
ATOM     17  C   UNL     1       6.815   5.575  19.090  0.00  0.00    +0.000 C 
ATOM     18  O   UNL     1       6.499   4.341  18.448  0.00  0.00    +0.000 OA
ENDBRANCH  11  18
ENDBRANCH   1  16
BRANCH   4  19
ATOM     19  C   UNL     1       1.897   6.519  20.047  0.00  0.00    +0.000 C 
ATOM     20  N   UNL     1       2.495   7.249  19.060  0.00  0.00    +0.000 N 
ATOM     21  O   UNL     1       1.433   7.059  21.047  0.00  0.00    +0.000 OA
ATOM     22  H   UNL     1       3.032   6.770  18.337  0.00  0.00    +0.000 HD
ATOM     23  H   UNL     1       2.686   8.223  19.233  0.00  0.00    +0.000 HD
ENDBRANCH   4  19
TORSDOF 3
ENDMDL
MODEL 7
REMARK VINA RESULT:      -7.3      1.347      1.892
REMARK  Name = 
REMARK  4 active torsions:
REMARK  status: ('A' for Active; 'I' for Inactive)
REMARK    1  A    between atoms: C_1  and  O_2
REMARK    2  A    between atoms: O_2  and  C_3
REMARK    3  A    between atoms: C_8  and  C_9
REMARK    4  A    between atoms: C_12  and  C_13
REMARK                            x       y       z     vdW  Elec       q    Type
REMARK                         _______ _______ _______ _____ _____    ______ ____
ROOT
ATOM      1  C   UNL     1       4.545   3.998  18.239  0.00  0.00    +0.000 A 
ATOM      2  N   UNL     1       5.557   4.828  18.405  0.00  0.00    +0.000 NA
ATOM      3  C   UNL     1       6.152   4.937  17.176  0.00  0.00    +0.000 A 
ATOM      4  C   UNL     1       7.078   5.889  16.715  0.00  0.00    +0.000 A 
ATOM      5  C   UNL     1       7.453   5.851  15.366  0.00  0.00    +0.000 A 
ATOM      6  C   UNL     1       6.958   4.856  14.515  0.00  0.00    +0.000 A 
ATOM      7  C   UNL     1       6.050   3.886  14.968  0.00  0.00    +0.000 A 
ATOM      8  C   UNL     1       5.646   3.983  16.302  0.00  0.00    +0.000 A 
ATOM      9  N   UNL     1       4.697   3.319  17.048  0.00  0.00    +0.000 N 
ATOM     10  H   UNL     1       4.057   2.611  16.715  0.00  0.00    +0.000 HD
ENDROOT
BRANCH   1  16
ATOM     11  C   UNL     1       2.409   2.943  19.136  0.00  0.00    +0.000 A 
ATOM     12  C   UNL     1       1.241   3.104  19.895  0.00  0.00    +0.000 A 
ATOM     13  C   UNL     1       0.988   4.297  20.579  0.00  0.00    +0.000 A 
ATOM     14  C   UNL     1       1.918   5.323  20.553  0.00  0.00    +0.000 A 
ATOM     15  C   UNL     1       3.100   5.153  19.841  0.00  0.00    +0.000 A 
ATOM     16  C   UNL     1       3.364   3.974  19.111  0.00  0.00    +0.000 A 
BRANCH  11  18
ATOM     17  C   UNL     1       3.629   0.929  18.996  0.00  0.00    +0.000 C 
ATOM     18  O   UNL     1       2.664   1.800  18.411  0.00  0.00    +0.000 OA
ENDBRANCH  11  18
ENDBRANCH   1  16
BRANCH   4  19
ATOM     19  C   UNL     1       7.554   6.966  17.607  0.00  0.00    +0.000 C 
ATOM     20  N   UNL     1       8.042   6.601  18.830  0.00  0.00    +0.000 N 
ATOM     21  O   UNL     1       7.509   8.145  17.266  0.00  0.00    +0.000 OA
ATOM     22  H   UNL     1       7.900   5.647  19.162  0.00  0.00    +0.000 HD
ATOM     23  H   UNL     1       8.223   7.322  19.509  0.00  0.00    +0.000 HD
ENDBRANCH   4  19
TORSDOF 3
ENDMDL
MODEL 8
REMARK VINA RESULT:      -7.2      3.712      5.816
REMARK  Name = 
REMARK  4 active torsions:
REMARK  status: ('A' for Active; 'I' for Inactive)
REMARK    1  A    between atoms: C_1  and  O_2
REMARK    2  A    between atoms: O_2  and  C_3
REMARK    3  A    between atoms: C_8  and  C_9
REMARK    4  A    between atoms: C_12  and  C_13
REMARK                            x       y       z     vdW  Elec       q    Type
REMARK                         _______ _______ _______ _____ _____    ______ ____
ROOT
ATOM      1  C   UNL     1       2.273   6.244  19.276  0.00  0.00    +0.000 A 
ATOM      2  N   UNL     1       1.962   6.953  20.344  0.00  0.00    +0.000 NA
ATOM      3  C   UNL     1       1.720   8.222  19.888  0.00  0.00    +0.000 A 
ATOM      4  C   UNL     1       1.084   9.296  20.534  0.00  0.00    +0.000 A 
ATOM      5  C   UNL     1       0.856  10.470  19.803  0.00  0.00    +0.000 A 
ATOM      6  C   UNL     1       1.300  10.585  18.481  0.00  0.00    +0.000 A 
ATOM      7  C   UNL     1       1.956   9.528  17.831  0.00  0.00    +0.000 A 
ATOM      8  C   UNL     1       2.117   8.348  18.562  0.00  0.00    +0.000 A 
ATOM      9  N   UNL     1       2.576   7.092  18.231  0.00  0.00    +0.000 N 
ATOM     10  H   UNL     1       2.866   6.780  17.315  0.00  0.00    +0.000 HD
ENDROOT
BRANCH   1  16
ATOM     11  C   UNL     1       2.609   3.985  18.152  0.00  0.00    +0.000 A 
ATOM     12  C   UNL     1       2.265   2.626  18.105  0.00  0.00    +0.000 A 
ATOM     13  C   UNL     1       1.394   2.073  19.050  0.00  0.00    +0.000 A 
ATOM     14  C   UNL     1       0.898   2.856  20.078  0.00  0.00    +0.000 A 
ATOM     15  C   UNL     1       1.272   4.193  20.160  0.00  0.00    +0.000 A 
ATOM     16  C   UNL     1       2.119   4.786  19.198  0.00  0.00    +0.000 A 
BRANCH  11  18
ATOM     17  C   UNL     1       4.715   3.978  17.090  0.00  0.00    +0.000 C 
ATOM     18  O   UNL     1       3.423   4.570  17.209  0.00  0.00    +0.000 OA
ENDBRANCH  11  18
ENDBRANCH   1  16
BRANCH   4  19
ATOM     19  C   UNL     1       0.572   9.146  21.912  0.00  0.00    +0.000 C 
ATOM     20  N   UNL     1      -0.586   8.442  22.080  0.00  0.00    +0.000 N 
ATOM     21  O   UNL     1       1.162   9.639  22.869  0.00  0.00    +0.000 OA
ATOM     22  H   UNL     1      -1.150   8.203  21.264  0.00  0.00    +0.000 HD
ATOM     23  H   UNL     1      -1.032   8.460  22.982  0.00  0.00    +0.000 HD
ENDBRANCH   4  19
TORSDOF 3
ENDMDL
MODEL 9
REMARK VINA RESULT:      -7.1      4.294      6.514
REMARK  Name = 
REMARK  4 active torsions:
REMARK  status: ('A' for Active; 'I' for Inactive)
REMARK    1  A    between atoms: C_1  and  O_2
REMARK    2  A    between atoms: O_2  and  C_3
REMARK    3  A    between atoms: C_8  and  C_9
REMARK    4  A    between atoms: C_12  and  C_13
REMARK                            x       y       z     vdW  Elec       q    Type
REMARK                         _______ _______ _______ _____ _____    ______ ____
ROOT
ATOM      1  C   UNL     1       2.122   7.047  19.942  0.00  0.00    +0.000 A 
ATOM      2  N   UNL     1       1.654   7.791  20.925  0.00  0.00    +0.000 NA
ATOM      3  C   UNL     1       1.137   8.911  20.329  0.00  0.00    +0.000 A 
ATOM      4  C   UNL     1       0.273   9.885  20.858  0.00  0.00    +0.000 A 
ATOM      5  C   UNL     1      -0.208  10.883  20.001  0.00  0.00    +0.000 A 
ATOM      6  C   UNL     1       0.207  10.937  18.665  0.00  0.00    +0.000 A 
ATOM      7  C   UNL     1       1.086   9.983  18.129  0.00  0.00    +0.000 A 
ATOM      8  C   UNL     1       1.503   8.964  18.989  0.00  0.00    +0.000 A 
ATOM      9  N   UNL     1       2.233   7.811  18.798  0.00  0.00    +0.000 N 
ATOM     10  H   UNL     1       2.591   7.465  17.919  0.00  0.00    +0.000 HD
ENDROOT
BRANCH   1  16
ATOM     11  C   UNL     1       3.359   4.876  19.456  0.00  0.00    +0.000 A 
ATOM     12  C   UNL     1       3.337   3.474  19.481  0.00  0.00    +0.000 A 
ATOM     13  C   UNL     1       2.249   2.781  20.022  0.00  0.00    +0.000 A 
ATOM     14  C   UNL     1       1.195   3.479  20.588  0.00  0.00    +0.000 A 
ATOM     15  C   UNL     1       1.231   4.869  20.611  0.00  0.00    +0.000 A 
ATOM     16  C   UNL     1       2.299   5.593  20.038  0.00  0.00    +0.000 A 
BRANCH  11  18
ATOM     17  C   UNL     1       4.661   5.250  17.526  0.00  0.00    +0.000 C 
ATOM     18  O   UNL     1       4.391   5.586  18.885  0.00  0.00    +0.000 OA
ENDBRANCH  11  18
ENDBRANCH   1  16
BRANCH   4  19
ATOM     19  C   UNL     1      -0.199   9.790  22.255  0.00  0.00    +0.000 C 
ATOM     20  N   UNL     1      -0.696   8.587  22.670  0.00  0.00    +0.000 N 
ATOM     21  O   UNL     1      -0.152  10.754  23.013  0.00  0.00    +0.000 OA
ATOM     22  H   UNL     1      -0.895   7.862  21.981  0.00  0.00    +0.000 HD
ATOM     23  H   UNL     1      -1.164   8.543  23.561  0.00  0.00    +0.000 HD
ENDBRANCH   4  19
TORSDOF 3
ENDMDL
