MODEL 1
REMARK VINA RESULT:      -8.2      0.000      0.000
REMARK  Name = 
REMARK  4 active torsions:
REMARK  status: ('A' for Active; 'I' for Inactive)
REMARK    1  A    between atoms: C_1  and  O_2
REMARK    2  A    between atoms: O_2  and  C_3
REMARK    3  A    between atoms: N_7  and  C_8
REMARK    4  A    between atoms: C_10  and  C_11
REMARK                            x       y       z     vdW  Elec       q    Type
REMARK                         _______ _______ _______ _____ _____    ______ ____
ROOT
ATOM      1  C   UNL     1       5.667   4.064  16.243  0.00  0.00    +0.000 A 
ATOM      2  N   UNL     1       6.134   4.895  17.191  0.00  0.00    +0.000 NA
ATOM      3  C   UNL     1       7.074   5.775  16.837  0.00  0.00    +0.000 A 
ATOM      4  C   UNL     1       7.612   6.670  17.907  0.00  0.00    +0.000 C 
ATOM      5  N   UNL     1       7.578   5.898  15.602  0.00  0.00    +0.000 NA
ATOM      6  C   UNL     1       7.074   5.098  14.657  0.00  0.00    +0.000 A 
ATOM      7  C   UNL     1       7.629   5.161  13.386  0.00  0.00    +0.000 A 
ATOM      8  C   UNL     1       7.159   4.368  12.336  0.00  0.00    +0.000 A 
ATOM      9  C   UNL     1       6.088   3.511  12.546  0.00  0.00    +0.000 A 
ATOM     10  C   UNL     1       5.535   3.408  13.822  0.00  0.00    +0.000 A 
ATOM     11  C   UNL     1       6.046   4.180  14.898  0.00  0.00    +0.000 A 
ENDROOT
BRANCH   1  16
ATOM     12  C   UNL     1       1.916   3.276  19.564  0.00  0.00    +0.000 A 
ATOM     13  C   UNL     1       1.881   2.362  18.535  0.00  0.00    +0.000 A 
ATOM     14  N   UNL     1       2.817   2.267  17.561  0.00  0.00    +0.000 NA
ATOM     15  C   UNL     1       3.836   3.141  17.620  0.00  0.00    +0.000 A 
ATOM     16  N   UNL     1       4.830   3.015  16.654  0.00  0.00    +0.000 N 
ATOM     17  N   UNL     1       3.962   4.058  18.596  0.00  0.00    +0.000 NA
ATOM     18  C   UNL     1       2.993   4.123  19.527  0.00  0.00    +0.000 A 
ATOM     19  H   UNL     1       4.554   2.375  15.928  0.00  0.00    +0.000 HD
BRANCH  12  21
ATOM     20  C   UNL     1       1.315   2.725  21.765  0.00  0.00    +0.000 C 
ATOM     21  O   UNL     1       1.016   3.436  20.568  0.00  0.00    +0.000 OA
ENDBRANCH  12  21
ENDBRANCH   1  16
TORSDOF 2
ENDMDL
MODEL 2
REMARK VINA RESULT:      -8.2      3.821      5.433
REMARK  Name = 
REMARK  4 active torsions:
REMARK  status: ('A' for Active; 'I' for Inactive)
REMARK    1  A    between atoms: C_1  and  O_2
REMARK    2  A    between atoms: O_2  and  C_3
REMARK    3  A    between atoms: N_7  and  C_8
REMARK    4  A    between atoms: C_10  and  C_11
REMARK                            x       y       z     vdW  Elec       q    Type
REMARK                         _______ _______ _______ _____ _____    ______ ____
ROOT
ATOM      1  C   UNL     1       4.113   5.813  17.864  0.00  0.00    +0.000 A 
ATOM      2  N   UNL     1       5.363   6.175  18.199  0.00  0.00    +0.000 NA
ATOM      3  C   UNL     1       6.112   5.286  18.856  0.00  0.00    +0.000 A 
ATOM      4  C   UNL     1       7.489   5.712  19.255  0.00  0.00    +0.000 C 
ATOM      5  N   UNL     1       5.712   4.054  19.196  0.00  0.00    +0.000 NA
ATOM      6  C   UNL     1       4.482   3.688  18.819  0.00  0.00    +0.000 A 
ATOM      7  C   UNL     1       4.022   2.441  19.219  0.00  0.00    +0.000 A 
ATOM      8  C   UNL     1       2.755   1.973  18.863  0.00  0.00    +0.000 A 
ATOM      9  C   UNL     1       1.934   2.752  18.059  0.00  0.00    +0.000 A 
ATOM     10  C   UNL     1       2.363   4.022  17.671  0.00  0.00    +0.000 A 
ATOM     11  C   UNL     1       3.631   4.513  18.075  0.00  0.00    +0.000 A 
ENDROOT
BRANCH   1  16
ATOM     12  C   UNL     1       1.136   9.531  19.608  0.00  0.00    +0.000 A 
ATOM     13  C   UNL     1       1.522   9.759  18.307  0.00  0.00    +0.000 A 
ATOM     14  N   UNL     1       2.232   8.888  17.552  0.00  0.00    +0.000 NA
ATOM     15  C   UNL     1       2.580   7.730  18.139  0.00  0.00    +0.000 A 
ATOM     16  N   UNL     1       3.264   6.807  17.353  0.00  0.00    +0.000 N 
ATOM     17  N   UNL     1       2.235   7.412  19.399  0.00  0.00    +0.000 NA
ATOM     18  C   UNL     1       1.547   8.323  20.111  0.00  0.00    +0.000 A 
ATOM     19  H   UNL     1       3.554   7.215  16.481  0.00  0.00    +0.000 HD
BRANCH  12  21
ATOM     20  C   UNL     1      -0.040   9.751  21.626  0.00  0.00    +0.000 C 
ATOM     21  O   UNL     1       0.432  10.354  20.426  0.00  0.00    +0.000 OA
ENDBRANCH  12  21
ENDBRANCH   1  16
TORSDOF 2
ENDMDL
MODEL 3
REMARK VINA RESULT:      -8.1      2.994      6.488
REMARK  Name = 
REMARK  4 active torsions:
REMARK  status: ('A' for Active; 'I' for Inactive)
REMARK    1  A    between atoms: C_1  and  O_2
REMARK    2  A    between atoms: O_2  and  C_3
REMARK    3  A    between atoms: N_7  and  C_8
REMARK    4  A    between atoms: C_10  and  C_11
REMARK                            x       y       z     vdW  Elec       q    Type
REMARK                         _______ _______ _______ _____ _____    ______ ____
ROOT
ATOM      1  C   UNL     1       4.785   5.865  17.994  0.00  0.00    +0.000 A 
ATOM      2  N   UNL     1       4.173   7.028  17.715  0.00  0.00    +0.000 NA
ATOM      3  C   UNL     1       2.919   7.189  18.148  0.00  0.00    +0.000 A 
ATOM      4  C   UNL     1       2.234   8.472  17.800  0.00  0.00    +0.000 C 
ATOM      5  N   UNL     1       2.232   6.280  18.851  0.00  0.00    +0.000 NA
ATOM      6  C   UNL     1       2.867   5.145  19.162  0.00  0.00    +0.000 A 
ATOM      7  C   UNL     1       2.153   4.161  19.832  0.00  0.00    +0.000 A 
ATOM      8  C   UNL     1       2.738   2.948  20.205  0.00  0.00    +0.000 A 
ATOM      9  C   UNL     1       4.080   2.719  19.934  0.00  0.00    +0.000 A 
ATOM     10  C   UNL     1       4.810   3.681  19.234  0.00  0.00    +0.000 A 
ATOM     11  C   UNL     1       4.198   4.891  18.815  0.00  0.00    +0.000 A 
ENDROOT
BRANCH   1  16
ATOM     12  C   UNL     1       6.535   4.209  13.531  0.00  0.00    +0.000 A 
ATOM     13  C   UNL     1       7.476   4.963  14.195  0.00  0.00    +0.000 A 
ATOM     14  N   UNL     1       7.324   5.448  15.451  0.00  0.00    +0.000 NA
ATOM     15  C   UNL     1       6.163   5.168  16.066  0.00  0.00    +0.000 A 
ATOM     16  N   UNL     1       6.021   5.617  17.376  0.00  0.00    +0.000 N 
ATOM     17  N   UNL     1       5.192   4.427  15.503  0.00  0.00    +0.000 NA
ATOM     18  C   UNL     1       5.386   3.987  14.246  0.00  0.00    +0.000 A 
ATOM     19  H   UNL     1       6.763   6.248  17.627  0.00  0.00    +0.000 HD
BRANCH  12  21
ATOM     20  C   UNL     1       5.501   2.896  11.884  0.00  0.00    +0.000 C 
ATOM     21  O   UNL     1       6.611   3.696  12.277  0.00  0.00    +0.000 OA
ENDBRANCH  12  21
ENDBRANCH   1  16
TORSDOF 2
ENDMDL
MODEL 4
REMARK VINA RESULT:      -8.0      4.138      6.276
REMARK  Name = 
REMARK  4 active torsions:
REMARK  status: ('A' for Active; 'I' for Inactive)
REMARK    1  A    between atoms: C_1  and  O_2
REMARK    2  A    between atoms: O_2  and  C_3
REMARK    3  A    between atoms: N_7  and  C_8
REMARK    4  A    between atoms: C_10  and  C_11
REMARK                            x       y       z     vdW  Elec       q    Type
REMARK                         _______ _______ _______ _____ _____    ______ ____
ROOT
ATOM      1  C   UNL     1       3.124   5.778  18.655  0.00  0.00    +0.000 A 
ATOM      2  N   UNL     1       4.088   6.072  17.767  0.00  0.00    +0.000 NA
ATOM      3  C   UNL     1       4.476   5.107  16.929  0.00  0.00    +0.000 A 
ATOM      4  C   UNL     1       5.575   5.434  15.968  0.00  0.00    +0.000 C 
ATOM      5  N   UNL     1       3.964   3.870  16.901  0.00  0.00    +0.000 NA
ATOM      6  C   UNL     1       2.974   3.601  17.758  0.00  0.00    +0.000 A 
ATOM      7  C   UNL     1       2.475   2.307  17.793  0.00  0.00    +0.000 A 
ATOM      8  C   UNL     1       1.435   1.939  18.650  0.00  0.00    +0.000 A 
ATOM      9  C   UNL     1       0.852   2.893  19.474  0.00  0.00    +0.000 A 
ATOM     10  C   UNL     1       1.358   4.193  19.479  0.00  0.00    +0.000 A 
ATOM     11  C   UNL     1       2.446   4.550  18.641  0.00  0.00    +0.000 A 
ENDROOT
BRANCH   1  16
ATOM     12  C   UNL     1       0.591  10.139  19.195  0.00  0.00    +0.000 A 
ATOM     13  C   UNL     1       0.762   9.500  20.402  0.00  0.00    +0.000 A 
ATOM     14  N   UNL     1       1.488   8.370  20.576  0.00  0.00    +0.000 NA
ATOM     15  C   UNL     1       2.065   7.851  19.479  0.00  0.00    +0.000 A 
ATOM     16  N   UNL     1       2.856   6.721  19.660  0.00  0.00    +0.000 N 
ATOM     17  N   UNL     1       1.967   8.413  18.261  0.00  0.00    +0.000 NA
ATOM     18  C   UNL     1       1.216   9.523  18.140  0.00  0.00    +0.000 A 
ATOM     19  H   UNL     1       2.748   6.344  20.587  0.00  0.00    +0.000 HD
BRANCH  12  21
ATOM     20  C   UNL     1      -1.537  11.104  18.979  0.00  0.00    +0.000 C 
ATOM     21  O   UNL     1      -0.123  11.265  18.940  0.00  0.00    +0.000 OA
ENDBRANCH  12  21
ENDBRANCH   1  16
TORSDOF 2
ENDMDL
MODEL 5
REMARK VINA RESULT:      -7.9      3.038      6.491
REMARK  Name = 
REMARK  4 active torsions:
REMARK  status: ('A' for Active; 'I' for Inactive)
REMARK    1  A    between atoms: C_1  and  O_2
REMARK    2  A    between atoms: O_2  and  C_3
REMARK    3  A    between atoms: N_7  and  C_8
REMARK    4  A    between atoms: C_10  and  C_11
REMARK                            x       y       z     vdW  Elec       q    Type
REMARK                         _______ _______ _______ _____ _____    ______ ____
ROOT
ATOM      1  C   UNL     1       5.221   4.769  18.236  0.00  0.00    +0.000 A 
ATOM      2  N   UNL     1       5.167   3.637  18.956  0.00  0.00    +0.000 NA
ATOM      3  C   UNL     1       4.176   3.511  19.843  0.00  0.00    +0.000 A 
ATOM      4  C   UNL     1       4.146   2.262  20.665  0.00  0.00    +0.000 C 
ATOM      5  N   UNL     1       3.224   4.428  20.057  0.00  0.00    +0.000 NA
ATOM      6  C   UNL     1       3.261   5.532  19.303  0.00  0.00    +0.000 A 
ATOM      7  C   UNL     1       2.325   6.525  19.555  0.00  0.00    +0.000 A 
ATOM      8  C   UNL     1       2.284   7.707  18.810  0.00  0.00    +0.000 A 
ATOM      9  C   UNL     1       3.178   7.893  17.765  0.00  0.00    +0.000 A 
ATOM     10  C   UNL     1       4.148   6.922  17.514  0.00  0.00    +0.000 A 
ATOM     11  C   UNL     1       4.217   5.745  18.303  0.00  0.00    +0.000 A 
ENDROOT
BRANCH   1  16
ATOM     12  C   UNL     1       6.693   4.186  13.417  0.00  0.00    +0.000 A 
ATOM     13  C   UNL     1       7.452   5.133  14.067  0.00  0.00    +0.000 A 
ATOM     14  N   UNL     1       7.352   5.423  15.386  0.00  0.00    +0.000 NA
ATOM     15  C   UNL     1       6.437   4.732  16.086  0.00  0.00    +0.000 A 
ATOM     16  N   UNL     1       6.366   4.987  17.452  0.00  0.00    +0.000 N 
ATOM     17  N   UNL     1       5.662   3.777  15.541  0.00  0.00    +0.000 NA
ATOM     18  C   UNL     1       5.787   3.543  14.222  0.00  0.00    +0.000 A 
ATOM     19  H   UNL     1       6.912   5.794  17.701  0.00  0.00    +0.000 HD
BRANCH  12  21
ATOM     20  C   UNL     1       5.893   2.752  11.741  0.00  0.00    +0.000 C 
ATOM     21  O   UNL     1       6.731   3.844  12.104  0.00  0.00    +0.000 OA
ENDBRANCH  12  21
ENDBRANCH   1  16
TORSDOF 2
ENDMDL
MODEL 6
REMARK VINA RESULT:      -7.7      1.481      1.781
REMARK  Name = 
REMARK  4 active torsions:
REMARK  status: ('A' for Active; 'I' for Inactive)
REMARK    1  A    between atoms: C_1  and  O_2
REMARK    2  A    between atoms: O_2  and  C_3
REMARK    3  A    between atoms: N_7  and  C_8
REMARK    4  A    between atoms: C_10  and  C_11
REMARK                            x       y       z     vdW  Elec       q    Type
REMARK                         _______ _______ _______ _____ _____    ______ ____
ROOT
ATOM      1  C   UNL     1       6.568   5.014  17.954  0.00  0.00    +0.000 A 
ATOM      2  N   UNL     1       7.092   6.159  18.424  0.00  0.00    +0.000 NA
ATOM      3  C   UNL     1       7.582   7.028  17.536  0.00  0.00    +0.000 A 
ATOM      4  C   UNL     1       8.195   8.283  18.072  0.00  0.00    +0.000 C 
ATOM      5  N   UNL     1       7.579   6.847  16.209  0.00  0.00    +0.000 NA
ATOM      6  C   UNL     1       7.015   5.725  15.750  0.00  0.00    +0.000 A 
ATOM      7  C   UNL     1       7.061   5.484  14.384  0.00  0.00    +0.000 A 
ATOM      8  C   UNL     1       6.489   4.343  13.815  0.00  0.00    +0.000 A 
ATOM      9  C   UNL     1       5.825   3.431  14.623  0.00  0.00    +0.000 A 
ATOM     10  C   UNL     1       5.793   3.636  16.003  0.00  0.00    +0.000 A 
ATOM     11  C   UNL     1       6.417   4.772  16.581  0.00  0.00    +0.000 A 
ENDROOT
BRANCH   1  16
ATOM     12  C   UNL     1       2.461   3.328  20.405  0.00  0.00    +0.000 A 
ATOM     13  C   UNL     1       3.437   2.361  20.329  0.00  0.00    +0.000 A 
ATOM     14  N   UNL     1       4.677   2.561  19.823  0.00  0.00    +0.000 NA
ATOM     15  C   UNL     1       4.946   3.793  19.361  0.00  0.00    +0.000 A 
ATOM     16  N   UNL     1       6.235   4.021  18.888  0.00  0.00    +0.000 N 
ATOM     17  N   UNL     1       4.061   4.805  19.407  0.00  0.00    +0.000 NA
ATOM     18  C   UNL     1       2.837   4.547  19.901  0.00  0.00    +0.000 A 
ATOM     19  H   UNL     1       6.750   3.160  18.804  0.00  0.00    +0.000 HD
BRANCH  12  21
ATOM     20  C   UNL     1       1.094   2.502  22.126  0.00  0.00    +0.000 C 
ATOM     21  O   UNL     1       1.199   3.203  20.891  0.00  0.00    +0.000 OA
ENDBRANCH  12  21
ENDBRANCH   1  16
TORSDOF 2
ENDMDL
MODEL 7
REMARK VINA RESULT:      -7.5      4.013      5.876
REMARK  Name = 
REMARK  4 active torsions:
REMARK  status: ('A' for Active; 'I' for Inactive)
REMARK    1  A    between atoms: C_1  and  O_2
REMARK    2  A    between atoms: O_2  and  C_3
REMARK    3  A    between atoms: N_7  and  C_8
REMARK    4  A    between atoms: C_10  and  C_11
REMARK                            x       y       z     vdW  Elec       q    Type
REMARK                         _______ _______ _______ _____ _____    ______ ____
ROOT
ATOM      1  C   UNL     1       2.929   5.333  19.175  0.00  0.00    +0.000 A 
ATOM      2  N   UNL     1       1.995   4.378  19.323  0.00  0.00    +0.000 NA
ATOM      3  C   UNL     1       1.985   3.377  18.439  0.00  0.00    +0.000 A 
ATOM      4  C   UNL     1       0.919   2.338  18.591  0.00  0.00    +0.000 C 
ATOM      5  N   UNL     1       2.847   3.249  17.422  0.00  0.00    +0.000 NA
ATOM      6  C   UNL     1       3.800   4.180  17.311  0.00  0.00    +0.000 A 
ATOM      7  C   UNL     1       4.663   4.104  16.227  0.00  0.00    +0.000 A 
ATOM      8  C   UNL     1       5.693   5.029  16.036  0.00  0.00    +0.000 A 
ATOM      9  C   UNL     1       5.892   6.038  16.968  0.00  0.00    +0.000 A 
ATOM     10  C   UNL     1       5.019   6.153  18.049  0.00  0.00    +0.000 A 
ATOM     11  C   UNL     1       3.944   5.240  18.213  0.00  0.00    +0.000 A 
ENDROOT
BRANCH   1  16
ATOM     12  C   UNL     1       0.752   9.910  18.977  0.00  0.00    +0.000 A 
ATOM     13  C   UNL     1       0.989   9.518  20.274  0.00  0.00    +0.000 A 
ATOM     14  N   UNL     1       1.651   8.391  20.627  0.00  0.00    +0.000 NA
ATOM     15  C   UNL     1       2.090   7.613  19.623  0.00  0.00    +0.000 A 
ATOM     16  N   UNL     1       2.817   6.480  19.976  0.00  0.00    +0.000 N 
ATOM     17  N   UNL     1       1.919   7.922  18.325  0.00  0.00    +0.000 NA
ATOM     18  C   UNL     1       1.236   9.043  18.031  0.00  0.00    +0.000 A 
ATOM     19  H   UNL     1       2.769   6.310  20.967  0.00  0.00    +0.000 HD
BRANCH  12  21
ATOM     20  C   UNL     1      -1.281  10.820  18.238  0.00  0.00    +0.000 C 
ATOM     21  O   UNL     1       0.095  11.017  18.546  0.00  0.00    +0.000 OA
ENDBRANCH  12  21
ENDBRANCH   1  16
TORSDOF 2
ENDMDL
MODEL 8
REMARK VINA RESULT:      -7.4      1.830      2.308
REMARK  Name = 
REMARK  4 active torsions:
REMARK  status: ('A' for Active; 'I' for Inactive)
REMARK    1  A    between atoms: C_1  and  O_2
REMARK    2  A    between atoms: O_2  and  C_3
REMARK    3  A    between atoms: N_7  and  C_8
REMARK    4  A    between atoms: C_10  and  C_11
REMARK                            x       y       z     vdW  Elec       q    Type
REMARK                         _______ _______ _______ _____ _____    ______ ____
ROOT
ATOM      1  C   UNL     1       5.072   6.581  17.077  0.00  0.00    +0.000 A 
ATOM      2  N   UNL     1       5.933   7.411  17.689  0.00  0.00    +0.000 NA
ATOM      3  C   UNL     1       7.222   7.331  17.348  0.00  0.00    +0.000 A 
ATOM      4  C   UNL     1       8.178   8.234  18.062  0.00  0.00    +0.000 C 
ATOM      5  N   UNL     1       7.718   6.490  16.431  0.00  0.00    +0.000 NA
ATOM      6  C   UNL     1       6.846   5.700  15.796  0.00  0.00    +0.000 A 
ATOM      7  C   UNL     1       7.346   4.774  14.891  0.00  0.00    +0.000 A 
ATOM      8  C   UNL     1       6.508   3.915  14.175  0.00  0.00    +0.000 A 
ATOM      9  C   UNL     1       5.132   4.000  14.340  0.00  0.00    +0.000 A 
ATOM     10  C   UNL     1       4.609   4.902  15.267  0.00  0.00    +0.000 A 
ATOM     11  C   UNL     1       5.467   5.739  16.027  0.00  0.00    +0.000 A 
ENDROOT
BRANCH   1  16
ATOM     12  C   UNL     1       2.537   4.402  20.891  0.00  0.00    +0.000 A 
ATOM     13  C   UNL     1       1.884   5.519  20.422  0.00  0.00    +0.000 A 
ATOM     14  N   UNL     1       2.274   6.241  19.344  0.00  0.00    +0.000 NA
ATOM     15  C   UNL     1       3.383   5.822  18.711  0.00  0.00    +0.000 A 
ATOM     16  N   UNL     1       3.760   6.527  17.571  0.00  0.00    +0.000 N 
ATOM     17  N   UNL     1       4.077   4.734  19.086  0.00  0.00    +0.000 NA
ATOM     18  C   UNL     1       3.658   4.066  20.176  0.00  0.00    +0.000 A 
ATOM     19  H   UNL     1       3.227   7.375  17.474  0.00  0.00    +0.000 HD
BRANCH  12  21
ATOM     20  C   UNL     1       1.470   2.458  21.659  0.00  0.00    +0.000 C 
ATOM     21  O   UNL     1       2.212   3.634  21.962  0.00  0.00    +0.000 OA
ENDBRANCH  12  21
ENDBRANCH   1  16
TORSDOF 2
ENDMDL
MODEL 9
REMARK VINA RESULT:      -7.4      2.655      6.452
REMARK  Name = 
REMARK  4 active torsions:
REMARK  status: ('A' for Active; 'I' for Inactive)
REMARK    1  A    between atoms: C_1  and  O_2
REMARK    2  A    between atoms: O_2  and  C_3
REMARK    3  A    between atoms: N_7  and  C_8
REMARK    4  A    between atoms: C_10  and  C_11
REMARK                            x       y       z     vdW  Elec       q    Type
REMARK                         _______ _______ _______ _____ _____    ______ ____
ROOT
ATOM      1  C   UNL     1       4.311   4.926  18.964  0.00  0.00    +0.000 A 
ATOM      2  N   UNL     1       3.906   6.181  19.225  0.00  0.00    +0.000 NA
ATOM      3  C   UNL     1       2.615   6.370  19.508  0.00  0.00    +0.000 A 
ATOM      4  C   UNL     1       2.168   7.775  19.761  0.00  0.00    +0.000 C 
ATOM      5  N   UNL     1       1.695   5.399  19.563  0.00  0.00    +0.000 NA
ATOM      6  C   UNL     1       2.117   4.148  19.347  0.00  0.00    +0.000 A 
ATOM      7  C   UNL     1       1.170   3.134  19.333  0.00  0.00    +0.000 A 
ATOM      8  C   UNL     1       1.522   1.798  19.124  0.00  0.00    +0.000 A 
ATOM      9  C   UNL     1       2.857   1.456  18.957  0.00  0.00    +0.000 A 
ATOM     10  C   UNL     1       3.823   2.462  18.936  0.00  0.00    +0.000 A 
ATOM     11  C   UNL     1       3.456   3.823  19.101  0.00  0.00    +0.000 A 
ENDROOT
BRANCH   1  16
ATOM     12  C   UNL     1       6.682   4.604  14.492  0.00  0.00    +0.000 A 
ATOM     13  C   UNL     1       7.541   4.994  15.494  0.00  0.00    +0.000 A 
ATOM     14  N   UNL     1       7.211   5.064  16.805  0.00  0.00    +0.000 NA
ATOM     15  C   UNL     1       5.948   4.734  17.125  0.00  0.00    +0.000 A 
ATOM     16  N   UNL     1       5.615   4.752  18.476  0.00  0.00    +0.000 N 
ATOM     17  N   UNL     1       5.043   4.326  16.217  0.00  0.00    +0.000 NA
ATOM     18  C   UNL     1       5.418   4.295  14.926  0.00  0.00    +0.000 A 
ATOM     19  H   UNL     1       6.342   5.182  19.024  0.00  0.00    +0.000 HD
BRANCH  12  21
ATOM     20  C   UNL     1       6.235   3.480  12.481  0.00  0.00    +0.000 C 
ATOM     21  O   UNL     1       6.937   4.515  13.162  0.00  0.00    +0.000 OA
ENDBRANCH  12  21
ENDBRANCH   1  16
TORSDOF 2
ENDMDL
