MODEL 1
REMARK VINA RESULT:      -9.4      0.000      0.000
REMARK  Name = 
REMARK  2 active torsions:
REMARK  status: ('A' for Active; 'I' for Inactive)
REMARK    1  A    between atoms: C_1  and  C_2
REMARK    2  A    between atoms: C_4  and  C_5
REMARK                            x       y       z     vdW  Elec       q    Type
REMARK                         _______ _______ _______ _____ _____    ______ ____
ROOT
ATOM      1  C   UNL     1       7.541   6.573  18.126  0.00  0.00    +0.000 C 
ATOM      2  C   UNL     1       6.477   5.639  17.616  0.00  0.00    +0.000 A 
ATOM      3  C   UNL     1       5.471   5.181  18.494  0.00  0.00    +0.000 A 
ATOM      4  C   UNL     1       4.356   4.464  18.041  0.00  0.00    +0.000 A 
ATOM      5  C   UNL     1       4.359   4.150  16.671  0.00  0.00    +0.000 A 
ATOM      6  C   UNL     1       5.405   4.484  15.811  0.00  0.00    +0.000 A 
ATOM      7  N   UNL     1       5.392   4.077  14.536  0.00  0.00    +0.000 NA
ATOM      8  N   UNL     1       6.408   4.441  13.706  0.00  0.00    +0.000 NA
ATOM      9  C   UNL     1       7.392   5.223  14.175  0.00  0.00    +0.000 A 
ATOM     10  N   UNL     1       8.412   5.604  13.315  0.00  0.00    +0.000 N 
ATOM     11  N   UNL     1       7.466   5.637  15.438  0.00  0.00    +0.000 NA
ATOM     12  C   UNL     1       6.472   5.262  16.268  0.00  0.00    +0.000 A 
ATOM     13  H   UNL     1       8.521   4.928  12.572  0.00  0.00    +0.000 HD
ATOM     14  H   UNL     1       9.232   5.850  13.851  0.00  0.00    +0.000 HD
ENDROOT
BRANCH   4  15
ATOM     15  C   UNL     1       3.204   4.095  18.933  0.00  0.00    +0.000 A 
ATOM     16  C   UNL     1       2.837   2.745  19.193  0.00  0.00    +0.000 A 
ATOM     17 CL   UNL     1       3.659   1.370  18.519  0.00  0.00    +0.000 Cl
ATOM     18  C   UNL     1       1.792   2.408  20.074  0.00  0.00    +0.000 A 
ATOM     19  C   UNL     1       1.114   3.391  20.777  0.00  0.00    +0.000 A 
ATOM     20  C   UNL     1       1.439   4.720  20.555  0.00  0.00    +0.000 A 
ATOM     21  C   UNL     1       2.434   5.071  19.625  0.00  0.00    +0.000 A 
ATOM     22 CL   UNL     1       2.587   6.781  19.353  0.00  0.00    +0.000 Cl
ENDBRANCH   4  15
TORSDOF 1
ENDMDL
MODEL 2
REMARK VINA RESULT:      -9.3      0.145      2.068
REMARK  Name = 
REMARK  2 active torsions:
REMARK  status: ('A' for Active; 'I' for Inactive)
REMARK    1  A    between atoms: C_1  and  C_2
REMARK    2  A    between atoms: C_4  and  C_5
REMARK                            x       y       z     vdW  Elec       q    Type
REMARK                         _______ _______ _______ _____ _____    ______ ____
ROOT
ATOM      1  C   UNL     1       7.605   6.412  18.194  0.00  0.00    +0.000 C 
ATOM      2  C   UNL     1       6.515   5.518  17.668  0.00  0.00    +0.000 A 
ATOM      3  C   UNL     1       5.515   5.047  18.547  0.00  0.00    +0.000 A 
ATOM      4  C   UNL     1       4.379   4.368  18.088  0.00  0.00    +0.000 A 
ATOM      5  C   UNL     1       4.353   4.104  16.707  0.00  0.00    +0.000 A 
ATOM      6  C   UNL     1       5.390   4.451  15.842  0.00  0.00    +0.000 A 
ATOM      7  N   UNL     1       5.348   4.092  14.553  0.00  0.00    +0.000 NA
ATOM      8  N   UNL     1       6.356   4.467  13.719  0.00  0.00    +0.000 NA
ATOM      9  C   UNL     1       7.363   5.213  14.199  0.00  0.00    +0.000 A 
ATOM     10  N   UNL     1       8.375   5.606  13.336  0.00  0.00    +0.000 N 
ATOM     11  N   UNL     1       7.466   5.578  15.475  0.00  0.00    +0.000 NA
ATOM     12  C   UNL     1       6.480   5.191  16.307  0.00  0.00    +0.000 A 
ATOM     13  H   UNL     1       8.459   4.956  12.566  0.00  0.00    +0.000 HD
ATOM     14  H   UNL     1       9.209   5.817  13.865  0.00  0.00    +0.000 HD
ENDROOT
BRANCH   4  15
ATOM     15  C   UNL     1       3.235   3.988  18.986  0.00  0.00    +0.000 A 
ATOM     16  C   UNL     1       2.445   4.953  19.671  0.00  0.00    +0.000 A 
ATOM     17 CL   UNL     1       2.700   6.669  19.562  0.00  0.00    +0.000 Cl
ATOM     18  C   UNL     1       1.341   4.591  20.465  0.00  0.00    +0.000 A 
ATOM     19  C   UNL     1       0.940   3.267  20.560  0.00  0.00    +0.000 A 
ATOM     20  C   UNL     1       1.681   2.294  19.909  0.00  0.00    +0.000 A 
ATOM     21  C   UNL     1       2.827   2.637  19.169  0.00  0.00    +0.000 A 
ATOM     22 CL   UNL     1       3.724   1.275  18.566  0.00  0.00    +0.000 Cl
ENDBRANCH   4  15
TORSDOF 1
ENDMDL
MODEL 3
REMARK VINA RESULT:      -7.4      4.466      6.409
REMARK  Name = 
REMARK  2 active torsions:
REMARK  status: ('A' for Active; 'I' for Inactive)
REMARK    1  A    between atoms: C_1  and  C_2
REMARK    2  A    between atoms: C_4  and  C_5
REMARK                            x       y       z     vdW  Elec       q    Type
REMARK                         _______ _______ _______ _____ _____    ______ ____
ROOT
ATOM      1  C   UNL     1       1.732   6.049  20.941  0.00  0.00    +0.000 C 
ATOM      2  C   UNL     1       2.402   6.667  19.744  0.00  0.00    +0.000 A 
ATOM      3  C   UNL     1       3.425   5.960  19.075  0.00  0.00    +0.000 A 
ATOM      4  C   UNL     1       3.957   6.396  17.854  0.00  0.00    +0.000 A 
ATOM      5  C   UNL     1       3.471   7.632  17.394  0.00  0.00    +0.000 A 
ATOM      6  C   UNL     1       2.553   8.406  18.103  0.00  0.00    +0.000 A 
ATOM      7  N   UNL     1       2.197   9.617  17.657  0.00  0.00    +0.000 NA
ATOM      8  N   UNL     1       1.277  10.343  18.350  0.00  0.00    +0.000 NA
ATOM      9  C   UNL     1       0.722   9.820  19.454  0.00  0.00    +0.000 A 
ATOM     10  N   UNL     1      -0.229  10.560  20.140  0.00  0.00    +0.000 N 
ATOM     11  N   UNL     1       1.055   8.632  19.953  0.00  0.00    +0.000 NA
ATOM     12  C   UNL     1       1.981   7.919  19.282  0.00  0.00    +0.000 A 
ATOM     13  H   UNL     1      -0.094  11.549  19.978  0.00  0.00    +0.000 HD
ATOM     14  H   UNL     1      -0.278  10.243  21.098  0.00  0.00    +0.000 HD
ENDROOT
BRANCH   4  15
ATOM     15  C   UNL     1       4.938   5.586  17.053  0.00  0.00    +0.000 A 
ATOM     16  C   UNL     1       4.626   4.299  16.533  0.00  0.00    +0.000 A 
ATOM     17 CL   UNL     1       3.093   3.509  16.755  0.00  0.00    +0.000 Cl
ATOM     18  C   UNL     1       5.530   3.573  15.737  0.00  0.00    +0.000 A 
ATOM     19  C   UNL     1       6.753   4.118  15.376  0.00  0.00    +0.000 A 
ATOM     20  C   UNL     1       7.098   5.370  15.861  0.00  0.00    +0.000 A 
ATOM     21  C   UNL     1       6.230   6.075  16.713  0.00  0.00    +0.000 A 
ATOM     22 CL   UNL     1       6.899   7.545  17.357  0.00  0.00    +0.000 Cl
ENDBRANCH   4  15
TORSDOF 1
ENDMDL
MODEL 4
REMARK VINA RESULT:      -7.3      2.458      4.085
REMARK  Name = 
REMARK  2 active torsions:
REMARK  status: ('A' for Active; 'I' for Inactive)
REMARK    1  A    between atoms: C_1  and  C_2
REMARK    2  A    between atoms: C_4  and  C_5
REMARK                            x       y       z     vdW  Elec       q    Type
REMARK                         _______ _______ _______ _____ _____    ______ ____
ROOT
ATOM      1  C   UNL     1       2.842   2.804  17.160  0.00  0.00    +0.000 C 
ATOM      2  C   UNL     1       3.192   4.265  17.248  0.00  0.00    +0.000 A 
ATOM      3  C   UNL     1       2.432   5.116  18.079  0.00  0.00    +0.000 A 
ATOM      4  C   UNL     1       2.817   6.437  18.345  0.00  0.00    +0.000 A 
ATOM      5  C   UNL     1       3.955   6.883  17.651  0.00  0.00    +0.000 A 
ATOM      6  C   UNL     1       4.646   6.097  16.728  0.00  0.00    +0.000 A 
ATOM      7  N   UNL     1       5.668   6.609  16.031  0.00  0.00    +0.000 NA
ATOM      8  N   UNL     1       6.348   5.816  15.158  0.00  0.00    +0.000 NA
ATOM      9  C   UNL     1       5.998   4.527  15.032  0.00  0.00    +0.000 A 
ATOM     10  N   UNL     1       6.710   3.723  14.154  0.00  0.00    +0.000 N 
ATOM     11  N   UNL     1       4.978   3.973  15.683  0.00  0.00    +0.000 NA
ATOM     12  C   UNL     1       4.289   4.761  16.533  0.00  0.00    +0.000 A 
ATOM     13  H   UNL     1       7.126   4.279  13.420  0.00  0.00    +0.000 HD
ATOM     14  H   UNL     1       6.142   2.933  13.881  0.00  0.00    +0.000 HD
ENDROOT
BRANCH   4  15
ATOM     15  C   UNL     1       2.107   7.311  19.340  0.00  0.00    +0.000 A 
ATOM     16  C   UNL     1       1.751   8.660  19.059  0.00  0.00    +0.000 A 
ATOM     17 CL   UNL     1       2.091   9.459  17.553  0.00  0.00    +0.000 Cl
ATOM     18  C   UNL     1       1.035   9.453  19.976  0.00  0.00    +0.000 A 
ATOM     19  C   UNL     1       0.592   8.922  21.177  0.00  0.00    +0.000 A 
ATOM     20  C   UNL     1       0.916   7.612  21.491  0.00  0.00    +0.000 A 
ATOM     21  C   UNL     1       1.690   6.832  20.613  0.00  0.00    +0.000 A 
ATOM     22 CL   UNL     1       2.140   5.277  21.246  0.00  0.00    +0.000 Cl
ENDBRANCH   4  15
TORSDOF 1
ENDMDL
MODEL 5
REMARK VINA RESULT:      -7.2      2.570      3.883
REMARK  Name = 
REMARK  2 active torsions:
REMARK  status: ('A' for Active; 'I' for Inactive)
REMARK    1  A    between atoms: C_1  and  C_2
REMARK    2  A    between atoms: C_4  and  C_5
REMARK                            x       y       z     vdW  Elec       q    Type
REMARK                         _______ _______ _______ _____ _____    ______ ____
ROOT
ATOM      1  C   UNL     1       2.826   2.865  17.405  0.00  0.00    +0.000 C 
ATOM      2  C   UNL     1       3.143   4.337  17.419  0.00  0.00    +0.000 A 
ATOM      3  C   UNL     1       2.364   5.209  18.210  0.00  0.00    +0.000 A 
ATOM      4  C   UNL     1       2.719   6.551  18.410  0.00  0.00    +0.000 A 
ATOM      5  C   UNL     1       3.845   6.988  17.691  0.00  0.00    +0.000 A 
ATOM      6  C   UNL     1       4.553   6.174  16.806  0.00  0.00    +0.000 A 
ATOM      7  N   UNL     1       5.561   6.674  16.082  0.00  0.00    +0.000 NA
ATOM      8  N   UNL     1       6.258   5.855  15.247  0.00  0.00    +0.000 NA
ATOM      9  C   UNL     1       5.938   4.553  15.185  0.00  0.00    +0.000 A 
ATOM     10  N   UNL     1       6.667   3.724  14.347  0.00  0.00    +0.000 N 
ATOM     11  N   UNL     1       4.932   4.009  15.866  0.00  0.00    +0.000 NA
ATOM     12  C   UNL     1       4.227   4.821  16.678  0.00  0.00    +0.000 A 
ATOM     13  H   UNL     1       7.069   4.253  13.585  0.00  0.00    +0.000 HD
ATOM     14  H   UNL     1       6.118   2.909  14.114  0.00  0.00    +0.000 HD
ENDROOT
BRANCH   4  15
ATOM     15  C   UNL     1       1.990   7.456  19.362  0.00  0.00    +0.000 A 
ATOM     16  C   UNL     1       1.598   7.041  20.665  0.00  0.00    +0.000 A 
ATOM     17 CL   UNL     1       1.904   5.457  21.312  0.00  0.00    +0.000 Cl
ATOM     18  C   UNL     1       0.966   7.913  21.571  0.00  0.00    +0.000 A 
ATOM     19  C   UNL     1       0.754   9.243  21.244  0.00  0.00    +0.000 A 
ATOM     20  C   UNL     1       1.122   9.691  19.984  0.00  0.00    +0.000 A 
ATOM     21  C   UNL     1       1.691   8.810  19.047  0.00  0.00    +0.000 A 
ATOM     22 CL   UNL     1       1.928   9.502  17.470  0.00  0.00    +0.000 Cl
ENDBRANCH   4  15
TORSDOF 1
ENDMDL
MODEL 6
REMARK VINA RESULT:      -7.2      4.538      6.640
REMARK  Name = 
REMARK  2 active torsions:
REMARK  status: ('A' for Active; 'I' for Inactive)
REMARK    1  A    between atoms: C_1  and  C_2
REMARK    2  A    between atoms: C_4  and  C_5
REMARK                            x       y       z     vdW  Elec       q    Type
REMARK                         _______ _______ _______ _____ _____    ______ ____
ROOT
ATOM      1  C   UNL     1       1.653   6.149  20.967  0.00  0.00    +0.000 C 
ATOM      2  C   UNL     1       2.329   6.769  19.773  0.00  0.00    +0.000 A 
ATOM      3  C   UNL     1       3.350   6.059  19.104  0.00  0.00    +0.000 A 
ATOM      4  C   UNL     1       3.887   6.498  17.886  0.00  0.00    +0.000 A 
ATOM      5  C   UNL     1       3.408   7.738  17.430  0.00  0.00    +0.000 A 
ATOM      6  C   UNL     1       2.492   8.514  18.141  0.00  0.00    +0.000 A 
ATOM      7  N   UNL     1       2.144   9.729  17.699  0.00  0.00    +0.000 NA
ATOM      8  N   UNL     1       1.225  10.456  18.392  0.00  0.00    +0.000 NA
ATOM      9  C   UNL     1       0.665   9.932  19.492  0.00  0.00    +0.000 A 
ATOM     10  N   UNL     1      -0.284  10.674  20.179  0.00  0.00    +0.000 N 
ATOM     11  N   UNL     1       0.991   8.740  19.987  0.00  0.00    +0.000 NA
ATOM     12  C   UNL     1       1.915   8.025  19.315  0.00  0.00    +0.000 A 
ATOM     13  H   UNL     1      -0.144  11.662  20.022  0.00  0.00    +0.000 HD
ATOM     14  H   UNL     1      -0.338  10.353  21.136  0.00  0.00    +0.000 HD
ENDROOT
BRANCH   4  15
ATOM     15  C   UNL     1       4.866   5.687  17.085  0.00  0.00    +0.000 A 
ATOM     16  C   UNL     1       6.183   6.141  16.796  0.00  0.00    +0.000 A 
ATOM     17 CL   UNL     1       6.818   7.672  17.322  0.00  0.00    +0.000 Cl
ATOM     18  C   UNL     1       7.112   5.351  16.094  0.00  0.00    +0.000 A 
ATOM     19  C   UNL     1       6.792   4.059  15.706  0.00  0.00    +0.000 A 
ATOM     20  C   UNL     1       5.520   3.575  15.968  0.00  0.00    +0.000 A 
ATOM     21  C   UNL     1       4.562   4.382  16.607  0.00  0.00    +0.000 A 
ATOM     22 CL   UNL     1       2.977   3.673  16.698  0.00  0.00    +0.000 Cl
ENDBRANCH   4  15
TORSDOF 1
ENDMDL
MODEL 7
REMARK VINA RESULT:      -7.1      4.537      5.955
REMARK  Name = 
REMARK  2 active torsions:
REMARK  status: ('A' for Active; 'I' for Inactive)
REMARK    1  A    between atoms: C_1  and  C_2
REMARK    2  A    between atoms: C_4  and  C_5
REMARK                            x       y       z     vdW  Elec       q    Type
REMARK                         _______ _______ _______ _____ _____    ______ ____
ROOT
ATOM      1  C   UNL     1       0.534   8.484  21.957  0.00  0.00    +0.000 C 
ATOM      2  C   UNL     1       1.323   8.000  20.770  0.00  0.00    +0.000 A 
ATOM      3  C   UNL     1       1.884   6.704  20.788  0.00  0.00    +0.000 A 
ATOM      4  C   UNL     1       2.468   6.130  19.650  0.00  0.00    +0.000 A 
ATOM      5  C   UNL     1       2.544   6.968  18.525  0.00  0.00    +0.000 A 
ATOM      6  C   UNL     1       2.110   8.294  18.526  0.00  0.00    +0.000 A 
ATOM      7  N   UNL     1       2.293   9.069  17.451  0.00  0.00    +0.000 NA
ATOM      8  N   UNL     1       1.834  10.351  17.463  0.00  0.00    +0.000 NA
ATOM      9  C   UNL     1       1.183  10.806  18.544  0.00  0.00    +0.000 A 
ATOM     10  N   UNL     1       0.703  12.107  18.538  0.00  0.00    +0.000 N 
ATOM     11  N   UNL     1       0.994  10.086  19.647  0.00  0.00    +0.000 NA
ATOM     12  C   UNL     1       1.465   8.823  19.647  0.00  0.00    +0.000 A 
ATOM     13  H   UNL     1       1.247  12.684  17.910  0.00  0.00    +0.000 HD
ATOM     14  H   UNL     1       0.585  12.430  19.488  0.00  0.00    +0.000 HD
ENDROOT
BRANCH   4  15
ATOM     15  C   UNL     1       2.937   4.703  19.605  0.00  0.00    +0.000 A 
ATOM     16  C   UNL     1       2.055   3.600  19.783  0.00  0.00    +0.000 A 
ATOM     17 CL   UNL     1       0.349   3.760  20.074  0.00  0.00    +0.000 Cl
ATOM     18  C   UNL     1       2.493   2.266  19.683  0.00  0.00    +0.000 A 
ATOM     19  C   UNL     1       3.804   1.974  19.342  0.00  0.00    +0.000 A 
ATOM     20  C   UNL     1       4.698   3.018  19.160  0.00  0.00    +0.000 A 
ATOM     21  C   UNL     1       4.287   4.353  19.326  0.00  0.00    +0.000 A 
ATOM     22 CL   UNL     1       5.577   5.515  19.226  0.00  0.00    +0.000 Cl
ENDBRANCH   4  15
TORSDOF 1
ENDMDL
MODEL 8
REMARK VINA RESULT:      -7.0      4.324      6.701
REMARK  Name = 
REMARK  2 active torsions:
REMARK  status: ('A' for Active; 'I' for Inactive)
REMARK    1  A    between atoms: C_1  and  C_2
REMARK    2  A    between atoms: C_4  and  C_5
REMARK                            x       y       z     vdW  Elec       q    Type
REMARK                         _______ _______ _______ _____ _____    ______ ____
ROOT
ATOM      1  C   UNL     1       2.215   4.677  21.256  0.00  0.00    +0.000 C 
ATOM      2  C   UNL     1       2.668   5.592  20.150  0.00  0.00    +0.000 A 
ATOM      3  C   UNL     1       3.643   5.145  19.231  0.00  0.00    +0.000 A 
ATOM      4  C   UNL     1       3.970   5.873  18.079  0.00  0.00    +0.000 A 
ATOM      5  C   UNL     1       3.333   7.119  17.954  0.00  0.00    +0.000 A 
ATOM      6  C   UNL     1       2.462   7.634  18.915  0.00  0.00    +0.000 A 
ATOM      7  N   UNL     1       1.958   8.867  18.783  0.00  0.00    +0.000 NA
ATOM      8  N   UNL     1       1.086   9.338  19.716  0.00  0.00    +0.000 NA
ATOM      9  C   UNL     1       0.727   8.547  20.739  0.00  0.00    +0.000 A 
ATOM     10  N   UNL     1      -0.177   9.030  21.672  0.00  0.00    +0.000 N 
ATOM     11  N   UNL     1       1.214   7.324  20.930  0.00  0.00    +0.000 NA
ATOM     12  C   UNL     1       2.094   6.862  20.019  0.00  0.00    +0.000 A 
ATOM     13  H   UNL     1      -0.142  10.040  21.713  0.00  0.00    +0.000 HD
ATOM     14  H   UNL     1      -0.073   8.522  22.539  0.00  0.00    +0.000 HD
ENDROOT
BRANCH   4  15
ATOM     15  C   UNL     1       4.894   5.348  17.016  0.00  0.00    +0.000 A 
ATOM     16  C   UNL     1       6.090   6.021  16.640  0.00  0.00    +0.000 A 
ATOM     17 CL   UNL     1       6.626   7.515  17.348  0.00  0.00    +0.000 Cl
ATOM     18  C   UNL     1       6.978   5.493  15.684  0.00  0.00    +0.000 A 
ATOM     19  C   UNL     1       6.747   4.253  15.111  0.00  0.00    +0.000 A 
ATOM     20  C   UNL     1       5.594   3.562  15.449  0.00  0.00    +0.000 A 
ATOM     21  C   UNL     1       4.665   4.112  16.351  0.00  0.00    +0.000 A 
ATOM     22 CL   UNL     1       3.203   3.187  16.524  0.00  0.00    +0.000 Cl
ENDBRANCH   4  15
TORSDOF 1
ENDMDL
MODEL 9
REMARK VINA RESULT:      -7.0      4.595      6.051
REMARK  Name = 
REMARK  2 active torsions:
REMARK  status: ('A' for Active; 'I' for Inactive)
REMARK    1  A    between atoms: C_1  and  C_2
REMARK    2  A    between atoms: C_4  and  C_5
REMARK                            x       y       z     vdW  Elec       q    Type
REMARK                         _______ _______ _______ _____ _____    ______ ____
ROOT
ATOM      1  C   UNL     1       0.479   8.530  21.927  0.00  0.00    +0.000 C 
ATOM      2  C   UNL     1       1.309   8.079  20.755  0.00  0.00    +0.000 A 
ATOM      3  C   UNL     1       1.910   6.802  20.776  0.00  0.00    +0.000 A 
ATOM      4  C   UNL     1       2.537   6.254  19.649  0.00  0.00    +0.000 A 
ATOM      5  C   UNL     1       2.610   7.102  18.531  0.00  0.00    +0.000 A 
ATOM      6  C   UNL     1       2.134   8.413  18.531  0.00  0.00    +0.000 A 
ATOM      7  N   UNL     1       2.315   9.201  17.464  0.00  0.00    +0.000 NA
ATOM      8  N   UNL     1       1.815  10.468  17.474  0.00  0.00    +0.000 NA
ATOM      9  C   UNL     1       1.127  10.895  18.544  0.00  0.00    +0.000 A 
ATOM     10  N   UNL     1       0.606  12.180  18.535  0.00  0.00    +0.000 N 
ATOM     11  N   UNL     1       0.938  10.161  19.638  0.00  0.00    +0.000 NA
ATOM     12  C   UNL     1       1.448   8.914  19.640  0.00  0.00    +0.000 A 
ATOM     13  H   UNL     1       1.144  12.777  17.923  0.00  0.00    +0.000 HD
ATOM     14  H   UNL     1       0.457  12.491  19.484  0.00  0.00    +0.000 HD
ENDROOT
BRANCH   4  15
ATOM     15  C   UNL     1       3.052   4.843  19.605  0.00  0.00    +0.000 A 
ATOM     16  C   UNL     1       4.406   4.530  19.299  0.00  0.00    +0.000 A 
ATOM     17 CL   UNL     1       5.619   5.722  18.938  0.00  0.00    +0.000 Cl
ATOM     18  C   UNL     1       4.893   3.210  19.316  0.00  0.00    +0.000 A 
ATOM     19  C   UNL     1       4.074   2.157  19.695  0.00  0.00    +0.000 A 
ATOM     20  C   UNL     1       2.748   2.417  20.003  0.00  0.00    +0.000 A 
ATOM     21  C   UNL     1       2.234   3.723  19.922  0.00  0.00    +0.000 A 
ATOM     22 CL   UNL     1       0.517   3.833  20.175  0.00  0.00    +0.000 Cl
ENDBRANCH   4  15
TORSDOF 1
ENDMDL
