MODEL 1
REMARK VINA RESULT:      -7.9      0.000      0.000
REMARK  Name = 
REMARK  7 active torsions:
REMARK  status: ('A' for Active; 'I' for Inactive)
REMARK    1  A    between atoms: C_1  and  C_2
REMARK    2  A    between atoms: C_2  and  C_3
REMARK    3  A    between atoms: C_2  and  C_4
REMARK    4  A    between atoms: C_4  and  C_5
REMARK    5  A    between atoms: C_8  and  C_9
REMARK    6  A    between atoms: C_9  and  C_10
REMARK    7  A    between atoms: C_14  and  C_16
REMARK                            x       y       z     vdW  Elec       q    Type
REMARK                         _______ _______ _______ _____ _____    ______ ____
ROOT
ATOM      1  C   UNL     1       5.386   5.622  17.517  0.00  0.00    +0.000 C 
ATOM      2  C   UNL     1       4.724   6.672  16.612  0.00  0.00    +0.000 C 
ATOM      3  C   UNL     1       4.024   7.586  17.618  0.00  0.00    +0.000 C 
ATOM      4  N   UNL     1       3.588   6.664  18.657  0.00  0.00    +0.000 N 
ATOM      5  C   UNL     1       2.496   6.757  19.499  0.00  0.00    +0.000 C 
ATOM      6  O   UNL     1       2.122   5.793  20.171  0.00  0.00    +0.000 OA
ATOM      7  C   UNL     1       4.332   5.422  18.603  0.00  0.00    +0.000 C 
ENDROOT
BRANCH   5   8
ATOM      8  C   UNL     1       1.712   8.019  19.606  0.00  0.00    +0.000 A 
ATOM      9  C   UNL     1       1.262   8.407  20.861  0.00  0.00    +0.000 A 
ATOM     10  N   UNL     1       0.590   9.570  21.074  0.00  0.00    +0.000 NA
ATOM     11  C   UNL     1       0.418  10.336  19.974  0.00  0.00    +0.000 A 
ATOM     12  C   UNL     1       0.872   9.955  18.720  0.00  0.00    +0.000 A 
ATOM     13  N   UNL     1       1.521   8.785  18.496  0.00  0.00    +0.000 NA
ENDBRANCH   5   8
BRANCH   1  14
ATOM     14  C   UNL     1       5.743   4.314  16.808  0.00  0.00    +0.000 C 
BRANCH  14  18
ATOM     15  C   UNL     1       6.839   4.325  13.443  0.00  0.00    +0.000 A 
ATOM     16  N   UNL     1       7.725   5.185  13.899  0.00  0.00    +0.000 NA
ATOM     17  N   UNL     1       7.470   5.332  15.249  0.00  0.00    +0.000 NA
ATOM     18  C   UNL     1       6.440   4.561  15.518  0.00  0.00    +0.000 A 
ATOM     19  O   UNL     1       5.982   3.884  14.419  0.00  0.00    +0.000 OA
BRANCH  15  20
ATOM     20  C   UNL     1       6.628   3.804  12.067  0.00  0.00    +0.000 C 
BRANCH  20  22
ATOM     21  C   UNL     1       4.278   3.210  11.278  0.00  0.00    +0.000 C 
ATOM     22  C   UNL     1       5.544   2.714  11.981  0.00  0.00    +0.000 C 
ATOM     23  C   UNL     1       6.092   1.490  11.236  0.00  0.00    +0.000 C 
ENDBRANCH  20  22
ENDBRANCH  15  20
ENDBRANCH  14  18
ENDBRANCH   1  14
TORSDOF 5
ENDMDL
MODEL 2
REMARK VINA RESULT:      -7.5      0.765      1.122
REMARK  Name = 
REMARK  7 active torsions:
REMARK  status: ('A' for Active; 'I' for Inactive)
REMARK    1  A    between atoms: C_1  and  C_2
REMARK    2  A    between atoms: C_2  and  C_3
REMARK    3  A    between atoms: C_2  and  C_4
REMARK    4  A    between atoms: C_4  and  C_5
REMARK    5  A    between atoms: C_8  and  C_9
REMARK    6  A    between atoms: C_9  and  C_10
REMARK    7  A    between atoms: C_14  and  C_16
REMARK                            x       y       z     vdW  Elec       q    Type
REMARK                         _______ _______ _______ _____ _____    ______ ____
ROOT
ATOM      1  C   UNL     1       4.833   5.594  17.606  0.00  0.00    +0.000 C 
ATOM      2  C   UNL     1       4.241   6.802  16.864  0.00  0.00    +0.000 C 
ATOM      3  C   UNL     1       3.728   7.678  18.006  0.00  0.00    +0.000 C 
ATOM      4  N   UNL     1       3.256   6.706  18.984  0.00  0.00    +0.000 N 
ATOM      5  C   UNL     1       2.245   6.833  19.916  0.00  0.00    +0.000 C 
ATOM      6  O   UNL     1       1.804   5.852  20.520  0.00  0.00    +0.000 OA
ATOM      7  C   UNL     1       3.840   5.401  18.750  0.00  0.00    +0.000 C 
ENDROOT
BRANCH   5   8
ATOM      8  C   UNL     1       1.628   8.157  20.207  0.00  0.00    +0.000 A 
ATOM      9  C   UNL     1       1.258   8.958  19.134  0.00  0.00    +0.000 A 
ATOM     10  N   UNL     1       0.635  10.155  19.293  0.00  0.00    +0.000 NA
ATOM     11  C   UNL     1       0.374  10.497  20.574  0.00  0.00    +0.000 A 
ATOM     12  C   UNL     1       0.735   9.696  21.648  0.00  0.00    +0.000 A 
ATOM     13  N   UNL     1       1.379   8.511  21.498  0.00  0.00    +0.000 NA
ENDBRANCH   5   8
BRANCH   1  14
ATOM     14  C   UNL     1       4.979   4.336  16.748  0.00  0.00    +0.000 C 
BRANCH  14  18
ATOM     15  C   UNL     1       6.640   4.333  13.623  0.00  0.00    +0.000 A 
ATOM     16  N   UNL     1       7.494   5.112  14.253  0.00  0.00    +0.000 NA
ATOM     17  N   UNL     1       7.020   5.250  15.544  0.00  0.00    +0.000 NA
ATOM     18  C   UNL     1       5.905   4.555  15.605  0.00  0.00    +0.000 A 
ATOM     19  O   UNL     1       5.597   3.939  14.421  0.00  0.00    +0.000 OA
BRANCH  15  20
ATOM     20  C   UNL     1       6.634   3.858  12.214  0.00  0.00    +0.000 C 
BRANCH  20  22
ATOM     21  C   UNL     1       4.408   3.105  11.227  0.00  0.00    +0.000 C 
ATOM     22  C   UNL     1       5.678   2.677  11.966  0.00  0.00    +0.000 C 
ATOM     23  C   UNL     1       6.394   1.588  11.158  0.00  0.00    +0.000 C 
ENDBRANCH  20  22
ENDBRANCH  15  20
ENDBRANCH  14  18
ENDBRANCH   1  14
TORSDOF 5
ENDMDL
MODEL 3
REMARK VINA RESULT:      -7.5      0.864      1.238
REMARK  Name = 
REMARK  7 active torsions:
REMARK  status: ('A' for Active; 'I' for Inactive)
REMARK    1  A    between atoms: C_1  and  C_2
REMARK    2  A    between atoms: C_2  and  C_3
REMARK    3  A    between atoms: C_2  and  C_4
REMARK    4  A    between atoms: C_4  and  C_5
REMARK    5  A    between atoms: C_8  and  C_9
REMARK    6  A    between atoms: C_9  and  C_10
REMARK    7  A    between atoms: C_14  and  C_16
REMARK                            x       y       z     vdW  Elec       q    Type
REMARK                         _______ _______ _______ _____ _____    ______ ____
ROOT
ATOM      1  C   UNL     1       6.043   5.167  17.607  0.00  0.00    +0.000 C 
ATOM      2  C   UNL     1       5.815   6.471  16.827  0.00  0.00    +0.000 C 
ATOM      3  C   UNL     1       4.908   7.267  17.764  0.00  0.00    +0.000 C 
ATOM      4  N   UNL     1       4.070   6.240  18.367  0.00  0.00    +0.000 N 
ATOM      5  C   UNL     1       2.774   6.339  18.836  0.00  0.00    +0.000 C 
ATOM      6  O   UNL     1       2.113   5.334  19.109  0.00  0.00    +0.000 OA
ATOM      7  C   UNL     1       4.675   4.929  18.241  0.00  0.00    +0.000 C 
ENDROOT
BRANCH   5   8
ATOM      8  C   UNL     1       2.116   7.665  19.003  0.00  0.00    +0.000 A 
ATOM      9  C   UNL     1       1.865   8.420  17.864  0.00  0.00    +0.000 A 
ATOM     10  N   UNL     1       1.217   9.614  17.903  0.00  0.00    +0.000 NA
ATOM     11  C   UNL     1       0.808  10.000  19.132  0.00  0.00    +0.000 A 
ATOM     12  C   UNL     1       1.050   9.245  20.270  0.00  0.00    +0.000 A 
ATOM     13  N   UNL     1       1.718   8.065  20.242  0.00  0.00    +0.000 NA
ENDBRANCH   5   8
BRANCH   1  14
ATOM     14  C   UNL     1       6.495   3.987  16.744  0.00  0.00    +0.000 C 
BRANCH  14  18
ATOM     15  C   UNL     1       6.937   4.346  13.252  0.00  0.00    +0.000 A 
ATOM     16  N   UNL     1       7.688   5.366  13.609  0.00  0.00    +0.000 NA
ATOM     17  N   UNL     1       7.656   5.410  14.990  0.00  0.00    +0.000 NA
ATOM     18  C   UNL     1       6.879   4.422  15.375  0.00  0.00    +0.000 A 
ATOM     19  O   UNL     1       6.384   3.696  14.325  0.00  0.00    +0.000 OA
BRANCH  15  20
ATOM     20  C   UNL     1       6.596   3.835  11.898  0.00  0.00    +0.000 C 
BRANCH  20  22
ATOM     21  C   UNL     1       4.233   3.226  11.160  0.00  0.00    +0.000 C 
ATOM     22  C   UNL     1       5.489   2.766  11.904  0.00  0.00    +0.000 C 
ATOM     23  C   UNL     1       6.009   1.471  11.269  0.00  0.00    +0.000 C 
ENDBRANCH  20  22
ENDBRANCH  15  20
ENDBRANCH  14  18
ENDBRANCH   1  14
TORSDOF 5
ENDMDL
MODEL 4
REMARK VINA RESULT:      -7.2      1.152      1.452
REMARK  Name = 
REMARK  7 active torsions:
REMARK  status: ('A' for Active; 'I' for Inactive)
REMARK    1  A    between atoms: C_1  and  C_2
REMARK    2  A    between atoms: C_2  and  C_3
REMARK    3  A    between atoms: C_2  and  C_4
REMARK    4  A    between atoms: C_4  and  C_5
REMARK    5  A    between atoms: C_8  and  C_9
REMARK    6  A    between atoms: C_9  and  C_10
REMARK    7  A    between atoms: C_14  and  C_16
REMARK                            x       y       z     vdW  Elec       q    Type
REMARK                         _______ _______ _______ _____ _____    ______ ____
ROOT
ATOM      1  C   UNL     1       6.745   5.479  17.883  0.00  0.00    +0.000 C 
ATOM      2  C   UNL     1       6.494   6.820  17.177  0.00  0.00    +0.000 C 
ATOM      3  C   UNL     1       5.340   7.412  17.986  0.00  0.00    +0.000 C 
ATOM      4  N   UNL     1       4.548   6.242  18.341  0.00  0.00    +0.000 N 
ATOM      5  C   UNL     1       3.188   6.149  18.566  0.00  0.00    +0.000 C 
ATOM      6  O   UNL     1       2.624   5.054  18.633  0.00  0.00    +0.000 OA
ATOM      7  C   UNL     1       5.330   5.027  18.231  0.00  0.00    +0.000 C 
ENDROOT
BRANCH   5   8
ATOM      8  C   UNL     1       2.347   7.369  18.709  0.00  0.00    +0.000 A 
ATOM      9  C   UNL     1       1.941   7.741  19.985  0.00  0.00    +0.000 A 
ATOM     10  N   UNL     1       1.222   8.869  20.227  0.00  0.00    +0.000 NA
ATOM     11  C   UNL     1       0.955   9.620  19.135  0.00  0.00    +0.000 A 
ATOM     12  C   UNL     1       1.365   9.256  17.861  0.00  0.00    +0.000 A 
ATOM     13  N   UNL     1       2.061   8.119  17.609  0.00  0.00    +0.000 NA
ENDBRANCH   5   8
BRANCH   1  14
ATOM     14  C   UNL     1       7.490   4.448  17.032  0.00  0.00    +0.000 C 
BRANCH  14  18
ATOM     15  C   UNL     1       5.924   4.172  13.870  0.00  0.00    +0.000 A 
ATOM     16  N   UNL     1       6.945   4.903  13.475  0.00  0.00    +0.000 NA
ATOM     17  N   UNL     1       7.717   5.136  14.598  0.00  0.00    +0.000 NA
ATOM     18  C   UNL     1       7.107   4.540  15.598  0.00  0.00    +0.000 A 
ATOM     19  O   UNL     1       5.957   3.901  15.214  0.00  0.00    +0.000 OA
BRANCH  15  20
ATOM     20  C   UNL     1       4.771   3.640  13.099  0.00  0.00    +0.000 C 
BRANCH  20  22
ATOM     21  C   UNL     1       5.813   1.926  11.525  0.00  0.00    +0.000 C 
ATOM     22  C   UNL     1       5.117   3.284  11.641  0.00  0.00    +0.000 C 
ATOM     23  C   UNL     1       3.841   3.275  10.789  0.00  0.00    +0.000 C 
ENDBRANCH  20  22
ENDBRANCH  15  20
ENDBRANCH  14  18
ENDBRANCH   1  14
TORSDOF 5
ENDMDL
MODEL 5
REMARK VINA RESULT:      -7.2      5.030      7.461
REMARK  Name = 
REMARK  7 active torsions:
REMARK  status: ('A' for Active; 'I' for Inactive)
REMARK    1  A    between atoms: C_1  and  C_2
REMARK    2  A    between atoms: C_2  and  C_3
REMARK    3  A    between atoms: C_2  and  C_4
REMARK    4  A    between atoms: C_4  and  C_5
REMARK    5  A    between atoms: C_8  and  C_9
REMARK    6  A    between atoms: C_9  and  C_10
REMARK    7  A    between atoms: C_14  and  C_16
REMARK                            x       y       z     vdW  Elec       q    Type
REMARK                         _______ _______ _______ _____ _____    ______ ____
ROOT
ATOM      1  C   UNL     1       6.250   6.925  18.146  0.00  0.00    +0.000 C 
ATOM      2  C   UNL     1       5.108   6.786  17.128  0.00  0.00    +0.000 C 
ATOM      3  C   UNL     1       4.051   6.012  17.915  0.00  0.00    +0.000 C 
ATOM      4  N   UNL     1       4.845   5.110  18.738  0.00  0.00    +0.000 N 
ATOM      5  C   UNL     1       4.517   3.857  19.220  0.00  0.00    +0.000 C 
ATOM      6  O   UNL     1       5.373   3.116  19.710  0.00  0.00    +0.000 OA
ATOM      7  C   UNL     1       6.212   5.576  18.859  0.00  0.00    +0.000 C 
ENDROOT
BRANCH   5   8
ATOM      8  C   UNL     1       3.123   3.342  19.138  0.00  0.00    +0.000 A 
ATOM      9  C   UNL     1       2.732   2.689  17.976  0.00  0.00    +0.000 A 
ATOM     10  N   UNL     1       1.502   2.131  17.825  0.00  0.00    +0.000 NA
ATOM     11  C   UNL     1       0.694   2.233  18.904  0.00  0.00    +0.000 A 
ATOM     12  C   UNL     1       1.083   2.878  20.069  0.00  0.00    +0.000 A 
ATOM     13  N   UNL     1       2.301   3.459  20.217  0.00  0.00    +0.000 NA
ENDBRANCH   5   8
BRANCH   1  14
ATOM     14  C   UNL     1       7.618   7.213  17.524  0.00  0.00    +0.000 C 
BRANCH  14  18
ATOM     15  C   UNL     1       9.062  10.124  18.925  0.00  0.00    +0.000 A 
ATOM     16  N   UNL     1       8.502  10.711  17.889  0.00  0.00    +0.000 NA
ATOM     17  N   UNL     1       7.856   9.718  17.177  0.00  0.00    +0.000 NA
ATOM     18  C   UNL     1       8.078   8.594  17.824  0.00  0.00    +0.000 A 
ATOM     19  O   UNL     1       8.838   8.771  18.950  0.00  0.00    +0.000 OA
BRANCH  15  20
ATOM     20  C   UNL     1       9.894  10.695  20.016  0.00  0.00    +0.000 C 
BRANCH  20  22
ATOM     21  C   UNL     1      10.460  13.086  20.694  0.00  0.00    +0.000 C 
ATOM     22  C   UNL     1      10.610  12.001  19.626  0.00  0.00    +0.000 C 
ATOM     23  C   UNL     1      12.100  11.728  19.385  0.00  0.00    +0.000 C 
ENDBRANCH  20  22
ENDBRANCH  15  20
ENDBRANCH  14  18
ENDBRANCH   1  14
TORSDOF 5
ENDMDL
MODEL 6
REMARK VINA RESULT:      -7.2      4.016      5.424
REMARK  Name = 
REMARK  7 active torsions:
REMARK  status: ('A' for Active; 'I' for Inactive)
REMARK    1  A    between atoms: C_1  and  C_2
REMARK    2  A    between atoms: C_2  and  C_3
REMARK    3  A    between atoms: C_2  and  C_4
REMARK    4  A    between atoms: C_4  and  C_5
REMARK    5  A    between atoms: C_8  and  C_9
REMARK    6  A    between atoms: C_9  and  C_10
REMARK    7  A    between atoms: C_14  and  C_16
REMARK                            x       y       z     vdW  Elec       q    Type
REMARK                         _______ _______ _______ _____ _____    ______ ____
ROOT
ATOM      1  C   UNL     1       2.636   7.227  18.175  0.00  0.00    +0.000 C 
ATOM      2  C   UNL     1       2.428   7.253  19.697  0.00  0.00    +0.000 C 
ATOM      3  C   UNL     1       1.322   8.294  19.867  0.00  0.00    +0.000 C 
ATOM      4  N   UNL     1       1.622   9.269  18.827  0.00  0.00    +0.000 N 
ATOM      5  C   UNL     1       1.364  10.626  18.808  0.00  0.00    +0.000 C 
ATOM      6  O   UNL     1       1.878  11.364  17.964  0.00  0.00    +0.000 OA
ATOM      7  C   UNL     1       2.476   8.699  17.804  0.00  0.00    +0.000 C 
ENDROOT
BRANCH   5   8
ATOM      8  C   UNL     1       0.476  11.255  19.825  0.00  0.00    +0.000 A 
ATOM      9  C   UNL     1       1.068  11.921  20.890  0.00  0.00    +0.000 A 
ATOM     10  N   UNL     1       0.347  12.578  21.838  0.00  0.00    +0.000 NA
ATOM     11  C   UNL     1      -0.991  12.559  21.650  0.00  0.00    +0.000 A 
ATOM     12  C   UNL     1      -1.585  11.901  20.583  0.00  0.00    +0.000 A 
ATOM     13  N   UNL     1      -0.874  11.223  19.647  0.00  0.00    +0.000 NA
ENDBRANCH   5   8
BRANCH   1  14
ATOM     14  C   UNL     1       3.986   6.662  17.733  0.00  0.00    +0.000 C 
BRANCH  14  18
ATOM     15  C   UNL     1       3.859   3.352  18.979  0.00  0.00    +0.000 A 
ATOM     16  N   UNL     1       5.066   3.638  19.419  0.00  0.00    +0.000 NA
ATOM     17  N   UNL     1       5.327   4.938  19.028  0.00  0.00    +0.000 NA
ATOM     18  C   UNL     1       4.266   5.347  18.369  0.00  0.00    +0.000 A 
ATOM     19  O   UNL     1       3.285   4.394  18.296  0.00  0.00    +0.000 OA
BRANCH  15  20
ATOM     20  C   UNL     1       3.070   2.097  19.091  0.00  0.00    +0.000 C 
BRANCH  20  22
ATOM     21  C   UNL     1       2.199   3.096  21.269  0.00  0.00    +0.000 C 
ATOM     22  C   UNL     1       1.885   2.201  20.068  0.00  0.00    +0.000 C 
ATOM     23  C   UNL     1       0.652   2.746  19.338  0.00  0.00    +0.000 C 
ENDBRANCH  20  22
ENDBRANCH  15  20
ENDBRANCH  14  18
ENDBRANCH   1  14
TORSDOF 5
ENDMDL
MODEL 7
REMARK VINA RESULT:      -7.2      3.539      5.103
REMARK  Name = 
REMARK  7 active torsions:
REMARK  status: ('A' for Active; 'I' for Inactive)
REMARK    1  A    between atoms: C_1  and  C_2
REMARK    2  A    between atoms: C_2  and  C_3
REMARK    3  A    between atoms: C_2  and  C_4
REMARK    4  A    between atoms: C_4  and  C_5
REMARK    5  A    between atoms: C_8  and  C_9
REMARK    6  A    between atoms: C_9  and  C_10
REMARK    7  A    between atoms: C_14  and  C_16
REMARK                            x       y       z     vdW  Elec       q    Type
REMARK                         _______ _______ _______ _____ _____    ______ ____
ROOT
ATOM      1  C   UNL     1       2.406   7.300  19.281  0.00  0.00    +0.000 C 
ATOM      2  C   UNL     1       1.871   8.206  18.161  0.00  0.00    +0.000 C 
ATOM      3  C   UNL     1       1.594   9.517  18.895  0.00  0.00    +0.000 C 
ATOM      4  N   UNL     1       1.132   9.074  20.203  0.00  0.00    +0.000 N 
ATOM      5  C   UNL     1       0.254   9.695  21.072  0.00  0.00    +0.000 C 
ATOM      6  O   UNL     1      -0.220   9.095  22.039  0.00  0.00    +0.000 OA
ATOM      7  C   UNL     1       1.536   7.707  20.467  0.00  0.00    +0.000 C 
ENDROOT
BRANCH   5   8
ATOM      8  C   UNL     1      -0.173  11.104  20.856  0.00  0.00    +0.000 A 
ATOM      9  C   UNL     1      -1.229  11.343  19.984  0.00  0.00    +0.000 A 
ATOM     10  N   UNL     1      -1.733  12.586  19.764  0.00  0.00    +0.000 NA
ATOM     11  C   UNL     1      -1.148  13.572  20.481  0.00  0.00    +0.000 A 
ATOM     12  C   UNL     1      -0.100  13.337  21.357  0.00  0.00    +0.000 A 
ATOM     13  N   UNL     1       0.425  12.102  21.563  0.00  0.00    +0.000 NA
ENDBRANCH   5   8
BRANCH   1  14
ATOM     14  C   UNL     1       2.311   5.803  18.980  0.00  0.00    +0.000 C 
BRANCH  14  18
ATOM     15  C   UNL     1       5.749   5.001  19.230  0.00  0.00    +0.000 A 
ATOM     16  N   UNL     1       5.294   3.769  19.320  0.00  0.00    +0.000 NA
ATOM     17  N   UNL     1       3.917   3.853  19.240  0.00  0.00    +0.000 NA
ATOM     18  C   UNL     1       3.630   5.130  19.118  0.00  0.00    +0.000 A 
ATOM     19  O   UNL     1       4.745   5.926  19.102  0.00  0.00    +0.000 OA
BRANCH  15  20
ATOM     20  C   UNL     1       7.143   5.513  19.272  0.00  0.00    +0.000 C 
BRANCH  20  22
ATOM     21  C   UNL     1       7.115   4.982  16.779  0.00  0.00    +0.000 C 
ATOM     22  C   UNL     1       7.717   5.852  17.885  0.00  0.00    +0.000 C 
ATOM     23  C   UNL     1       7.464   7.330  17.562  0.00  0.00    +0.000 C 
ENDBRANCH  20  22
ENDBRANCH  15  20
ENDBRANCH  14  18
ENDBRANCH   1  14
TORSDOF 5
ENDMDL
MODEL 8
REMARK VINA RESULT:      -7.1      3.343      4.964
REMARK  Name = 
REMARK  7 active torsions:
REMARK  status: ('A' for Active; 'I' for Inactive)
REMARK    1  A    between atoms: C_1  and  C_2
REMARK    2  A    between atoms: C_2  and  C_3
REMARK    3  A    between atoms: C_2  and  C_4
REMARK    4  A    between atoms: C_4  and  C_5
REMARK    5  A    between atoms: C_8  and  C_9
REMARK    6  A    between atoms: C_9  and  C_10
REMARK    7  A    between atoms: C_14  and  C_16
REMARK                            x       y       z     vdW  Elec       q    Type
REMARK                         _______ _______ _______ _____ _____    ______ ____
ROOT
ATOM      1  C   UNL     1       2.451   7.023  19.772  0.00  0.00    +0.000 C 
ATOM      2  C   UNL     1       2.141   7.512  18.349  0.00  0.00    +0.000 C 
ATOM      3  C   UNL     1       1.910   9.009  18.553  0.00  0.00    +0.000 C 
ATOM      4  N   UNL     1       1.258   9.070  19.854  0.00  0.00    +0.000 N 
ATOM      5  C   UNL     1       0.351   9.998  20.329  0.00  0.00    +0.000 C 
ATOM      6  O   UNL     1      -0.289   9.796  21.364  0.00  0.00    +0.000 OA
ATOM      7  C   UNL     1       1.493   7.860  20.616  0.00  0.00    +0.000 C 
ENDROOT
BRANCH   5   8
ATOM      8  C   UNL     1       0.091  11.266  19.593  0.00  0.00    +0.000 A 
ATOM      9  C   UNL     1      -1.003  11.316  18.738  0.00  0.00    +0.000 A 
ATOM     10  N   UNL     1      -1.360  12.443  18.067  0.00  0.00    +0.000 NA
ATOM     11  C   UNL     1      -0.587  13.523  18.316  0.00  0.00    +0.000 A 
ATOM     12  C   UNL     1       0.501  13.479  19.175  0.00  0.00    +0.000 A 
ATOM     13  N   UNL     1       0.878  12.352  19.828  0.00  0.00    +0.000 NA
ENDBRANCH   5   8
BRANCH   1  14
ATOM     14  C   UNL     1       2.246   5.522  19.982  0.00  0.00    +0.000 C 
BRANCH  14  18
ATOM     15  C   UNL     1       5.455   4.444  18.948  0.00  0.00    +0.000 A 
ATOM     16  N   UNL     1       5.021   3.271  19.361  0.00  0.00    +0.000 NA
ATOM     17  N   UNL     1       3.734   3.470  19.822  0.00  0.00    +0.000 NA
ATOM     18  C   UNL     1       3.478   4.750  19.669  0.00  0.00    +0.000 A 
ATOM     19  O   UNL     1       4.525   5.438  19.115  0.00  0.00    +0.000 OA
BRANCH  15  20
ATOM     20  C   UNL     1       6.769   4.832  18.372  0.00  0.00    +0.000 C 
BRANCH  20  22
ATOM     21  C   UNL     1       7.562   7.100  17.521  0.00  0.00    +0.000 C 
ATOM     22  C   UNL     1       6.665   5.888  17.258  0.00  0.00    +0.000 C 
ATOM     23  C   UNL     1       7.040   5.263  15.909  0.00  0.00    +0.000 C 
ENDBRANCH  20  22
ENDBRANCH  15  20
ENDBRANCH  14  18
ENDBRANCH   1  14
TORSDOF 5
ENDMDL
MODEL 9
REMARK VINA RESULT:      -7.1      2.565      4.192
REMARK  Name = 
REMARK  7 active torsions:
REMARK  status: ('A' for Active; 'I' for Inactive)
REMARK    1  A    between atoms: C_1  and  C_2
REMARK    2  A    between atoms: C_2  and  C_3
REMARK    3  A    between atoms: C_2  and  C_4
REMARK    4  A    between atoms: C_4  and  C_5
REMARK    5  A    between atoms: C_8  and  C_9
REMARK    6  A    between atoms: C_9  and  C_10
REMARK    7  A    between atoms: C_14  and  C_16
REMARK                            x       y       z     vdW  Elec       q    Type
REMARK                         _______ _______ _______ _____ _____    ______ ____
ROOT
ATOM      1  C   UNL     1       2.653   6.866  19.442  0.00  0.00    +0.000 C 
ATOM      2  C   UNL     1       2.275   7.383  18.045  0.00  0.00    +0.000 C 
ATOM      3  C   UNL     1       2.030   8.871  18.294  0.00  0.00    +0.000 C 
ATOM      4  N   UNL     1       1.433   8.891  19.623  0.00  0.00    +0.000 N 
ATOM      5  C   UNL     1       0.532   9.792  20.158  0.00  0.00    +0.000 C 
ATOM      6  O   UNL     1      -0.060   9.555  21.213  0.00  0.00    +0.000 OA
ATOM      7  C   UNL     1       1.719   7.667  20.345  0.00  0.00    +0.000 C 
ENDROOT
BRANCH   5   8
ATOM      8  C   UNL     1       0.222  11.073  19.464  0.00  0.00    +0.000 A 
ATOM      9  C   UNL     1      -0.942  11.144  18.709  0.00  0.00    +0.000 A 
ATOM     10  N   UNL     1      -1.345  12.283  18.086  0.00  0.00    +0.000 NA
ATOM     11  C   UNL     1      -0.542  13.353  18.282  0.00  0.00    +0.000 A 
ATOM     12  C   UNL     1       0.616  13.288  19.042  0.00  0.00    +0.000 A 
ATOM     13  N   UNL     1       1.038  12.148  19.645  0.00  0.00    +0.000 NA
ENDBRANCH   5   8
BRANCH   1  14
ATOM     14  C   UNL     1       2.480   5.357  19.624  0.00  0.00    +0.000 C 
BRANCH  14  18
ATOM     15  C   UNL     1       5.035   4.171  17.482  0.00  0.00    +0.000 A 
ATOM     16  N   UNL     1       4.176   3.200  17.252  0.00  0.00    +0.000 NA
ATOM     17  N   UNL     1       3.060   3.476  18.018  0.00  0.00    +0.000 NA
ATOM     18  C   UNL     1       3.322   4.589  18.668  0.00  0.00    +0.000 A 
ATOM     19  O   UNL     1       4.561   5.094  18.378  0.00  0.00    +0.000 OA
BRANCH  15  20
ATOM     20  C   UNL     1       6.405   4.385  16.946  0.00  0.00    +0.000 C 
BRANCH  20  22
ATOM     21  C   UNL     1       6.200   3.921  14.448  0.00  0.00    +0.000 C 
ATOM     22  C   UNL     1       6.425   4.982  15.528  0.00  0.00    +0.000 C 
ATOM     23  C   UNL     1       5.351   6.069  15.403  0.00  0.00    +0.000 C 
ENDBRANCH  20  22
ENDBRANCH  15  20
ENDBRANCH  14  18
ENDBRANCH   1  14
TORSDOF 5
ENDMDL
