MODEL 1
REMARK VINA RESULT:      -7.9      0.000      0.000
REMARK  Name = 
REMARK  4 active torsions:
REMARK  status: ('A' for Active; 'I' for Inactive)
REMARK    1  A    between atoms: C_2  and  C_3
REMARK    2  A    between atoms: C_3  and  S_4
REMARK    3  A    between atoms: S_4  and  C_5
REMARK    4  A    between atoms: C_7  and  C_8
REMARK                            x       y       z     vdW  Elec       q    Type
REMARK                         _______ _______ _______ _____ _____    ______ ____
ROOT
ATOM      1  C   UNL     1       7.002   4.796  15.906  0.00  0.00    +0.000 A 
ATOM      2  N   UNL     1       6.219   3.968  15.252  0.00  0.00    +0.000 NA
ATOM      3  C   UNL     1       6.514   4.253  13.935  0.00  0.00    +0.000 A 
ATOM      4  N   UNL     1       7.396   5.255  13.776  0.00  0.00    +0.000 NA
ATOM      5  O   UNL     1       7.719   5.612  15.083  0.00  0.00    +0.000 OA
ENDROOT
BRANCH   3   6
ATOM      6  C   UNL     1       5.918   3.509  12.830  0.00  0.00    +0.000 A 
ATOM      7  C   UNL     1       6.633   2.476  12.205  0.00  0.00    +0.000 A 
ATOM      8  C   UNL     1       6.082   1.773  11.133  0.00  0.00    +0.000 A 
ATOM      9  C   UNL     1       4.807   2.095  10.670  0.00  0.00    +0.000 A 
ATOM     10  C   UNL     1       4.084   3.118  11.282  0.00  0.00    +0.000 A 
ATOM     11  C   UNL     1       4.634   3.818  12.356  0.00  0.00    +0.000 A 
ENDBRANCH   3   6
BRANCH   1  12
ATOM     12  S   UNL     1       7.129   4.842  17.639  0.00  0.00    +0.000 S 
BRANCH  12  13
ATOM     13  C   UNL     1       5.369   4.965  18.076  0.00  0.00    +0.000 C 
BRANCH  13  15
ATOM     14  O   UNL     1       5.449   3.269  19.803  0.00  0.00    +0.000 OA
ATOM     15  C   UNL     1       4.848   3.747  18.838  0.00  0.00    +0.000 C 
ATOM     16  N   UNL     1       3.645   3.194  18.399  0.00  0.00    +0.000 N 
ATOM     17  C   UNL     1       2.788   3.725  17.339  0.00  0.00    +0.000 C 
ATOM     18  C   UNL     1       1.392   4.036  17.884  0.00  0.00    +0.000 C 
ATOM     19  C   UNL     1       0.791   2.839  18.621  0.00  0.00    +0.000 C 
ATOM     20  C   UNL     1       1.753   2.294  19.676  0.00  0.00    +0.000 C 
ATOM     21  C   UNL     1       3.124   2.005  19.071  0.00  0.00    +0.000 C 
ENDBRANCH  13  15
ENDBRANCH  12  13
ENDBRANCH   1  12
TORSDOF 4
ENDMDL
MODEL 2
REMARK VINA RESULT:      -7.9      1.089      1.591
REMARK  Name = 
REMARK  4 active torsions:
REMARK  status: ('A' for Active; 'I' for Inactive)
REMARK    1  A    between atoms: C_2  and  C_3
REMARK    2  A    between atoms: C_3  and  S_4
REMARK    3  A    between atoms: S_4  and  C_5
REMARK    4  A    between atoms: C_7  and  C_8
REMARK                            x       y       z     vdW  Elec       q    Type
REMARK                         _______ _______ _______ _____ _____    ______ ____
ROOT
ATOM      1  C   UNL     1       6.381   5.646  16.005  0.00  0.00    +0.000 A 
ATOM      2  N   UNL     1       5.654   4.897  15.208  0.00  0.00    +0.000 NA
ATOM      3  C   UNL     1       6.505   4.672  14.146  0.00  0.00    +0.000 A 
ATOM      4  N   UNL     1       7.687   5.303  14.251  0.00  0.00    +0.000 NA
ATOM      5  O   UNL     1       7.604   5.947  15.483  0.00  0.00    +0.000 OA
ENDROOT
BRANCH   3   6
ATOM      6  C   UNL     1       6.137   3.810  13.028  0.00  0.00    +0.000 A 
ATOM      7  C   UNL     1       4.812   3.776  12.567  0.00  0.00    +0.000 A 
ATOM      8  C   UNL     1       4.444   2.939  11.513  0.00  0.00    +0.000 A 
ATOM      9  C   UNL     1       5.397   2.122  10.906  0.00  0.00    +0.000 A 
ATOM     10  C   UNL     1       6.717   2.146  11.352  0.00  0.00    +0.000 A 
ATOM     11  C   UNL     1       7.086   2.986  12.403  0.00  0.00    +0.000 A 
ENDBRANCH   3   6
BRANCH   1  12
ATOM     12  S   UNL     1       5.854   6.190  17.570  0.00  0.00    +0.000 S 
BRANCH  12  13
ATOM     13  C   UNL     1       4.372   5.155  17.775  0.00  0.00    +0.000 C 
BRANCH  13  15
ATOM     14  O   UNL     1       5.603   3.845  19.397  0.00  0.00    +0.000 OA
ATOM     15  C   UNL     1       4.518   4.100  18.870  0.00  0.00    +0.000 C 
ATOM     16  N   UNL     1       3.358   3.433  19.262  0.00  0.00    +0.000 N 
ATOM     17  C   UNL     1       2.001   3.712  18.793  0.00  0.00    +0.000 C 
ATOM     18  C   UNL     1       1.092   4.082  19.967  0.00  0.00    +0.000 C 
ATOM     19  C   UNL     1       1.155   3.040  21.083  0.00  0.00    +0.000 C 
ATOM     20  C   UNL     1       2.599   2.749  21.493  0.00  0.00    +0.000 C 
ATOM     21  C   UNL     1       3.451   2.387  20.280  0.00  0.00    +0.000 C 
ENDBRANCH  13  15
ENDBRANCH  12  13
ENDBRANCH   1  12
TORSDOF 4
ENDMDL
MODEL 3
REMARK VINA RESULT:      -7.9      1.265      1.412
REMARK  Name = 
REMARK  4 active torsions:
REMARK  status: ('A' for Active; 'I' for Inactive)
REMARK    1  A    between atoms: C_2  and  C_3
REMARK    2  A    between atoms: C_3  and  S_4
REMARK    3  A    between atoms: S_4  and  C_5
REMARK    4  A    between atoms: C_7  and  C_8
REMARK                            x       y       z     vdW  Elec       q    Type
REMARK                         _______ _______ _______ _____ _____    ______ ____
ROOT
ATOM      1  C   UNL     1       6.220   5.883  16.202  0.00  0.00    +0.000 A 
ATOM      2  N   UNL     1       5.531   5.183  15.328  0.00  0.00    +0.000 NA
ATOM      3  C   UNL     1       6.491   4.831  14.402  0.00  0.00    +0.000 A 
ATOM      4  N   UNL     1       7.709   5.340  14.656  0.00  0.00    +0.000 NA
ATOM      5  O   UNL     1       7.528   6.036  15.849  0.00  0.00    +0.000 OA
ENDROOT
BRANCH   3   6
ATOM      6  C   UNL     1       6.188   3.970  13.264  0.00  0.00    +0.000 A 
ATOM      7  C   UNL     1       7.226   3.377  12.529  0.00  0.00    +0.000 A 
ATOM      8  C   UNL     1       6.949   2.571  11.424  0.00  0.00    +0.000 A 
ATOM      9  C   UNL     1       5.628   2.346  11.039  0.00  0.00    +0.000 A 
ATOM     10  C   UNL     1       4.587   2.927  11.760  0.00  0.00    +0.000 A 
ATOM     11  C   UNL     1       4.863   3.731  12.866  0.00  0.00    +0.000 A 
ENDBRANCH   3   6
BRANCH   1  12
ATOM     12  S   UNL     1       5.546   6.537  17.665  0.00  0.00    +0.000 S 
BRANCH  12  13
ATOM     13  C   UNL     1       4.128   5.420  17.880  0.00  0.00    +0.000 C 
BRANCH  13  15
ATOM     14  O   UNL     1       5.508   4.075  19.346  0.00  0.00    +0.000 OA
ATOM     15  C   UNL     1       4.386   4.303  18.891  0.00  0.00    +0.000 C 
ATOM     16  N   UNL     1       3.284   3.548  19.292  0.00  0.00    +0.000 N 
ATOM     17  C   UNL     1       1.892   3.782  18.909  0.00  0.00    +0.000 C 
ATOM     18  C   UNL     1       1.027   4.022  20.148  0.00  0.00    +0.000 C 
ATOM     19  C   UNL     1       1.203   2.912  21.186  0.00  0.00    +0.000 C 
ATOM     20  C   UNL     1       2.679   2.676  21.504  0.00  0.00    +0.000 C 
ATOM     21  C   UNL     1       3.484   2.444  20.229  0.00  0.00    +0.000 C 
ENDBRANCH  13  15
ENDBRANCH  12  13
ENDBRANCH   1  12
TORSDOF 4
ENDMDL
MODEL 4
REMARK VINA RESULT:      -7.7      2.003      2.835
REMARK  Name = 
REMARK  4 active torsions:
REMARK  status: ('A' for Active; 'I' for Inactive)
REMARK    1  A    between atoms: C_2  and  C_3
REMARK    2  A    between atoms: C_3  and  S_4
REMARK    3  A    between atoms: S_4  and  C_5
REMARK    4  A    between atoms: C_7  and  C_8
REMARK                            x       y       z     vdW  Elec       q    Type
REMARK                         _______ _______ _______ _____ _____    ______ ____
ROOT
ATOM      1  C   UNL     1       6.107   5.196  17.828  0.00  0.00    +0.000 A 
ATOM      2  N   UNL     1       5.736   5.238  16.569  0.00  0.00    +0.000 NA
ATOM      3  C   UNL     1       6.860   4.787  15.908  0.00  0.00    +0.000 A 
ATOM      4  N   UNL     1       7.904   4.534  16.716  0.00  0.00    +0.000 NA
ATOM      5  O   UNL     1       7.404   4.804  17.987  0.00  0.00    +0.000 OA
ENDROOT
BRANCH   3   6
ATOM      6  C   UNL     1       6.883   4.597  14.462  0.00  0.00    +0.000 A 
ATOM      7  C   UNL     1       6.053   3.639  13.861  0.00  0.00    +0.000 A 
ATOM      8  C   UNL     1       6.083   3.433  12.481  0.00  0.00    +0.000 A 
ATOM      9  C   UNL     1       6.946   4.183  11.683  0.00  0.00    +0.000 A 
ATOM     10  C   UNL     1       7.775   5.140  12.266  0.00  0.00    +0.000 A 
ATOM     11  C   UNL     1       7.743   5.348  13.645  0.00  0.00    +0.000 A 
ENDBRANCH   3   6
BRANCH   1  12
ATOM     12  S   UNL     1       5.060   5.583  19.160  0.00  0.00    +0.000 S 
BRANCH  12  13
ATOM     13  C   UNL     1       3.516   5.910  18.256  0.00  0.00    +0.000 C 
BRANCH  13  15
ATOM     14  O   UNL     1       2.597   4.010  17.069  0.00  0.00    +0.000 OA
ATOM     15  C   UNL     1       2.629   4.674  18.107  0.00  0.00    +0.000 C 
ATOM     16  N   UNL     1       1.854   4.317  19.209  0.00  0.00    +0.000 N 
ATOM     17  C   UNL     1       1.877   4.956  20.525  0.00  0.00    +0.000 C 
ATOM     18  C   UNL     1       2.249   3.941  21.608  0.00  0.00    +0.000 C 
ATOM     19  C   UNL     1       1.366   2.695  21.544  0.00  0.00    +0.000 C 
ATOM     20  C   UNL     1       1.336   2.105  20.134  0.00  0.00    +0.000 C 
ATOM     21  C   UNL     1       0.960   3.165  19.104  0.00  0.00    +0.000 C 
ENDBRANCH  13  15
ENDBRANCH  12  13
ENDBRANCH   1  12
TORSDOF 4
ENDMDL
MODEL 5
REMARK VINA RESULT:      -7.6      4.811      7.134
REMARK  Name = 
REMARK  4 active torsions:
REMARK  status: ('A' for Active; 'I' for Inactive)
REMARK    1  A    between atoms: C_2  and  C_3
REMARK    2  A    between atoms: C_3  and  S_4
REMARK    3  A    between atoms: S_4  and  C_5
REMARK    4  A    between atoms: C_7  and  C_8
REMARK                            x       y       z     vdW  Elec       q    Type
REMARK                         _______ _______ _______ _____ _____    ______ ____
ROOT
ATOM      1  C   UNL     1       7.639   6.925  18.041  0.00  0.00    +0.000 A 
ATOM      2  N   UNL     1       8.516   7.629  18.720  0.00  0.00    +0.000 NA
ATOM      3  C   UNL     1       8.337   8.901  18.216  0.00  0.00    +0.000 A 
ATOM      4  N   UNL     1       7.432   8.973  17.224  0.00  0.00    +0.000 NA
ATOM      5  O   UNL     1       6.970   7.664  17.110  0.00  0.00    +0.000 OA
ENDROOT
BRANCH   3   6
ATOM      6  C   UNL     1       9.067  10.051  18.738  0.00  0.00    +0.000 A 
ATOM      7  C   UNL     1       9.726  10.928  17.863  0.00  0.00    +0.000 A 
ATOM      8  C   UNL     1      10.447  12.017  18.352  0.00  0.00    +0.000 A 
ATOM      9  C   UNL     1      10.519  12.245  19.726  0.00  0.00    +0.000 A 
ATOM     10  C   UNL     1       9.869  11.383  20.607  0.00  0.00    +0.000 A 
ATOM     11  C   UNL     1       9.145  10.295  20.118  0.00  0.00    +0.000 A 
ENDBRANCH   3   6
BRANCH   1  12
ATOM     12  S   UNL     1       7.345   5.232  18.304  0.00  0.00    +0.000 S 
BRANCH  12  13
ATOM     13  C   UNL     1       5.706   5.320  19.086  0.00  0.00    +0.000 C 
BRANCH  13  15
ATOM     14  O   UNL     1       4.844   4.018  17.235  0.00  0.00    +0.000 OA
ATOM     15  C   UNL     1       4.602   4.668  18.254  0.00  0.00    +0.000 C 
ATOM     16  N   UNL     1       3.292   4.833  18.703  0.00  0.00    +0.000 N 
ATOM     17  C   UNL     1       2.881   5.489  19.944  0.00  0.00    +0.000 C 
ATOM     18  C   UNL     1       2.095   4.520  20.829  0.00  0.00    +0.000 C 
ATOM     19  C   UNL     1       0.942   3.864  20.068  0.00  0.00    +0.000 C 
ATOM     20  C   UNL     1       1.422   3.245  18.755  0.00  0.00    +0.000 C 
ATOM     21  C   UNL     1       2.198   4.261  17.921  0.00  0.00    +0.000 C 
ENDBRANCH  13  15
ENDBRANCH  12  13
ENDBRANCH   1  12
TORSDOF 4
ENDMDL
MODEL 6
REMARK VINA RESULT:      -7.6      1.940      2.635
REMARK  Name = 
REMARK  4 active torsions:
REMARK  status: ('A' for Active; 'I' for Inactive)
REMARK    1  A    between atoms: C_2  and  C_3
REMARK    2  A    between atoms: C_3  and  S_4
REMARK    3  A    between atoms: S_4  and  C_5
REMARK    4  A    between atoms: C_7  and  C_8
REMARK                            x       y       z     vdW  Elec       q    Type
REMARK                         _______ _______ _______ _____ _____    ______ ____
ROOT
ATOM      1  C   UNL     1       6.293   5.423  17.648  0.00  0.00    +0.000 A 
ATOM      2  N   UNL     1       5.898   4.780  16.573  0.00  0.00    +0.000 NA
ATOM      3  C   UNL     1       6.787   5.222  15.615  0.00  0.00    +0.000 A 
ATOM      4  N   UNL     1       7.656   6.145  16.060  0.00  0.00    +0.000 NA
ATOM      5  O   UNL     1       7.329   6.276  17.407  0.00  0.00    +0.000 OA
ENDROOT
BRANCH   3   6
ATOM      6  C   UNL     1       6.771   4.708  14.249  0.00  0.00    +0.000 A 
ATOM      7  C   UNL     1       7.681   5.197  13.299  0.00  0.00    +0.000 A 
ATOM      8  C   UNL     1       7.660   4.729  11.984  0.00  0.00    +0.000 A 
ATOM      9  C   UNL     1       6.728   3.765  11.601  0.00  0.00    +0.000 A 
ATOM     10  C   UNL     1       5.819   3.270  12.535  0.00  0.00    +0.000 A 
ATOM     11  C   UNL     1       5.842   3.735  13.850  0.00  0.00    +0.000 A 
ENDBRANCH   3   6
BRANCH   1  12
ATOM     12  S   UNL     1       5.585   5.205  19.221  0.00  0.00    +0.000 S 
BRANCH  12  13
ATOM     13  C   UNL     1       3.964   5.978  18.941  0.00  0.00    +0.000 C 
BRANCH  13  15
ATOM     14  O   UNL     1       2.749   4.590  17.372  0.00  0.00    +0.000 OA
ATOM     15  C   UNL     1       2.880   4.981  18.534  0.00  0.00    +0.000 C 
ATOM     16  N   UNL     1       2.037   4.517  19.543  0.00  0.00    +0.000 N 
ATOM     17  C   UNL     1       2.150   4.822  20.970  0.00  0.00    +0.000 C 
ATOM     18  C   UNL     1       2.325   3.536  21.781  0.00  0.00    +0.000 C 
ATOM     19  C   UNL     1       1.241   2.508  21.454  0.00  0.00    +0.000 C 
ATOM     20  C   UNL     1       1.132   2.273  19.948  0.00  0.00    +0.000 C 
ATOM     21  C   UNL     1       0.960   3.591  19.198  0.00  0.00    +0.000 C 
ENDBRANCH  13  15
ENDBRANCH  12  13
ENDBRANCH   1  12
TORSDOF 4
ENDMDL
MODEL 7
REMARK VINA RESULT:      -7.5      1.287      1.602
REMARK  Name = 
REMARK  4 active torsions:
REMARK  status: ('A' for Active; 'I' for Inactive)
REMARK    1  A    between atoms: C_2  and  C_3
REMARK    2  A    between atoms: C_3  and  S_4
REMARK    3  A    between atoms: S_4  and  C_5
REMARK    4  A    between atoms: C_7  and  C_8
REMARK                            x       y       z     vdW  Elec       q    Type
REMARK                         _______ _______ _______ _____ _____    ______ ____
ROOT
ATOM      1  C   UNL     1       6.837   5.101  15.996  0.00  0.00    +0.000 A 
ATOM      2  N   UNL     1       6.059   4.292  15.314  0.00  0.00    +0.000 NA
ATOM      3  C   UNL     1       6.542   4.421  14.029  0.00  0.00    +0.000 A 
ATOM      4  N   UNL     1       7.536   5.317  13.906  0.00  0.00    +0.000 NA
ATOM      5  O   UNL     1       7.731   5.766  15.210  0.00  0.00    +0.000 OA
ENDROOT
BRANCH   3   6
ATOM      6  C   UNL     1       6.013   3.634  12.920  0.00  0.00    +0.000 A 
ATOM      7  C   UNL     1       6.817   2.674  12.286  0.00  0.00    +0.000 A 
ATOM      8  C   UNL     1       6.329   1.932  11.210  0.00  0.00    +0.000 A 
ATOM      9  C   UNL     1       5.028   2.140  10.752  0.00  0.00    +0.000 A 
ATOM     10  C   UNL     1       4.217   3.089  11.373  0.00  0.00    +0.000 A 
ATOM     11  C   UNL     1       4.704   3.829  12.451  0.00  0.00    +0.000 A 
ENDBRANCH   3   6
BRANCH   1  12
ATOM     12  S   UNL     1       6.753   5.300  17.721  0.00  0.00    +0.000 S 
BRANCH  12  13
ATOM     13  C   UNL     1       5.294   4.277  18.081  0.00  0.00    +0.000 C 
BRANCH  13  15
ATOM     14  O   UNL     1       4.025   6.218  18.780  0.00  0.00    +0.000 OA
ATOM     15  C   UNL     1       4.229   5.008  18.899  0.00  0.00    +0.000 C 
ATOM     16  N   UNL     1       3.482   4.241  19.791  0.00  0.00    +0.000 N 
ATOM     17  C   UNL     1       3.554   2.788  19.951  0.00  0.00    +0.000 C 
ATOM     18  C   UNL     1       2.190   2.150  19.679  0.00  0.00    +0.000 C 
ATOM     19  C   UNL     1       1.082   2.806  20.504  0.00  0.00    +0.000 C 
ATOM     20  C   UNL     1       1.092   4.326  20.340  0.00  0.00    +0.000 C 
ATOM     21  C   UNL     1       2.477   4.900  20.624  0.00  0.00    +0.000 C 
ENDBRANCH  13  15
ENDBRANCH  12  13
ENDBRANCH   1  12
TORSDOF 4
ENDMDL
MODEL 8
REMARK VINA RESULT:      -7.4      1.154      1.739
REMARK  Name = 
REMARK  4 active torsions:
REMARK  status: ('A' for Active; 'I' for Inactive)
REMARK    1  A    between atoms: C_2  and  C_3
REMARK    2  A    between atoms: C_3  and  S_4
REMARK    3  A    between atoms: S_4  and  C_5
REMARK    4  A    between atoms: C_7  and  C_8
REMARK                            x       y       z     vdW  Elec       q    Type
REMARK                         _______ _______ _______ _____ _____    ______ ____
ROOT
ATOM      1  C   UNL     1       6.683   5.204  16.026  0.00  0.00    +0.000 A 
ATOM      2  N   UNL     1       5.875   4.458  15.307  0.00  0.00    +0.000 NA
ATOM      3  C   UNL     1       6.481   4.466  14.068  0.00  0.00    +0.000 A 
ATOM      4  N   UNL     1       7.583   5.233  14.002  0.00  0.00    +0.000 NA
ATOM      5  O   UNL     1       7.716   5.720  15.300  0.00  0.00    +0.000 OA
ENDROOT
BRANCH   3   6
ATOM      6  C   UNL     1       5.959   3.692  12.947  0.00  0.00    +0.000 A 
ATOM      7  C   UNL     1       4.647   3.901  12.493  0.00  0.00    +0.000 A 
ATOM      8  C   UNL     1       4.129   3.150  11.436  0.00  0.00    +0.000 A 
ATOM      9  C   UNL     1       4.917   2.179  10.819  0.00  0.00    +0.000 A 
ATOM     10  C   UNL     1       6.222   1.962  11.259  0.00  0.00    +0.000 A 
ATOM     11  C   UNL     1       6.741   2.714  12.312  0.00  0.00    +0.000 A 
ENDBRANCH   3   6
BRANCH   1  12
ATOM     12  S   UNL     1       6.475   5.497  17.726  0.00  0.00    +0.000 S 
BRANCH  12  13
ATOM     13  C   UNL     1       5.124   4.332  18.078  0.00  0.00    +0.000 C 
BRANCH  13  15
ATOM     14  O   UNL     1       4.149   5.998  19.541  0.00  0.00    +0.000 OA
ATOM     15  C   UNL     1       4.168   4.825  19.165  0.00  0.00    +0.000 C 
ATOM     16  N   UNL     1       3.300   3.883  19.715  0.00  0.00    +0.000 N 
ATOM     17  C   UNL     1       3.152   2.491  19.288  0.00  0.00    +0.000 C 
ATOM     18  C   UNL     1       1.712   2.215  18.849  0.00  0.00    +0.000 C 
ATOM     19  C   UNL     1       0.702   2.643  19.914  0.00  0.00    +0.000 C 
ATOM     20  C   UNL     1       0.941   4.086  20.360  0.00  0.00    +0.000 C 
ATOM     21  C   UNL     1       2.392   4.295  20.784  0.00  0.00    +0.000 C 
ENDBRANCH  13  15
ENDBRANCH  12  13
ENDBRANCH   1  12
TORSDOF 4
ENDMDL
MODEL 9
REMARK VINA RESULT:      -7.4      1.433      2.258
REMARK  Name = 
REMARK  4 active torsions:
REMARK  status: ('A' for Active; 'I' for Inactive)
REMARK    1  A    between atoms: C_2  and  C_3
REMARK    2  A    between atoms: C_3  and  S_4
REMARK    3  A    between atoms: S_4  and  C_5
REMARK    4  A    between atoms: C_7  and  C_8
REMARK                            x       y       z     vdW  Elec       q    Type
REMARK                         _______ _______ _______ _____ _____    ______ ____
ROOT
ATOM      1  C   UNL     1       7.070   4.723  15.887  0.00  0.00    +0.000 A 
ATOM      2  N   UNL     1       6.321   3.875  15.221  0.00  0.00    +0.000 NA
ATOM      3  C   UNL     1       6.545   4.241  13.910  0.00  0.00    +0.000 A 
ATOM      4  N   UNL     1       7.350   5.308  13.770  0.00  0.00    +0.000 NA
ATOM      5  O   UNL     1       7.698   5.626  15.081  0.00  0.00    +0.000 OA
ENDROOT
BRANCH   3   6
ATOM      6  C   UNL     1       5.959   3.510  12.791  0.00  0.00    +0.000 A 
ATOM      7  C   UNL     1       4.664   3.818  12.345  0.00  0.00    +0.000 A 
ATOM      8  C   UNL     1       4.084   3.110  11.292  0.00  0.00    +0.000 A 
ATOM      9  C   UNL     1       4.792   2.083  10.669  0.00  0.00    +0.000 A 
ATOM     10  C   UNL     1       6.079   1.767  11.101  0.00  0.00    +0.000 A 
ATOM     11  C   UNL     1       6.660   2.476  12.152  0.00  0.00    +0.000 A 
ENDBRANCH   3   6
BRANCH   1  12
ATOM     12  S   UNL     1       7.261   4.697  17.615  0.00  0.00    +0.000 S 
BRANCH  12  13
ATOM     13  C   UNL     1       6.408   6.244  18.045  0.00  0.00    +0.000 C 
BRANCH  13  15
ATOM     14  O   UNL     1       4.631   6.861  16.520  0.00  0.00    +0.000 OA
ATOM     15  C   UNL     1       4.959   6.291  17.562  0.00  0.00    +0.000 C 
ATOM     16  N   UNL     1       4.009   5.647  18.355  0.00  0.00    +0.000 N 
ATOM     17  C   UNL     1       4.280   4.853  19.553  0.00  0.00    +0.000 C 
ATOM     18  C   UNL     1       3.767   3.422  19.375  0.00  0.00    +0.000 C 
ATOM     19  C   UNL     1       2.302   3.395  18.936  0.00  0.00    +0.000 C 
ATOM     20  C   UNL     1       2.070   4.286  17.715  0.00  0.00    +0.000 C 
ATOM     21  C   UNL     1       2.604   5.696  17.956  0.00  0.00    +0.000 C 
ENDBRANCH  13  15
ENDBRANCH  12  13
ENDBRANCH   1  12
TORSDOF 4
ENDMDL
