MODEL 1
REMARK VINA RESULT:      -8.6      0.000      0.000
REMARK  Name = 
REMARK  6 active torsions:
REMARK  status: ('A' for Active; 'I' for Inactive)
REMARK    1  A    between atoms: C_1  and  N_2
REMARK    2  A    between atoms: N_5  and  C_6
REMARK    3  A    between atoms: C_6  and  C_7
REMARK    4  A    between atoms: N_9  and  C_10
REMARK    5  A    between atoms: C_13  and  N_14
REMARK    6  A    between atoms: C_16  and  C_17
REMARK                            x       y       z     vdW  Elec       q    Type
REMARK                         _______ _______ _______ _____ _____    ______ ____
ROOT
ATOM      1  C   UNL     1       0.772   9.805  20.132  0.00  0.00    +0.000 A 
ATOM      2  C   UNL     1       0.166  10.919  19.548  0.00  0.00    +0.000 A 
ATOM      3  C   UNL     1      -0.697  11.719  20.291  0.00  0.00    +0.000 A 
ATOM      4  C   UNL     1      -0.912  11.448  21.650  0.00  0.00    +0.000 A 
ATOM      5  C   UNL     1      -0.277  10.370  22.247  0.00  0.00    +0.000 A 
ATOM      6  F   UNL     1      -0.487  10.035  23.528  0.00  0.00    +0.000 F 
ATOM      7  C   UNL     1       0.537   9.541  21.492  0.00  0.00    +0.000 A 
ENDROOT
BRANCH   1  10
ATOM      8  C   UNL     1       2.404   6.935  18.688  0.00  0.00    +0.000 C 
ATOM      9  C   UNL     1       2.025   7.686  19.933  0.00  0.00    +0.000 C 
ATOM     10  N   UNL     1       1.571   8.919  19.389  0.00  0.00    +0.000 N 
ATOM     11  C   UNL     1       2.093   9.069  18.113  0.00  0.00    +0.000 C 
ATOM     12  O   UNL     1       1.972  10.007  17.343  0.00  0.00    +0.000 OA
ATOM     13  O   UNL     1       2.858   7.958  17.805  0.00  0.00    +0.000 OA
BRANCH   8  14
ATOM     14  C   UNL     1       3.425   5.846  19.022  0.00  0.00    +0.000 C 
BRANCH  14  19
ATOM     15  C   UNL     1       1.462   2.402  21.806  0.00  0.00    +0.000 C 
ATOM     16  N   UNL     1       1.877   2.748  20.453  0.00  0.00    +0.000 NA
ATOM     17  C   UNL     1       3.319   3.032  20.399  0.00  0.00    +0.000 C 
ATOM     18  C   UNL     1       3.739   3.390  18.961  0.00  0.00    +0.000 C 
ATOM     19  N   UNL     1       3.029   4.564  18.400  0.00  0.00    +0.000 NA
ATOM     20  C   UNL     1       1.576   4.317  18.516  0.00  0.00    +0.000 C 
ATOM     21  C   UNL     1       1.107   3.890  19.925  0.00  0.00    +0.000 C 
ENDBRANCH  14  19
ENDBRANCH   8  14
ENDBRANCH   1  10
BRANCH   4  22
ATOM     22  N   UNL     1      -1.791  12.254  22.395  0.00  0.00    +0.000 N 
ATOM     23  C   UNL     1      -3.160  12.280  22.332  0.00  0.00    +0.000 A 
ATOM     24  C   UNL     1      -3.593  13.247  23.211  0.00  0.00    +0.000 A 
ATOM     25  C   UNL     1      -2.399  13.780  23.735  0.00  0.00    +0.000 A 
ATOM     26  N   UNL     1      -1.312  13.140  23.304  0.00  0.00    +0.000 NA
BRANCH  24  27
ATOM     27  C   UNL     1      -4.983  13.534  23.488  0.00  0.00    +0.000 A 
ATOM     28  C   UNL     1      -5.446  14.844  23.536  0.00  0.00    +0.000 A 
ATOM     29  C   UNL     1      -6.778  15.067  23.859  0.00  0.00    +0.000 A 
ATOM     30  C   UNL     1      -7.607  13.983  24.127  0.00  0.00    +0.000 A 
ATOM     31  C   UNL     1      -7.066  12.713  24.052  0.00  0.00    +0.000 A 
ATOM     32  N   UNL     1      -5.778  12.466  23.743  0.00  0.00    +0.000 NA
ENDBRANCH  24  27
ENDBRANCH   4  22
TORSDOF 5
ENDMDL
MODEL 2
REMARK VINA RESULT:      -8.2      1.773      2.695
REMARK  Name = 
REMARK  6 active torsions:
REMARK  status: ('A' for Active; 'I' for Inactive)
REMARK    1  A    between atoms: C_1  and  N_2
REMARK    2  A    between atoms: N_5  and  C_6
REMARK    3  A    between atoms: C_6  and  C_7
REMARK    4  A    between atoms: N_9  and  C_10
REMARK    5  A    between atoms: C_13  and  N_14
REMARK    6  A    between atoms: C_16  and  C_17
REMARK                            x       y       z     vdW  Elec       q    Type
REMARK                         _______ _______ _______ _____ _____    ______ ____
ROOT
ATOM      1  C   UNL     1       0.851   9.383  20.154  0.00  0.00    +0.000 A 
ATOM      2  C   UNL     1       0.936   9.327  21.546  0.00  0.00    +0.000 A 
ATOM      3  C   UNL     1       0.186  10.198  22.331  0.00  0.00    +0.000 A 
ATOM      4  C   UNL     1      -0.709  11.094  21.729  0.00  0.00    +0.000 A 
ATOM      5  C   UNL     1      -0.832  11.122  20.349  0.00  0.00    +0.000 A 
ATOM      6  F   UNL     1      -1.632  11.994  19.719  0.00  0.00    +0.000 F 
ATOM      7  C   UNL     1      -0.043  10.294  19.567  0.00  0.00    +0.000 A 
ENDROOT
BRANCH   1  10
ATOM      8  C   UNL     1       2.540   6.696  18.447  0.00  0.00    +0.000 C 
ATOM      9  C   UNL     1       2.156   7.325  19.757  0.00  0.00    +0.000 C 
ATOM     10  N   UNL     1       1.664   8.588  19.328  0.00  0.00    +0.000 N 
ATOM     11  C   UNL     1       2.167   8.863  18.065  0.00  0.00    +0.000 C 
ATOM     12  O   UNL     1       2.012   9.862  17.383  0.00  0.00    +0.000 OA
ATOM     13  O   UNL     1       2.957   7.805  17.653  0.00  0.00    +0.000 OA
BRANCH   8  14
ATOM     14  C   UNL     1       3.593   5.610  18.673  0.00  0.00    +0.000 C 
BRANCH  14  19
ATOM     15  C   UNL     1       1.537   2.446  21.710  0.00  0.00    +0.000 C 
ATOM     16  N   UNL     1       1.931   2.688  20.329  0.00  0.00    +0.000 NA
ATOM     17  C   UNL     1       3.384   2.894  20.223  0.00  0.00    +0.000 C 
ATOM     18  C   UNL     1       3.782   3.142  18.755  0.00  0.00    +0.000 C 
ATOM     19  N   UNL     1       3.116   4.316  18.141  0.00  0.00    +0.000 NA
ATOM     20  C   UNL     1       1.656   4.151  18.307  0.00  0.00    +0.000 C 
ATOM     21  C   UNL     1       1.205   3.834  19.751  0.00  0.00    +0.000 C 
ENDBRANCH  14  19
ENDBRANCH   8  14
ENDBRANCH   1  10
BRANCH   4  22
ATOM     22  N   UNL     1      -1.459  11.977  22.525  0.00  0.00    +0.000 N 
ATOM     23  C   UNL     1      -1.041  13.154  23.090  0.00  0.00    +0.000 A 
ATOM     24  C   UNL     1      -2.098  13.660  23.813  0.00  0.00    +0.000 A 
ATOM     25  C   UNL     1      -3.107  12.690  23.652  0.00  0.00    +0.000 A 
ATOM     26  N   UNL     1      -2.756  11.709  22.820  0.00  0.00    +0.000 NA
BRANCH  24  27
ATOM     27  C   UNL     1      -2.081  14.931  24.505  0.00  0.00    +0.000 A 
ATOM     28  C   UNL     1      -3.233  15.699  24.617  0.00  0.00    +0.000 A 
ATOM     29  C   UNL     1      -3.151  16.935  25.243  0.00  0.00    +0.000 A 
ATOM     30  C   UNL     1      -1.925  17.371  25.736  0.00  0.00    +0.000 A 
ATOM     31  C   UNL     1      -0.829  16.541  25.585  0.00  0.00    +0.000 A 
ATOM     32  N   UNL     1      -0.878  15.338  24.981  0.00  0.00    +0.000 NA
ENDBRANCH  24  27
ENDBRANCH   4  22
TORSDOF 5
ENDMDL
MODEL 3
REMARK VINA RESULT:      -7.9      2.772     11.231
REMARK  Name = 
REMARK  6 active torsions:
REMARK  status: ('A' for Active; 'I' for Inactive)
REMARK    1  A    between atoms: C_1  and  N_2
REMARK    2  A    between atoms: N_5  and  C_6
REMARK    3  A    between atoms: C_6  and  C_7
REMARK    4  A    between atoms: N_9  and  C_10
REMARK    5  A    between atoms: C_13  and  N_14
REMARK    6  A    between atoms: C_16  and  C_17
REMARK                            x       y       z     vdW  Elec       q    Type
REMARK                         _______ _______ _______ _____ _____    ______ ____
ROOT
ATOM      1  C   UNL     1       0.590  10.193  20.767  0.00  0.00    +0.000 A 
ATOM      2  C   UNL     1       1.000   9.109  21.544  0.00  0.00    +0.000 A 
ATOM      3  C   UNL     1       1.613   8.010  20.948  0.00  0.00    +0.000 A 
ATOM      4  C   UNL     1       1.881   8.015  19.571  0.00  0.00    +0.000 A 
ATOM      5  C   UNL     1       1.517   9.109  18.802  0.00  0.00    +0.000 A 
ATOM      6  F   UNL     1       1.701   9.145  17.475  0.00  0.00    +0.000 F 
ATOM      7  C   UNL     1       0.856  10.177  19.387  0.00  0.00    +0.000 A 
ENDROOT
BRANCH   1  10
ATOM      8  C   UNL     1      -1.655  12.342  22.591  0.00  0.00    +0.000 C 
ATOM      9  C   UNL     1      -1.493  11.169  21.666  0.00  0.00    +0.000 C 
ATOM     10  N   UNL     1      -0.118  11.275  21.317  0.00  0.00    +0.000 N 
ATOM     11  C   UNL     1       0.309  12.573  21.556  0.00  0.00    +0.000 C 
ATOM     12  O   UNL     1       1.403  13.068  21.345  0.00  0.00    +0.000 OA
ATOM     13  O   UNL     1      -0.746  13.308  22.069  0.00  0.00    +0.000 OA
BRANCH   8  14
ATOM     14  C   UNL     1      -3.122  12.774  22.640  0.00  0.00    +0.000 C 
BRANCH  14  19
ATOM     15  C   UNL     1      -7.546  14.588  23.422  0.00  0.00    +0.000 C 
ATOM     16  N   UNL     1      -6.261  14.274  24.033  0.00  0.00    +0.000 NA
ATOM     17  C   UNL     1      -5.172  15.024  23.389  0.00  0.00    +0.000 C 
ATOM     18  C   UNL     1      -3.824  14.684  24.052  0.00  0.00    +0.000 C 
ATOM     19  N   UNL     1      -3.472  13.245  23.998  0.00  0.00    +0.000 NA
ATOM     20  C   UNL     1      -4.594  12.478  24.579  0.00  0.00    +0.000 C 
ATOM     21  C   UNL     1      -5.982  12.826  23.996  0.00  0.00    +0.000 C 
ENDBRANCH  14  19
ENDBRANCH   8  14
ENDBRANCH   1  10
BRANCH   4  22
ATOM     22  N   UNL     1       2.493   6.900  18.972  0.00  0.00    +0.000 N 
ATOM     23  C   UNL     1       3.606   6.886  18.172  0.00  0.00    +0.000 A 
ATOM     24  C   UNL     1       3.816   5.580  17.787  0.00  0.00    +0.000 A 
ATOM     25  C   UNL     1       2.747   4.881  18.380  0.00  0.00    +0.000 A 
ATOM     26  N   UNL     1       1.987   5.654  19.155  0.00  0.00    +0.000 NA
BRANCH  24  27
ATOM     27  C   UNL     1       4.939   5.136  16.990  0.00  0.00    +0.000 A 
ATOM     28  C   UNL     1       4.755   4.672  15.693  0.00  0.00    +0.000 A 
ATOM     29  C   UNL     1       5.858   4.206  14.989  0.00  0.00    +0.000 A 
ATOM     30  C   UNL     1       7.108   4.214  15.598  0.00  0.00    +0.000 A 
ATOM     31  C   UNL     1       7.203   4.697  16.890  0.00  0.00    +0.000 A 
ATOM     32  N   UNL     1       6.151   5.154  17.597  0.00  0.00    +0.000 NA
ENDBRANCH  24  27
ENDBRANCH   4  22
TORSDOF 5
ENDMDL
MODEL 4
REMARK VINA RESULT:      -7.9      0.872      1.308
REMARK  Name = 
REMARK  6 active torsions:
REMARK  status: ('A' for Active; 'I' for Inactive)
REMARK    1  A    between atoms: C_1  and  N_2
REMARK    2  A    between atoms: N_5  and  C_6
REMARK    3  A    between atoms: C_6  and  C_7
REMARK    4  A    between atoms: N_9  and  C_10
REMARK    5  A    between atoms: C_13  and  N_14
REMARK    6  A    between atoms: C_16  and  C_17
REMARK                            x       y       z     vdW  Elec       q    Type
REMARK                         _______ _______ _______ _____ _____    ______ ____
ROOT
ATOM      1  C   UNL     1       0.624  10.134  20.136  0.00  0.00    +0.000 A 
ATOM      2  C   UNL     1       0.030  11.276  19.596  0.00  0.00    +0.000 A 
ATOM      3  C   UNL     1      -0.832  12.050  20.368  0.00  0.00    +0.000 A 
ATOM      4  C   UNL     1      -1.056  11.724  21.714  0.00  0.00    +0.000 A 
ATOM      5  C   UNL     1      -0.432  10.617  22.268  0.00  0.00    +0.000 A 
ATOM      6  F   UNL     1      -0.651  10.230  23.532  0.00  0.00    +0.000 F 
ATOM      7  C   UNL     1       0.380   9.815  21.482  0.00  0.00    +0.000 A 
ENDROOT
BRANCH   1  10
ATOM      8  C   UNL     1       2.176   7.318  18.509  0.00  0.00    +0.000 C 
ATOM      9  C   UNL     1       1.749   7.962  19.797  0.00  0.00    +0.000 C 
ATOM     10  N   UNL     1       1.420   9.274  19.360  0.00  0.00    +0.000 N 
ATOM     11  C   UNL     1       2.050   9.517  18.148  0.00  0.00    +0.000 C 
ATOM     12  O   UNL     1       2.050  10.536  17.479  0.00  0.00    +0.000 OA
ATOM     13  O   UNL     1       2.764   8.391  17.777  0.00  0.00    +0.000 OA
BRANCH   8  14
ATOM     14  C   UNL     1       3.096   6.129  18.794  0.00  0.00    +0.000 C 
BRANCH  14  19
ATOM     15  C   UNL     1       4.646   1.829  20.399  0.00  0.00    +0.000 C 
ATOM     16  N   UNL     1       3.761   2.502  19.457  0.00  0.00    +0.000 NA
ATOM     17  C   UNL     1       4.525   3.351  18.530  0.00  0.00    +0.000 C 
ATOM     18  C   UNL     1       3.573   4.048  17.538  0.00  0.00    +0.000 C 
ATOM     19  N   UNL     1       2.545   4.899  18.186  0.00  0.00    +0.000 NA
ATOM     20  C   UNL     1       1.821   4.069  19.171  0.00  0.00    +0.000 C 
ATOM     21  C   UNL     1       2.730   3.293  20.152  0.00  0.00    +0.000 C 
ENDBRANCH  14  19
ENDBRANCH   8  14
ENDBRANCH   1  10
BRANCH   4  22
ATOM     22  N   UNL     1      -1.932  12.505  22.488  0.00  0.00    +0.000 N 
ATOM     23  C   UNL     1      -3.302  12.528  22.433  0.00  0.00    +0.000 A 
ATOM     24  C   UNL     1      -3.732  13.467  23.344  0.00  0.00    +0.000 A 
ATOM     25  C   UNL     1      -2.537  13.987  23.877  0.00  0.00    +0.000 A 
ATOM     26  N   UNL     1      -1.451  13.364  23.421  0.00  0.00    +0.000 NA
BRANCH  24  27
ATOM     27  C   UNL     1      -5.122  13.741  23.637  0.00  0.00    +0.000 A 
ATOM     28  C   UNL     1      -6.018  12.708  23.883  0.00  0.00    +0.000 A 
ATOM     29  C   UNL     1      -7.352  13.022  24.106  0.00  0.00    +0.000 A 
ATOM     30  C   UNL     1      -7.754  14.353  24.076  0.00  0.00    +0.000 A 
ATOM     31  C   UNL     1      -6.796  15.319  23.829  0.00  0.00    +0.000 A 
ATOM     32  N   UNL     1      -5.496  15.044  23.607  0.00  0.00    +0.000 NA
ENDBRANCH  24  27
ENDBRANCH   4  22
TORSDOF 5
ENDMDL
MODEL 5
REMARK VINA RESULT:      -7.8      1.322      2.317
REMARK  Name = 
REMARK  6 active torsions:
REMARK  status: ('A' for Active; 'I' for Inactive)
REMARK    1  A    between atoms: C_1  and  N_2
REMARK    2  A    between atoms: N_5  and  C_6
REMARK    3  A    between atoms: C_6  and  C_7
REMARK    4  A    between atoms: N_9  and  C_10
REMARK    5  A    between atoms: C_13  and  N_14
REMARK    6  A    between atoms: C_16  and  C_17
REMARK                            x       y       z     vdW  Elec       q    Type
REMARK                         _______ _______ _______ _____ _____    ______ ____
ROOT
ATOM      1  C   UNL     1       0.578   9.831  20.418  0.00  0.00    +0.000 A 
ATOM      2  C   UNL     1      -0.018  10.913  19.768  0.00  0.00    +0.000 A 
ATOM      3  C   UNL     1      -0.875  11.763  20.462  0.00  0.00    +0.000 A 
ATOM      4  C   UNL     1      -1.094  11.575  21.835  0.00  0.00    +0.000 A 
ATOM      5  C   UNL     1      -0.468  10.528  22.495  0.00  0.00    +0.000 A 
ATOM      6  F   UNL     1      -0.682  10.271  23.793  0.00  0.00    +0.000 F 
ATOM      7  C   UNL     1       0.340   9.650  21.790  0.00  0.00    +0.000 A 
ENDROOT
BRANCH   1  10
ATOM      8  C   UNL     1       2.226   6.873  19.185  0.00  0.00    +0.000 C 
ATOM      9  C   UNL     1       1.876   7.731  20.368  0.00  0.00    +0.000 C 
ATOM     10  N   UNL     1       1.370   8.896  19.729  0.00  0.00    +0.000 N 
ATOM     11  C   UNL     1       1.838   8.935  18.424  0.00  0.00    +0.000 C 
ATOM     12  O   UNL     1       1.662   9.792  17.575  0.00  0.00    +0.000 OA
ATOM     13  O   UNL     1       2.619   7.817  18.192  0.00  0.00    +0.000 OA
BRANCH   8  14
ATOM     14  C   UNL     1       3.288   5.844  19.577  0.00  0.00    +0.000 C 
BRANCH  14  19
ATOM     15  C   UNL     1       7.444   4.682  17.376  0.00  0.00    +0.000 C 
ATOM     16  N   UNL     1       6.030   4.355  17.502  0.00  0.00    +0.000 NA
ATOM     17  C   UNL     1       5.187   5.494  17.108  0.00  0.00    +0.000 C 
ATOM     18  C   UNL     1       3.697   5.127  17.242  0.00  0.00    +0.000 C 
ATOM     19  N   UNL     1       3.297   4.723  18.612  0.00  0.00    +0.000 NA
ATOM     20  C   UNL     1       4.187   3.626  19.043  0.00  0.00    +0.000 C 
ATOM     21  C   UNL     1       5.696   3.915  18.869  0.00  0.00    +0.000 C 
ENDBRANCH  14  19
ENDBRANCH   8  14
ENDBRANCH   1  10
BRANCH   4  22
ATOM     22  N   UNL     1      -1.966  12.431  22.529  0.00  0.00    +0.000 N 
ATOM     23  C   UNL     1      -3.336  12.440  22.490  0.00  0.00    +0.000 A 
ATOM     24  C   UNL     1      -3.762  13.471  23.298  0.00  0.00    +0.000 A 
ATOM     25  C   UNL     1      -2.564  14.054  23.754  0.00  0.00    +0.000 A 
ATOM     26  N   UNL     1      -1.479  13.390  23.355  0.00  0.00    +0.000 NA
BRANCH  24  27
ATOM     27  C   UNL     1      -5.150  13.768  23.578  0.00  0.00    +0.000 A 
ATOM     28  C   UNL     1      -6.035  12.763  23.948  0.00  0.00    +0.000 A 
ATOM     29  C   UNL     1      -7.369  13.092  24.152  0.00  0.00    +0.000 A 
ATOM     30  C   UNL     1      -7.781  14.409  23.981  0.00  0.00    +0.000 A 
ATOM     31  C   UNL     1      -6.833  15.347  23.616  0.00  0.00    +0.000 A 
ATOM     32  N   UNL     1      -5.533  15.058  23.409  0.00  0.00    +0.000 NA
ENDBRANCH  24  27
ENDBRANCH   4  22
TORSDOF 5
ENDMDL
MODEL 6
REMARK VINA RESULT:      -7.8      2.449      3.473
REMARK  Name = 
REMARK  6 active torsions:
REMARK  status: ('A' for Active; 'I' for Inactive)
REMARK    1  A    between atoms: C_1  and  N_2
REMARK    2  A    between atoms: N_5  and  C_6
REMARK    3  A    between atoms: C_6  and  C_7
REMARK    4  A    between atoms: N_9  and  C_10
REMARK    5  A    between atoms: C_13  and  N_14
REMARK    6  A    between atoms: C_16  and  C_17
REMARK                            x       y       z     vdW  Elec       q    Type
REMARK                         _______ _______ _______ _____ _____    ______ ____
ROOT
ATOM      1  C   UNL     1       1.369   8.508  20.360  0.00  0.00    +0.000 A 
ATOM      2  C   UNL     1       0.864   9.540  19.567  0.00  0.00    +0.000 A 
ATOM      3  C   UNL     1       0.111  10.561  20.141  0.00  0.00    +0.000 A 
ATOM      4  C   UNL     1      -0.089  10.594  21.528  0.00  0.00    +0.000 A 
ATOM      5  C   UNL     1       0.450   9.596  22.325  0.00  0.00    +0.000 A 
ATOM      6  F   UNL     1       0.245   9.549  23.650  0.00  0.00    +0.000 F 
ATOM      7  C   UNL     1       1.150   8.550  21.746  0.00  0.00    +0.000 A 
ENDROOT
BRANCH   1  10
ATOM      8  C   UNL     1       3.697   6.295  18.725  0.00  0.00    +0.000 C 
ATOM      9  C   UNL     1       2.867   7.545  18.648  0.00  0.00    +0.000 C 
ATOM     10  N   UNL     1       2.049   7.411  19.804  0.00  0.00    +0.000 N 
ATOM     11  C   UNL     1       2.023   6.077  20.185  0.00  0.00    +0.000 C 
ATOM     12  O   UNL     1       1.402   5.556  21.097  0.00  0.00    +0.000 OA
ATOM     13  O   UNL     1       2.816   5.345  19.320  0.00  0.00    +0.000 OA
BRANCH   8  14
ATOM     14  C   UNL     1       4.226   5.929  17.338  0.00  0.00    +0.000 C 
BRANCH  14  19
ATOM     15  C   UNL     1       7.453   5.004  13.845  0.00  0.00    +0.000 C 
ATOM     16  N   UNL     1       6.859   4.510  15.079  0.00  0.00    +0.000 NA
ATOM     17  C   UNL     1       5.409   4.313  14.925  0.00  0.00    +0.000 C 
ATOM     18  C   UNL     1       4.800   3.784  16.238  0.00  0.00    +0.000 C 
ATOM     19  N   UNL     1       5.012   4.677  17.403  0.00  0.00    +0.000 NA
ATOM     20  C   UNL     1       6.462   4.938  17.521  0.00  0.00    +0.000 C 
ATOM     21  C   UNL     1       7.139   5.408  16.214  0.00  0.00    +0.000 C 
ENDBRANCH  14  19
ENDBRANCH   8  14
ENDBRANCH   1  10
BRANCH   4  22
ATOM     22  N   UNL     1      -0.856  11.623  22.102  0.00  0.00    +0.000 N 
ATOM     23  C   UNL     1      -2.223  11.733  22.127  0.00  0.00    +0.000 A 
ATOM     24  C   UNL     1      -2.526  12.918  22.759  0.00  0.00    +0.000 A 
ATOM     25  C   UNL     1      -1.265  13.474  23.049  0.00  0.00    +0.000 A 
ATOM     26  N   UNL     1      -0.255  12.668  22.723  0.00  0.00    +0.000 NA
BRANCH  24  27
ATOM     27  C   UNL     1      -3.871  13.367  23.048  0.00  0.00    +0.000 A 
ATOM     28  C   UNL     1      -4.273  14.661  22.739  0.00  0.00    +0.000 A 
ATOM     29  C   UNL     1      -5.557  15.060  23.086  0.00  0.00    +0.000 A 
ATOM     30  C   UNL     1      -6.400  14.161  23.730  0.00  0.00    +0.000 A 
ATOM     31  C   UNL     1      -5.921  12.892  23.995  0.00  0.00    +0.000 A 
ATOM     32  N   UNL     1      -4.680  12.477  23.673  0.00  0.00    +0.000 NA
ENDBRANCH  24  27
ENDBRANCH   4  22
TORSDOF 5
ENDMDL
MODEL 7
REMARK VINA RESULT:      -7.8      1.590      2.564
REMARK  Name = 
REMARK  6 active torsions:
REMARK  status: ('A' for Active; 'I' for Inactive)
REMARK    1  A    between atoms: C_1  and  N_2
REMARK    2  A    between atoms: N_5  and  C_6
REMARK    3  A    between atoms: C_6  and  C_7
REMARK    4  A    between atoms: N_9  and  C_10
REMARK    5  A    between atoms: C_13  and  N_14
REMARK    6  A    between atoms: C_16  and  C_17
REMARK                            x       y       z     vdW  Elec       q    Type
REMARK                         _______ _______ _______ _____ _____    ______ ____
ROOT
ATOM      1  C   UNL     1       0.496   9.713  20.140  0.00  0.00    +0.000 A 
ATOM      2  C   UNL     1       0.400   9.822  21.529  0.00  0.00    +0.000 A 
ATOM      3  C   UNL     1      -0.461  10.754  22.102  0.00  0.00    +0.000 A 
ATOM      4  C   UNL     1      -1.287  11.543  21.288  0.00  0.00    +0.000 A 
ATOM      5  C   UNL     1      -1.229  11.406  19.910  0.00  0.00    +0.000 A 
ATOM      6  F   UNL     1      -1.956  12.171  19.083  0.00  0.00    +0.000 F 
ATOM      7  C   UNL     1      -0.330  10.519  19.339  0.00  0.00    +0.000 A 
ENDROOT
BRANCH   1  10
ATOM      8  C   UNL     1       2.474   6.910  19.037  0.00  0.00    +0.000 C 
ATOM      9  C   UNL     1       1.935   7.707  20.191  0.00  0.00    +0.000 C 
ATOM     10  N   UNL     1       1.423   8.855  19.525  0.00  0.00    +0.000 N 
ATOM     11  C   UNL     1       2.031   8.964  18.283  0.00  0.00    +0.000 C 
ATOM     12  O   UNL     1       1.891   9.833  17.440  0.00  0.00    +0.000 OA
ATOM     13  O   UNL     1       2.909   7.908  18.116  0.00  0.00    +0.000 OA
BRANCH   8  14
ATOM     14  C   UNL     1       3.555   5.943  19.524  0.00  0.00    +0.000 C 
BRANCH  14  19
ATOM     15  C   UNL     1       7.008   4.651  16.382  0.00  0.00    +0.000 C 
ATOM     16  N   UNL     1       5.751   4.254  17.001  0.00  0.00    +0.000 NA
ATOM     17  C   UNL     1       4.682   5.216  16.691  0.00  0.00    +0.000 C 
ATOM     18  C   UNL     1       3.360   4.776  17.348  0.00  0.00    +0.000 C 
ATOM     19  N   UNL     1       3.435   4.646  18.823  0.00  0.00    +0.000 NA
ATOM     20  C   UNL     1       4.553   3.736  19.146  0.00  0.00    +0.000 C 
ATOM     21  C   UNL     1       5.892   4.092  18.460  0.00  0.00    +0.000 C 
ENDBRANCH  14  19
ENDBRANCH   8  14
ENDBRANCH   1  10
BRANCH   4  22
ATOM     22  N   UNL     1      -2.149  12.487  21.871  0.00  0.00    +0.000 N 
ATOM     23  C   UNL     1      -3.484  12.343  22.147  0.00  0.00    +0.000 A 
ATOM     24  C   UNL     1      -3.923  13.534  22.679  0.00  0.00    +0.000 A 
ATOM     25  C   UNL     1      -2.780  14.355  22.649  0.00  0.00    +0.000 A 
ATOM     26  N   UNL     1      -1.689  13.711  22.232  0.00  0.00    +0.000 NA
BRANCH  24  27
ATOM     27  C   UNL     1      -5.266  13.764  23.167  0.00  0.00    +0.000 A 
ATOM     28  C   UNL     1      -5.758  15.055  23.323  0.00  0.00    +0.000 A 
ATOM     29  C   UNL     1      -7.034  15.222  23.846  0.00  0.00    +0.000 A 
ATOM     30  C   UNL     1      -7.779  14.102  24.200  0.00  0.00    +0.000 A 
ATOM     31  C   UNL     1      -7.214  12.855  24.007  0.00  0.00    +0.000 A 
ATOM     32  N   UNL     1      -5.979  12.662  23.504  0.00  0.00    +0.000 NA
ENDBRANCH  24  27
ENDBRANCH   4  22
TORSDOF 5
ENDMDL
MODEL 8
REMARK VINA RESULT:      -7.8      3.265     11.279
REMARK  Name = 
REMARK  6 active torsions:
REMARK  status: ('A' for Active; 'I' for Inactive)
REMARK    1  A    between atoms: C_1  and  N_2
REMARK    2  A    between atoms: N_5  and  C_6
REMARK    3  A    between atoms: C_6  and  C_7
REMARK    4  A    between atoms: N_9  and  C_10
REMARK    5  A    between atoms: C_13  and  N_14
REMARK    6  A    between atoms: C_16  and  C_17
REMARK                            x       y       z     vdW  Elec       q    Type
REMARK                         _______ _______ _______ _____ _____    ______ ____
ROOT
ATOM      1  C   UNL     1       0.417   9.740  20.730  0.00  0.00    +0.000 A 
ATOM      2  C   UNL     1       0.801   8.581  21.406  0.00  0.00    +0.000 A 
ATOM      3  C   UNL     1       1.486   7.571  20.735  0.00  0.00    +0.000 A 
ATOM      4  C   UNL     1       1.851   7.742  19.391  0.00  0.00    +0.000 A 
ATOM      5  C   UNL     1       1.512   8.911  18.728  0.00  0.00    +0.000 A 
ATOM      6  F   UNL     1       1.789   9.105  17.431  0.00  0.00    +0.000 F 
ATOM      7  C   UNL     1       0.781   9.891  19.382  0.00  0.00    +0.000 A 
ENDROOT
BRANCH   1  10
ATOM      8  C   UNL     1      -2.020  12.256  21.576  0.00  0.00    +0.000 C 
ATOM      9  C   UNL     1      -0.995  11.761  20.595  0.00  0.00    +0.000 C 
ATOM     10  N   UNL     1      -0.358  10.737  21.348  0.00  0.00    +0.000 N 
ATOM     11  C   UNL     1      -0.595  10.955  22.697  0.00  0.00    +0.000 C 
ATOM     12  O   UNL     1      -0.183  10.323  23.655  0.00  0.00    +0.000 OA
ATOM     13  O   UNL     1      -1.384  12.082  22.840  0.00  0.00    +0.000 OA
BRANCH   8  14
ATOM     14  C   UNL     1      -2.428  13.690  21.233  0.00  0.00    +0.000 C 
BRANCH  14  19
ATOM     15  C   UNL     1      -6.853  14.421  19.400  0.00  0.00    +0.000 C 
ATOM     16  N   UNL     1      -6.040  14.467  20.609  0.00  0.00    +0.000 NA
ATOM     17  C   UNL     1      -4.928  15.418  20.462  0.00  0.00    +0.000 C 
ATOM     18  C   UNL     1      -4.085  15.457  21.751  0.00  0.00    +0.000 C 
ATOM     19  N   UNL     1      -3.508  14.145  22.134  0.00  0.00    +0.000 NA
ATOM     20  C   UNL     1      -4.613  13.166  22.214  0.00  0.00    +0.000 C 
ATOM     21  C   UNL     1      -5.532  13.131  20.972  0.00  0.00    +0.000 C 
ENDBRANCH  14  19
ENDBRANCH   8  14
ENDBRANCH   1  10
BRANCH   4  22
ATOM     22  N   UNL     1       2.535   6.716  18.715  0.00  0.00    +0.000 N 
ATOM     23  C   UNL     1       3.608   6.841  17.872  0.00  0.00    +0.000 A 
ATOM     24  C   UNL     1       3.920   5.580  17.416  0.00  0.00    +0.000 A 
ATOM     25  C   UNL     1       2.946   4.758  18.016  0.00  0.00    +0.000 A 
ATOM     26  N   UNL     1       2.153   5.422  18.857  0.00  0.00    +0.000 NA
BRANCH  24  27
ATOM     27  C   UNL     1       5.042   5.278  16.554  0.00  0.00    +0.000 A 
ATOM     28  C   UNL     1       4.926   4.346  15.530  0.00  0.00    +0.000 A 
ATOM     29  C   UNL     1       6.048   4.052  14.767  0.00  0.00    +0.000 A 
ATOM     30  C   UNL     1       7.251   4.693  15.046  0.00  0.00    +0.000 A 
ATOM     31  C   UNL     1       7.276   5.610  16.080  0.00  0.00    +0.000 A 
ATOM     32  N   UNL     1       6.205   5.914  16.839  0.00  0.00    +0.000 NA
ENDBRANCH  24  27
ENDBRANCH   4  22
TORSDOF 5
ENDMDL
MODEL 9
REMARK VINA RESULT:      -7.8      2.775     11.113
REMARK  Name = 
REMARK  6 active torsions:
REMARK  status: ('A' for Active; 'I' for Inactive)
REMARK    1  A    between atoms: C_1  and  N_2
REMARK    2  A    between atoms: N_5  and  C_6
REMARK    3  A    between atoms: C_6  and  C_7
REMARK    4  A    between atoms: N_9  and  C_10
REMARK    5  A    between atoms: C_13  and  N_14
REMARK    6  A    between atoms: C_16  and  C_17
REMARK                            x       y       z     vdW  Elec       q    Type
REMARK                         _______ _______ _______ _____ _____    ______ ____
ROOT
ATOM      1  C   UNL     1       0.561  10.202  20.958  0.00  0.00    +0.000 A 
ATOM      2  C   UNL     1       1.060   9.138  21.712  0.00  0.00    +0.000 A 
ATOM      3  C   UNL     1       1.687   8.066  21.084  0.00  0.00    +0.000 A 
ATOM      4  C   UNL     1       1.879   8.079  19.694  0.00  0.00    +0.000 A 
ATOM      5  C   UNL     1       1.426   9.154  18.946  0.00  0.00    +0.000 A 
ATOM      6  F   UNL     1       1.536   9.194  17.611  0.00  0.00    +0.000 F 
ATOM      7  C   UNL     1       0.752  10.194  19.566  0.00  0.00    +0.000 A 
ENDROOT
BRANCH   1  10
ATOM      8  C   UNL     1      -1.537  12.283  23.021  0.00  0.00    +0.000 C 
ATOM      9  C   UNL     1      -1.406  11.031  22.201  0.00  0.00    +0.000 C 
ATOM     10  N   UNL     1      -0.163  11.253  21.546  0.00  0.00    +0.000 N 
ATOM     11  C   UNL     1       0.117  12.612  21.558  0.00  0.00    +0.000 C 
ATOM     12  O   UNL     1       1.062  13.201  21.062  0.00  0.00    +0.000 OA
ATOM     13  O   UNL     1      -0.901  13.276  22.220  0.00  0.00    +0.000 OA
BRANCH   8  14
ATOM     14  C   UNL     1      -3.007  12.542  23.354  0.00  0.00    +0.000 C 
BRANCH  14  19
ATOM     15  C   UNL     1      -7.511  14.178  24.067  0.00  0.00    +0.000 C 
ATOM     16  N   UNL     1      -6.363  14.198  23.170  0.00  0.00    +0.000 NA
ATOM     17  C   UNL     1      -6.053  12.847  22.678  0.00  0.00    +0.000 C 
ATOM     18  C   UNL     1      -4.842  12.891  21.727  0.00  0.00    +0.000 C 
ATOM     19  N   UNL     1      -3.610  13.439  22.344  0.00  0.00    +0.000 NA
ATOM     20  C   UNL     1      -3.932  14.768  22.905  0.00  0.00    +0.000 C 
ATOM     21  C   UNL     1      -5.181  14.796  23.816  0.00  0.00    +0.000 C 
ENDBRANCH  14  19
ENDBRANCH   8  14
ENDBRANCH   1  10
BRANCH   4  22
ATOM     22  N   UNL     1       2.505   6.990  19.064  0.00  0.00    +0.000 N 
ATOM     23  C   UNL     1       3.635   7.010  18.286  0.00  0.00    +0.000 A 
ATOM     24  C   UNL     1       3.856   5.721  17.853  0.00  0.00    +0.000 A 
ATOM     25  C   UNL     1       2.777   4.996  18.395  0.00  0.00    +0.000 A 
ATOM     26  N   UNL     1       1.999   5.737  19.185  0.00  0.00    +0.000 NA
BRANCH  24  27
ATOM     27  C   UNL     1       4.996   5.311  17.061  0.00  0.00    +0.000 A 
ATOM     28  C   UNL     1       6.127   4.774  17.663  0.00  0.00    +0.000 A 
ATOM     29  C   UNL     1       7.214   4.447  16.864  0.00  0.00    +0.000 A 
ATOM     30  C   UNL     1       7.144   4.666  15.492  0.00  0.00    +0.000 A 
ATOM     31  C   UNL     1       5.978   5.200  14.976  0.00  0.00    +0.000 A 
ATOM     32  N   UNL     1       4.908   5.529  15.726  0.00  0.00    +0.000 NA
ENDBRANCH  24  27
ENDBRANCH   4  22
TORSDOF 5
ENDMDL
