MODEL 1
REMARK VINA RESULT:      -7.2      0.000      0.000
REMARK  Name = 
REMARK  10 active torsions:
REMARK  status: ('A' for Active; 'I' for Inactive)
REMARK    1  A    between atoms: C_1  and  N_2
REMARK    2  A    between atoms: N_2  and  C_3
REMARK    3  A    between atoms: N_2  and  C_4
REMARK    4  A    between atoms: C_4  and  C_5
REMARK    5  A    between atoms: C_5  and  N_6
REMARK    6  A    between atoms: C_10  and  N_11
REMARK    7  A    between atoms: C_12  and  C_14
REMARK    8  A    between atoms: C_14  and  C_15
REMARK    9  A    between atoms: C_14  and  C_16
REMARK   10  A    between atoms: C_14  and  C_17
REMARK                            x       y       z     vdW  Elec       q    Type
REMARK                         _______ _______ _______ _____ _____    ______ ____
ROOT
ATOM      1  N   UNL     1       0.309  12.721  19.193  0.00  0.00    +0.000 N 
ATOM      2  C   UNL     1      -0.570  12.838  20.251  0.00  0.00    +0.000 C 
ATOM      3  O   UNL     1      -1.289  13.825  20.400  0.00  0.00    +0.000 OA
ATOM      4  C   UNL     1      -0.560  11.740  21.274  0.00  0.00    +0.000 A 
ATOM      5  C   UNL     1      -1.229  11.903  22.502  0.00  0.00    +0.000 A 
ATOM      6  C   UNL     1      -1.229  10.834  23.402  0.00  0.00    +0.000 A 
ATOM      7  C   UNL     1      -0.609   9.602  23.058  0.00  0.00    +0.000 A 
ATOM      8  C   UNL     1       0.094   9.417  21.826  0.00  0.00    +0.000 A 
ATOM      9  C   UNL     1       0.764   8.206  21.409  0.00  0.00    +0.000 A 
ATOM     10  C   UNL     1       1.465   8.110  20.170  0.00  0.00    +0.000 A 
ATOM     11  C   UNL     1       1.508   9.260  19.391  0.00  0.00    +0.000 A 
ATOM     12  C   UNL     1       0.913  10.456  19.836  0.00  0.00    +0.000 A 
ATOM     13  C   UNL     1       0.141  10.546  20.982  0.00  0.00    +0.000 A 
ATOM     14  C   UNL     1       1.209  11.694  19.088  0.00  0.00    +0.000 C 
ATOM     15  O   UNL     1       2.238  11.875  18.462  0.00  0.00    +0.000 OA
ATOM     16  C   UNL     1       2.095   9.261  18.020  0.00  0.00    +0.000 C 
ATOM     17  C   UNL     1       2.881   8.125  17.461  0.00  0.00    +0.000 C 
ATOM     18  C   UNL     1       2.936   6.885  18.311  0.00  0.00    +0.000 C 
ATOM     19  C   UNL     1       2.190   6.863  19.676  0.00  0.00    +0.000 C 
ENDROOT
BRANCH   5  20
ATOM     20  N   UNL     1      -1.955  13.103  22.755  0.00  0.00    +0.000 N 
ATOM     21  C   UNL     1      -3.332  13.143  22.945  0.00  0.00    +0.000 C 
ATOM     22  O   UNL     1      -4.080  12.198  22.702  0.00  0.00    +0.000 OA
ATOM     23  H   UNL     1      -1.467  13.723  23.404  0.00  0.00    +0.000 HD
BRANCH  21  24
ATOM     24  C   UNL     1      -3.857  14.504  23.514  0.00  0.00    +0.000 C 
ATOM     25  C   UNL     1      -3.509  15.629  22.527  0.00  0.00    +0.000 C 
ATOM     26  C   UNL     1      -5.385  14.459  23.694  0.00  0.00    +0.000 C 
ATOM     27  C   UNL     1      -3.256  14.841  24.892  0.00  0.00    +0.000 C 
ENDBRANCH  21  24
ENDBRANCH   5  20
BRANCH   1  28
ATOM     28  C   UNL     1       0.437  13.758  18.180  0.00  0.00    +0.000 C 
BRANCH  28  29
ATOM     29  C   UNL     1       1.065  15.069  18.721  0.00  0.00    +0.000 C 
BRANCH  29  31
ATOM     30  C   UNL     1       2.751  16.576  17.859  0.00  0.00    +0.000 C 
ATOM     31  N   UNL     1       2.493  15.238  18.397  0.00  0.00    +0.000 NA
ATOM     32  C   UNL     1       3.326  15.024  19.584  0.00  0.00    +0.000 C 
ENDBRANCH  29  31
ENDBRANCH  28  29
ENDBRANCH   1  28
TORSDOF 5
ENDMDL
MODEL 2
REMARK VINA RESULT:      -7.1      0.648      1.192
REMARK  Name = 
REMARK  10 active torsions:
REMARK  status: ('A' for Active; 'I' for Inactive)
REMARK    1  A    between atoms: C_1  and  N_2
REMARK    2  A    between atoms: N_2  and  C_3
REMARK    3  A    between atoms: N_2  and  C_4
REMARK    4  A    between atoms: C_4  and  C_5
REMARK    5  A    between atoms: C_5  and  N_6
REMARK    6  A    between atoms: C_10  and  N_11
REMARK    7  A    between atoms: C_12  and  C_14
REMARK    8  A    between atoms: C_14  and  C_15
REMARK    9  A    between atoms: C_14  and  C_16
REMARK   10  A    between atoms: C_14  and  C_17
REMARK                            x       y       z     vdW  Elec       q    Type
REMARK                         _______ _______ _______ _____ _____    ______ ____
ROOT
ATOM      1  N   UNL     1       0.298  12.779  19.238  0.00  0.00    +0.000 N 
ATOM      2  C   UNL     1      -0.584  12.888  20.295  0.00  0.00    +0.000 C 
ATOM      3  O   UNL     1      -1.302  13.875  20.451  0.00  0.00    +0.000 OA
ATOM      4  C   UNL     1      -0.578  11.782  21.308  0.00  0.00    +0.000 A 
ATOM      5  C   UNL     1      -1.250  11.934  22.536  0.00  0.00    +0.000 A 
ATOM      6  C   UNL     1      -1.255  10.858  23.427  0.00  0.00    +0.000 A 
ATOM      7  C   UNL     1      -0.636   9.628  23.074  0.00  0.00    +0.000 A 
ATOM      8  C   UNL     1       0.070   9.453  21.842  0.00  0.00    +0.000 A 
ATOM      9  C   UNL     1       0.738   8.244  21.416  0.00  0.00    +0.000 A 
ATOM     10  C   UNL     1       1.443   8.157  20.178  0.00  0.00    +0.000 A 
ATOM     11  C   UNL     1       1.491   9.314  19.409  0.00  0.00    +0.000 A 
ATOM     12  C   UNL     1       0.897  10.507  19.863  0.00  0.00    +0.000 A 
ATOM     13  C   UNL     1       0.121  10.588  21.007  0.00  0.00    +0.000 A 
ATOM     14  C   UNL     1       1.197  11.751  19.127  0.00  0.00    +0.000 C 
ATOM     15  O   UNL     1       2.228  11.936  18.505  0.00  0.00    +0.000 OA
ATOM     16  C   UNL     1       2.081   9.327  18.040  0.00  0.00    +0.000 C 
ATOM     17  C   UNL     1       2.867   8.193  17.473  0.00  0.00    +0.000 C 
ATOM     18  C   UNL     1       2.917   6.946  18.313  0.00  0.00    +0.000 C 
ATOM     19  C   UNL     1       2.167   6.913  19.675  0.00  0.00    +0.000 C 
ENDROOT
BRANCH   5  20
ATOM     20  N   UNL     1      -1.975  13.134  22.797  0.00  0.00    +0.000 N 
ATOM     21  C   UNL     1      -3.346  13.169  23.028  0.00  0.00    +0.000 C 
ATOM     22  O   UNL     1      -4.096  12.218  22.820  0.00  0.00    +0.000 OA
ATOM     23  H   UNL     1      -1.471  13.763  23.424  0.00  0.00    +0.000 HD
BRANCH  21  24
ATOM     24  C   UNL     1      -3.861  14.534  23.598  0.00  0.00    +0.000 C 
ATOM     25  C   UNL     1      -5.392  14.488  23.706  0.00  0.00    +0.000 C 
ATOM     26  C   UNL     1      -3.274  14.788  24.999  0.00  0.00    +0.000 C 
ATOM     27  C   UNL     1      -3.455  15.733  22.721  0.00  0.00    +0.000 C 
ENDBRANCH  21  24
ENDBRANCH   5  20
BRANCH   1  28
ATOM     28  C   UNL     1       0.431  13.824  18.235  0.00  0.00    +0.000 C 
BRANCH  28  29
ATOM     29  C   UNL     1       1.409  14.955  18.652  0.00  0.00    +0.000 C 
BRANCH  29  31
ATOM     30  C   UNL     1       1.704  17.268  19.295  0.00  0.00    +0.000 C 
ATOM     31  N   UNL     1       0.751  16.161  19.185  0.00  0.00    +0.000 NA
ATOM     32  C   UNL     1      -0.368  16.566  18.330  0.00  0.00    +0.000 C 
ENDBRANCH  29  31
ENDBRANCH  28  29
ENDBRANCH   1  28
TORSDOF 5
ENDMDL
MODEL 3
REMARK VINA RESULT:      -7.0      0.999      1.238
REMARK  Name = 
REMARK  10 active torsions:
REMARK  status: ('A' for Active; 'I' for Inactive)
REMARK    1  A    between atoms: C_1  and  N_2
REMARK    2  A    between atoms: N_2  and  C_3
REMARK    3  A    between atoms: N_2  and  C_4
REMARK    4  A    between atoms: C_4  and  C_5
REMARK    5  A    between atoms: C_5  and  N_6
REMARK    6  A    between atoms: C_10  and  N_11
REMARK    7  A    between atoms: C_12  and  C_14
REMARK    8  A    between atoms: C_14  and  C_15
REMARK    9  A    between atoms: C_14  and  C_16
REMARK   10  A    between atoms: C_14  and  C_17
REMARK                            x       y       z     vdW  Elec       q    Type
REMARK                         _______ _______ _______ _____ _____    ______ ____
ROOT
ATOM      1  N   UNL     1      -0.163  12.600  19.121  0.00  0.00    +0.000 N 
ATOM      2  C   UNL     1      -1.009  12.663  20.210  0.00  0.00    +0.000 C 
ATOM      3  O   UNL     1      -1.819  13.578  20.358  0.00  0.00    +0.000 OA
ATOM      4  C   UNL     1      -0.850  11.609  21.265  0.00  0.00    +0.000 A 
ATOM      5  C   UNL     1      -1.485  11.745  22.514  0.00  0.00    +0.000 A 
ATOM      6  C   UNL     1      -1.343  10.714  23.445  0.00  0.00    +0.000 A 
ATOM      7  C   UNL     1      -0.615   9.539  23.115  0.00  0.00    +0.000 A 
ATOM      8  C   UNL     1       0.057   9.384  21.861  0.00  0.00    +0.000 A 
ATOM      9  C   UNL     1       0.831   8.233  21.455  0.00  0.00    +0.000 A 
ATOM     10  C   UNL     1       1.492   8.164  20.192  0.00  0.00    +0.000 A 
ATOM     11  C   UNL     1       1.389   9.285  19.377  0.00  0.00    +0.000 A 
ATOM     12  C   UNL     1       0.692  10.430  19.808  0.00  0.00    +0.000 A 
ATOM     13  C   UNL     1      -0.042  10.481  20.981  0.00  0.00    +0.000 A 
ATOM     14  C   UNL     1       0.832  11.665  19.012  0.00  0.00    +0.000 C 
ATOM     15  O   UNL     1       1.813  11.927  18.339  0.00  0.00    +0.000 OA
ATOM     16  C   UNL     1       1.921   9.298  17.984  0.00  0.00    +0.000 C 
ATOM     17  C   UNL     1       2.797   8.227  17.429  0.00  0.00    +0.000 C 
ATOM     18  C   UNL     1       3.009   7.030  18.314  0.00  0.00    +0.000 C 
ATOM     19  C   UNL     1       2.321   6.980  19.707  0.00  0.00    +0.000 C 
ENDROOT
BRANCH   5  20
ATOM     20  N   UNL     1      -2.320  12.875  22.759  0.00  0.00    +0.000 N 
ATOM     21  C   UNL     1      -1.904  14.000  23.462  0.00  0.00    +0.000 C 
ATOM     22  O   UNL     1      -0.867  14.047  24.120  0.00  0.00    +0.000 OA
ATOM     23  H   UNL     1      -2.883  13.126  21.944  0.00  0.00    +0.000 HD
BRANCH  21  24
ATOM     24  C   UNL     1      -2.872  15.224  23.333  0.00  0.00    +0.000 C 
ATOM     25  C   UNL     1      -4.182  14.762  22.677  0.00  0.00    +0.000 C 
ATOM     26  C   UNL     1      -3.194  15.805  24.723  0.00  0.00    +0.000 C 
ATOM     27  C   UNL     1      -2.270  16.371  22.500  0.00  0.00    +0.000 C 
ENDBRANCH  21  24
ENDBRANCH   5  20
BRANCH   1  28
ATOM     28  C   UNL     1      -0.179  13.608  18.072  0.00  0.00    +0.000 C 
BRANCH  28  29
ATOM     29  C   UNL     1       0.112  15.040  18.594  0.00  0.00    +0.000 C 
BRANCH  29  31
ATOM     30  C   UNL     1       2.086  16.416  18.337  0.00  0.00    +0.000 C 
ATOM     31  N   UNL     1       1.505  15.259  19.023  0.00  0.00    +0.000 NA
ATOM     32  C   UNL     1       1.578  15.467  20.472  0.00  0.00    +0.000 C 
ENDBRANCH  29  31
ENDBRANCH  28  29
ENDBRANCH   1  28
TORSDOF 5
ENDMDL
MODEL 4
REMARK VINA RESULT:      -6.9      2.837      7.379
REMARK  Name = 
REMARK  10 active torsions:
REMARK  status: ('A' for Active; 'I' for Inactive)
REMARK    1  A    between atoms: C_1  and  N_2
REMARK    2  A    between atoms: N_2  and  C_3
REMARK    3  A    between atoms: N_2  and  C_4
REMARK    4  A    between atoms: C_4  and  C_5
REMARK    5  A    between atoms: C_5  and  N_6
REMARK    6  A    between atoms: C_10  and  N_11
REMARK    7  A    between atoms: C_12  and  C_14
REMARK    8  A    between atoms: C_14  and  C_15
REMARK    9  A    between atoms: C_14  and  C_16
REMARK   10  A    between atoms: C_14  and  C_17
REMARK                            x       y       z     vdW  Elec       q    Type
REMARK                         _______ _______ _______ _____ _____    ______ ____
ROOT
ATOM      1  N   UNL     1      -1.177  11.226  18.517  0.00  0.00    +0.000 N 
ATOM      2  C   UNL     1      -0.117  10.438  18.920  0.00  0.00    +0.000 C 
ATOM      3  O   UNL     1       0.688   9.963  18.120  0.00  0.00    +0.000 OA
ATOM      4  C   UNL     1      -0.026  10.107  20.380  0.00  0.00    +0.000 A 
ATOM      5  C   UNL     1       0.860   9.111  20.833  0.00  0.00    +0.000 A 
ATOM      6  C   UNL     1       0.942   8.872  22.207  0.00  0.00    +0.000 A 
ATOM      7  C   UNL     1       0.182   9.651  23.120  0.00  0.00    +0.000 A 
ATOM      8  C   UNL     1      -0.741  10.655  22.686  0.00  0.00    +0.000 A 
ATOM      9  C   UNL     1      -1.561  11.477  23.547  0.00  0.00    +0.000 A 
ATOM     10  C   UNL     1      -2.477  12.444  23.032  0.00  0.00    +0.000 A 
ATOM     11  C   UNL     1      -2.573  12.531  21.649  0.00  0.00    +0.000 A 
ATOM     12  C   UNL     1      -1.822  11.679  20.817  0.00  0.00    +0.000 A 
ATOM     13  C   UNL     1      -0.853  10.809  21.289  0.00  0.00    +0.000 A 
ATOM     14  C   UNL     1      -2.154  11.649  19.379  0.00  0.00    +0.000 C 
ATOM     15  O   UNL     1      -3.262  11.896  18.936  0.00  0.00    +0.000 OA
ATOM     16  C   UNL     1      -3.392  13.583  20.981  0.00  0.00    +0.000 C 
ATOM     17  C   UNL     1      -4.346  14.468  21.710  0.00  0.00    +0.000 C 
ATOM     18  C   UNL     1      -4.340  14.344  23.209  0.00  0.00    +0.000 C 
ATOM     19  C   UNL     1      -3.368  13.338  23.887  0.00  0.00    +0.000 C 
ENDROOT
BRANCH   5  20
ATOM     20  N   UNL     1       1.707   8.444  19.899  0.00  0.00    +0.000 N 
ATOM     21  C   UNL     1       1.973   7.079  19.941  0.00  0.00    +0.000 C 
ATOM     22  O   UNL     1       1.688   6.359  20.895  0.00  0.00    +0.000 OA
ATOM     23  H   UNL     1       1.562   8.771  18.942  0.00  0.00    +0.000 HD
BRANCH  21  24
ATOM     24  C   UNL     1       2.661   6.526  18.647  0.00  0.00    +0.000 C 
ATOM     25  C   UNL     1       2.981   7.699  17.708  0.00  0.00    +0.000 C 
ATOM     26  C   UNL     1       3.975   5.806  19.003  0.00  0.00    +0.000 C 
ATOM     27  C   UNL     1       1.783   5.506  17.898  0.00  0.00    +0.000 C 
ENDBRANCH  21  24
ENDBRANCH   5  20
BRANCH   1  28
ATOM     28  C   UNL     1      -1.406  11.553  17.118  0.00  0.00    +0.000 C 
BRANCH  28  29
ATOM     29  C   UNL     1      -2.201  10.460  16.356  0.00  0.00    +0.000 C 
BRANCH  29  31
ATOM     30  C   UNL     1      -3.400  10.064  14.292  0.00  0.00    +0.000 C 
ATOM     31  N   UNL     1      -3.207  10.984  15.416  0.00  0.00    +0.000 NA
ATOM     32  C   UNL     1      -4.490  11.200  16.092  0.00  0.00    +0.000 C 
ENDBRANCH  29  31
ENDBRANCH  28  29
ENDBRANCH   1  28
TORSDOF 5
ENDMDL
MODEL 5
REMARK VINA RESULT:      -6.7      2.093      3.098
REMARK  Name = 
REMARK  10 active torsions:
REMARK  status: ('A' for Active; 'I' for Inactive)
REMARK    1  A    between atoms: C_1  and  N_2
REMARK    2  A    between atoms: N_2  and  C_3
REMARK    3  A    between atoms: N_2  and  C_4
REMARK    4  A    between atoms: C_4  and  C_5
REMARK    5  A    between atoms: C_5  and  N_6
REMARK    6  A    between atoms: C_10  and  N_11
REMARK    7  A    between atoms: C_12  and  C_14
REMARK    8  A    between atoms: C_14  and  C_15
REMARK    9  A    between atoms: C_14  and  C_16
REMARK   10  A    between atoms: C_14  and  C_17
REMARK                            x       y       z     vdW  Elec       q    Type
REMARK                         _______ _______ _______ _____ _____    ______ ____
ROOT
ATOM      1  N   UNL     1      -0.691  11.560  18.838  0.00  0.00    +0.000 N 
ATOM      2  C   UNL     1      -1.342  11.674  20.051  0.00  0.00    +0.000 C 
ATOM      3  O   UNL     1      -2.281  12.451  20.220  0.00  0.00    +0.000 OA
ATOM      4  C   UNL     1      -0.805  10.866  21.195  0.00  0.00    +0.000 A 
ATOM      5  C   UNL     1      -1.241  11.114  22.510  0.00  0.00    +0.000 A 
ATOM      6  C   UNL     1      -0.745  10.304  23.535  0.00  0.00    +0.000 A 
ATOM      7  C   UNL     1       0.137   9.229  23.242  0.00  0.00    +0.000 A 
ATOM      8  C   UNL     1       0.610   8.968  21.918  0.00  0.00    +0.000 A 
ATOM      9  C   UNL     1       1.518   7.909  21.539  0.00  0.00    +0.000 A 
ATOM     10  C   UNL     1       1.963   7.729  20.194  0.00  0.00    +0.000 A 
ATOM     11  C   UNL     1       1.507   8.654  19.262  0.00  0.00    +0.000 A 
ATOM     12  C   UNL     1       0.678   9.723  19.651  0.00  0.00    +0.000 A 
ATOM     13  C   UNL     1       0.152   9.858  20.925  0.00  0.00    +0.000 A 
ATOM     14  C   UNL     1       0.438  10.802  18.673  0.00  0.00    +0.000 C 
ATOM     15  O   UNL     1       1.223  11.101  17.791  0.00  0.00    +0.000 OA
ATOM     16  C   UNL     1       1.788   8.508  17.805  0.00  0.00    +0.000 C 
ATOM     17  C   UNL     1       2.756   7.518  17.250  0.00  0.00    +0.000 C 
ATOM     18  C   UNL     1       3.344   6.550  18.240  0.00  0.00    +0.000 C 
ATOM     19  C   UNL     1       2.918   6.634  19.733  0.00  0.00    +0.000 C 
ENDROOT
BRANCH   5  20
ATOM     20  N   UNL     1      -2.230  12.112  22.748  0.00  0.00    +0.000 N 
ATOM     21  C   UNL     1      -1.944  13.370  23.268  0.00  0.00    +0.000 C 
ATOM     22  O   UNL     1      -0.863  13.670  23.769  0.00  0.00    +0.000 OA
ATOM     23  H   UNL     1      -2.919  12.163  21.996  0.00  0.00    +0.000 HD
BRANCH  21  24
ATOM     24  C   UNL     1      -3.125  14.392  23.145  0.00  0.00    +0.000 C 
ATOM     25  C   UNL     1      -4.410  13.634  22.782  0.00  0.00    +0.000 C 
ATOM     26  C   UNL     1      -3.343  15.125  24.481  0.00  0.00    +0.000 C 
ATOM     27  C   UNL     1      -2.863  15.475  22.081  0.00  0.00    +0.000 C 
ENDBRANCH  21  24
ENDBRANCH   5  20
BRANCH   1  28
ATOM     28  C   UNL     1      -1.079  12.348  17.678  0.00  0.00    +0.000 C 
BRANCH  28  29
ATOM     29  C   UNL     1      -2.370  11.831  16.990  0.00  0.00    +0.000 C 
BRANCH  29  31
ATOM     30  C   UNL     1      -3.170   9.609  17.515  0.00  0.00    +0.000 C 
ATOM     31  N   UNL     1      -2.330  10.406  16.617  0.00  0.00    +0.000 NA
ATOM     32  C   UNL     1      -2.782  10.216  15.235  0.00  0.00    +0.000 C 
ENDBRANCH  29  31
ENDBRANCH  28  29
ENDBRANCH   1  28
TORSDOF 5
ENDMDL
MODEL 6
REMARK VINA RESULT:      -6.5      2.007      2.952
REMARK  Name = 
REMARK  10 active torsions:
REMARK  status: ('A' for Active; 'I' for Inactive)
REMARK    1  A    between atoms: C_1  and  N_2
REMARK    2  A    between atoms: N_2  and  C_3
REMARK    3  A    between atoms: N_2  and  C_4
REMARK    4  A    between atoms: C_4  and  C_5
REMARK    5  A    between atoms: C_5  and  N_6
REMARK    6  A    between atoms: C_10  and  N_11
REMARK    7  A    between atoms: C_12  and  C_14
REMARK    8  A    between atoms: C_14  and  C_15
REMARK    9  A    between atoms: C_14  and  C_16
REMARK   10  A    between atoms: C_14  and  C_17
REMARK                            x       y       z     vdW  Elec       q    Type
REMARK                         _______ _______ _______ _____ _____    ______ ____
ROOT
ATOM      1  N   UNL     1      -0.683  11.582  18.653  0.00  0.00    +0.000 N 
ATOM      2  C   UNL     1      -1.379  11.825  19.820  0.00  0.00    +0.000 C 
ATOM      3  O   UNL     1      -2.290  12.651  19.880  0.00  0.00    +0.000 OA
ATOM      4  C   UNL     1      -0.927  11.098  21.052  0.00  0.00    +0.000 A 
ATOM      5  C   UNL     1      -1.407  11.475  22.320  0.00  0.00    +0.000 A 
ATOM      6  C   UNL     1      -0.992  10.736  23.431  0.00  0.00    +0.000 A 
ATOM      7  C   UNL     1      -0.147   9.606  23.270  0.00  0.00    +0.000 A 
ATOM      8  C   UNL     1       0.371   9.213  21.996  0.00  0.00    +0.000 A 
ATOM      9  C   UNL     1       1.247   8.091  21.749  0.00  0.00    +0.000 A 
ATOM     10  C   UNL     1       1.740   7.778  20.446  0.00  0.00    +0.000 A 
ATOM     11  C   UNL     1       1.365   8.637  19.420  0.00  0.00    +0.000 A 
ATOM     12  C   UNL     1       0.569   9.768  19.679  0.00  0.00    +0.000 A 
ATOM     13  C   UNL     1      -0.005  10.033  20.912  0.00  0.00    +0.000 A 
ATOM     14  C   UNL     1       0.418  10.768  18.604  0.00  0.00    +0.000 C 
ATOM     15  O   UNL     1       1.252  10.959  17.737  0.00  0.00    +0.000 OA
ATOM     16  C   UNL     1       1.702   8.355  17.995  0.00  0.00    +0.000 C 
ATOM     17  C   UNL     1       2.648   7.284  17.570  0.00  0.00    +0.000 C 
ATOM     18  C   UNL     1       3.150   6.382  18.664  0.00  0.00    +0.000 C 
ATOM     19  C   UNL     1       2.666   6.611  20.124  0.00  0.00    +0.000 C 
ENDROOT
BRANCH   5  20
ATOM     20  N   UNL     1      -2.362  12.529  22.427  0.00  0.00    +0.000 N 
ATOM     21  C   UNL     1      -3.374  12.555  23.381  0.00  0.00    +0.000 C 
ATOM     22  O   UNL     1      -3.679  11.589  24.076  0.00  0.00    +0.000 OA
ATOM     23  H   UNL     1      -1.939  13.450  22.301  0.00  0.00    +0.000 HD
BRANCH  21  24
ATOM     24  C   UNL     1      -4.092  13.941  23.508  0.00  0.00    +0.000 C 
ATOM     25  C   UNL     1      -3.872  14.741  22.215  0.00  0.00    +0.000 C 
ATOM     26  C   UNL     1      -5.604  13.747  23.718  0.00  0.00    +0.000 C 
ATOM     27  C   UNL     1      -3.579  14.768  24.702  0.00  0.00    +0.000 C 
ENDBRANCH  21  24
ENDBRANCH   5  20
BRANCH   1  28
ATOM     28  C   UNL     1      -0.986  12.283  17.414  0.00  0.00    +0.000 C 
BRANCH  28  29
ATOM     29  C   UNL     1      -2.300  11.801  16.744  0.00  0.00    +0.000 C 
BRANCH  29  31
ATOM     30  C   UNL     1      -3.209   9.667  17.429  0.00  0.00    +0.000 C 
ATOM     31  N   UNL     1      -2.346  10.354  16.466  0.00  0.00    +0.000 NA
ATOM     32  C   UNL     1      -2.833  10.099  15.108  0.00  0.00    +0.000 C 
ENDBRANCH  29  31
ENDBRANCH  28  29
ENDBRANCH   1  28
TORSDOF 5
ENDMDL
MODEL 7
REMARK VINA RESULT:      -6.5      1.824      6.721
REMARK  Name = 
REMARK  10 active torsions:
REMARK  status: ('A' for Active; 'I' for Inactive)
REMARK    1  A    between atoms: C_1  and  N_2
REMARK    2  A    between atoms: N_2  and  C_3
REMARK    3  A    between atoms: N_2  and  C_4
REMARK    4  A    between atoms: C_4  and  C_5
REMARK    5  A    between atoms: C_5  and  N_6
REMARK    6  A    between atoms: C_10  and  N_11
REMARK    7  A    between atoms: C_12  and  C_14
REMARK    8  A    between atoms: C_14  and  C_15
REMARK    9  A    between atoms: C_14  and  C_16
REMARK   10  A    between atoms: C_14  and  C_17
REMARK                            x       y       z     vdW  Elec       q    Type
REMARK                         _______ _______ _______ _____ _____    ______ ____
ROOT
ATOM      1  N   UNL     1       1.047  12.321  18.955  0.00  0.00    +0.000 N 
ATOM      2  C   UNL     1       1.463  11.038  19.251  0.00  0.00    +0.000 C 
ATOM      3  O   UNL     1       2.333  10.464  18.596  0.00  0.00    +0.000 OA
ATOM      4  C   UNL     1       0.751  10.326  20.363  0.00  0.00    +0.000 A 
ATOM      5  C   UNL     1       0.933   8.944  20.557  0.00  0.00    +0.000 A 
ATOM      6  C   UNL     1       0.284   8.336  21.635  0.00  0.00    +0.000 A 
ATOM      7  C   UNL     1      -0.498   9.110  22.535  0.00  0.00    +0.000 A 
ATOM      8  C   UNL     1      -0.715  10.512  22.349  0.00  0.00    +0.000 A 
ATOM      9  C   UNL     1      -1.508  11.364  23.204  0.00  0.00    +0.000 A 
ATOM     10  C   UNL     1      -1.695  12.754  22.936  0.00  0.00    +0.000 A 
ATOM     11  C   UNL     1      -1.105  13.246  21.778  0.00  0.00    +0.000 A 
ATOM     12  C   UNL     1      -0.392  12.395  20.913  0.00  0.00    +0.000 A 
ATOM     13  C   UNL     1      -0.110  11.070  21.204  0.00  0.00    +0.000 A 
ATOM     14  C   UNL     1      -0.010  12.920  19.587  0.00  0.00    +0.000 C 
ATOM     15  O   UNL     1      -0.631  13.789  19.000  0.00  0.00    +0.000 OA
ATOM     16  C   UNL     1      -1.113  14.700  21.447  0.00  0.00    +0.000 C 
ATOM     17  C   UNL     1      -1.934  15.706  22.180  0.00  0.00    +0.000 C 
ATOM     18  C   UNL     1      -2.663  15.197  23.393  0.00  0.00    +0.000 C 
ATOM     19  C   UNL     1      -2.519  13.703  23.799  0.00  0.00    +0.000 C 
ENDROOT
BRANCH   5  20
ATOM     20  N   UNL     1       1.834   8.226  19.716  0.00  0.00    +0.000 N 
ATOM     21  C   UNL     1       2.125   6.876  19.877  0.00  0.00    +0.000 C 
ATOM     22  O   UNL     1       1.813   6.226  20.872  0.00  0.00    +0.000 OA
ATOM     23  H   UNL     1       1.726   8.474  18.731  0.00  0.00    +0.000 HD
BRANCH  21  24
ATOM     24  C   UNL     1       2.882   6.240  18.662  0.00  0.00    +0.000 C 
ATOM     25  C   UNL     1       3.290   7.354  17.686  0.00  0.00    +0.000 C 
ATOM     26  C   UNL     1       4.152   5.513  19.141  0.00  0.00    +0.000 C 
ATOM     27  C   UNL     1       2.030   5.201  17.911  0.00  0.00    +0.000 C 
ENDBRANCH  21  24
ENDBRANCH   5  20
BRANCH   1  28
ATOM     28  C   UNL     1       1.616  13.081  17.852  0.00  0.00    +0.000 C 
BRANCH  28  29
ATOM     29  C   UNL     1       2.788  14.002  18.283  0.00  0.00    +0.000 C 
BRANCH  29  31
ATOM     30  C   UNL     1       2.418  15.869  19.778  0.00  0.00    +0.000 C 
ATOM     31  N   UNL     1       2.434  15.430  18.380  0.00  0.00    +0.000 NA
ATOM     32  C   UNL     1       3.381  16.254  17.623  0.00  0.00    +0.000 C 
ENDBRANCH  29  31
ENDBRANCH  28  29
ENDBRANCH   1  28
TORSDOF 5
ENDMDL
MODEL 8
REMARK VINA RESULT:      -6.4      1.417      1.854
REMARK  Name = 
REMARK  10 active torsions:
REMARK  status: ('A' for Active; 'I' for Inactive)
REMARK    1  A    between atoms: C_1  and  N_2
REMARK    2  A    between atoms: N_2  and  C_3
REMARK    3  A    between atoms: N_2  and  C_4
REMARK    4  A    between atoms: C_4  and  C_5
REMARK    5  A    between atoms: C_5  and  N_6
REMARK    6  A    between atoms: C_10  and  N_11
REMARK    7  A    between atoms: C_12  and  C_14
REMARK    8  A    between atoms: C_14  and  C_15
REMARK    9  A    between atoms: C_14  and  C_16
REMARK   10  A    between atoms: C_14  and  C_17
REMARK                            x       y       z     vdW  Elec       q    Type
REMARK                         _______ _______ _______ _____ _____    ______ ____
ROOT
ATOM      1  N   UNL     1       0.142  13.354  19.312  0.00  0.00    +0.000 N 
ATOM      2  C   UNL     1      -0.769  13.515  20.336  0.00  0.00    +0.000 C 
ATOM      3  O   UNL     1      -1.453  14.532  20.451  0.00  0.00    +0.000 OA
ATOM      4  C   UNL     1      -0.841  12.428  21.367  0.00  0.00    +0.000 A 
ATOM      5  C   UNL     1      -1.547  12.629  22.569  0.00  0.00    +0.000 A 
ATOM      6  C   UNL     1      -1.624  11.570  23.477  0.00  0.00    +0.000 A 
ATOM      7  C   UNL     1      -1.042  10.311  23.166  0.00  0.00    +0.000 A 
ATOM      8  C   UNL     1      -0.302  10.086  21.962  0.00  0.00    +0.000 A 
ATOM      9  C   UNL     1       0.332   8.846  21.580  0.00  0.00    +0.000 A 
ATOM     10  C   UNL     1       1.075   8.709  20.368  0.00  0.00    +0.000 A 
ATOM     11  C   UNL     1       1.193   9.849  19.582  0.00  0.00    +0.000 A 
ATOM     12  C   UNL     1       0.630  11.072  19.995  0.00  0.00    +0.000 A 
ATOM     13  C   UNL     1      -0.179  11.204  21.111  0.00  0.00    +0.000 A 
ATOM     14  C   UNL     1       1.003  12.290  19.249  0.00  0.00    +0.000 C 
ATOM     15  O   UNL     1       2.061  12.424  18.660  0.00  0.00    +0.000 OA
ATOM     16  C   UNL     1       1.828   9.814  18.234  0.00  0.00    +0.000 C 
ATOM     17  C   UNL     1       2.588   8.641  17.713  0.00  0.00    +0.000 C 
ATOM     18  C   UNL     1       2.561   7.409  18.575  0.00  0.00    +0.000 C 
ATOM     19  C   UNL     1       1.766   7.429  19.911  0.00  0.00    +0.000 C 
ENDROOT
BRANCH   5  20
ATOM     20  N   UNL     1      -2.233  13.860  22.785  0.00  0.00    +0.000 N 
ATOM     21  C   UNL     1      -1.785  14.847  23.657  0.00  0.00    +0.000 C 
ATOM     22  O   UNL     1      -0.888  14.673  24.478  0.00  0.00    +0.000 OA
ATOM     23  H   UNL     1      -2.597  14.259  21.918  0.00  0.00    +0.000 HD
BRANCH  21  24
ATOM     24  C   UNL     1      -2.520  16.221  23.493  0.00  0.00    +0.000 C 
ATOM     25  C   UNL     1      -2.903  16.753  24.882  0.00  0.00    +0.000 C 
ATOM     26  C   UNL     1      -1.598  17.245  22.808  0.00  0.00    +0.000 C 
ATOM     27  C   UNL     1      -3.790  16.115  22.628  0.00  0.00    +0.000 C 
ENDBRANCH  21  24
ENDBRANCH   5  20
BRANCH   1  28
ATOM     28  C   UNL     1       0.349  14.374  18.296  0.00  0.00    +0.000 C 
BRANCH  28  29
ATOM     29  C   UNL     1       1.335  15.489  18.738  0.00  0.00    +0.000 C 
BRANCH  29  31
ATOM     30  C   UNL     1      -0.534  16.904  18.139  0.00  0.00    +0.000 C 
ATOM     31  N   UNL     1       0.911  16.853  18.377  0.00  0.00    +0.000 NA
ATOM     32  C   UNL     1       1.262  17.805  19.434  0.00  0.00    +0.000 C 
ENDBRANCH  29  31
ENDBRANCH  28  29
ENDBRANCH   1  28
TORSDOF 5
ENDMDL
MODEL 9
REMARK VINA RESULT:      -6.4      1.819      6.700
REMARK  Name = 
REMARK  10 active torsions:
REMARK  status: ('A' for Active; 'I' for Inactive)
REMARK    1  A    between atoms: C_1  and  N_2
REMARK    2  A    between atoms: N_2  and  C_3
REMARK    3  A    between atoms: N_2  and  C_4
REMARK    4  A    between atoms: C_4  and  C_5
REMARK    5  A    between atoms: C_5  and  N_6
REMARK    6  A    between atoms: C_10  and  N_11
REMARK    7  A    between atoms: C_12  and  C_14
REMARK    8  A    between atoms: C_14  and  C_15
REMARK    9  A    between atoms: C_14  and  C_16
REMARK   10  A    between atoms: C_14  and  C_17
REMARK                            x       y       z     vdW  Elec       q    Type
REMARK                         _______ _______ _______ _____ _____    ______ ____
ROOT
ATOM      1  N   UNL     1       1.075  12.581  19.136  0.00  0.00    +0.000 N 
ATOM      2  C   UNL     1       1.458  11.275  19.367  0.00  0.00    +0.000 C 
ATOM      3  O   UNL     1       2.335  10.722  18.704  0.00  0.00    +0.000 OA
ATOM      4  C   UNL     1       0.702  10.514  20.415  0.00  0.00    +0.000 A 
ATOM      5  C   UNL     1       0.851   9.119  20.533  0.00  0.00    +0.000 A 
ATOM      6  C   UNL     1       0.160   8.463  21.555  0.00  0.00    +0.000 A 
ATOM      7  C   UNL     1      -0.632   9.199  22.476  0.00  0.00    +0.000 A 
ATOM      8  C   UNL     1      -0.817  10.613  22.368  0.00  0.00    +0.000 A 
ATOM      9  C   UNL     1      -1.617  11.431  23.251  0.00  0.00    +0.000 A 
ATOM     10  C   UNL     1      -1.770  12.837  23.060  0.00  0.00    +0.000 A 
ATOM     11  C   UNL     1      -1.137  13.384  21.950  0.00  0.00    +0.000 A 
ATOM     12  C   UNL     1      -0.417  12.570  21.055  0.00  0.00    +0.000 A 
ATOM     13  C   UNL     1      -0.169  11.225  21.275  0.00  0.00    +0.000 A 
ATOM     14  C   UNL     1       0.013  13.164  19.774  0.00  0.00    +0.000 C 
ATOM     15  O   UNL     1      -0.574  14.079  19.223  0.00  0.00    +0.000 OA
ATOM     16  C   UNL     1      -1.108  14.854  21.705  0.00  0.00    +0.000 C 
ATOM     17  C   UNL     1      -1.930  15.833  22.474  0.00  0.00    +0.000 C 
ATOM     18  C   UNL     1      -2.703  15.269  23.635  0.00  0.00    +0.000 C 
ATOM     19  C   UNL     1      -2.599  13.751  23.955  0.00  0.00    +0.000 C 
ENDROOT
BRANCH   5  20
ATOM     20  N   UNL     1       1.761   8.434  19.675  0.00  0.00    +0.000 N 
ATOM     21  C   UNL     1       2.119   7.100  19.842  0.00  0.00    +0.000 C 
ATOM     22  O   UNL     1       1.862   6.448  20.852  0.00  0.00    +0.000 OA
ATOM     23  H   UNL     1       1.616   8.665  18.691  0.00  0.00    +0.000 HD
BRANCH  21  24
ATOM     24  C   UNL     1       2.872   6.485  18.614  0.00  0.00    +0.000 C 
ATOM     25  C   UNL     1       1.958   5.459  17.927  0.00  0.00    +0.000 C 
ATOM     26  C   UNL     1       3.232   7.585  17.598  0.00  0.00    +0.000 C 
ATOM     27  C   UNL     1       4.191   5.797  19.012  0.00  0.00    +0.000 C 
ENDBRANCH  21  24
ENDBRANCH   5  20
BRANCH   1  28
ATOM     28  C   UNL     1       1.690  13.392  18.097  0.00  0.00    +0.000 C 
BRANCH  28  29
ATOM     29  C   UNL     1       2.857  14.274  18.616  0.00  0.00    +0.000 C 
BRANCH  29  31
ATOM     30  C   UNL     1       3.141  16.413  17.523  0.00  0.00    +0.000 C 
ATOM     31  N   UNL     1       3.575  15.015  17.564  0.00  0.00    +0.000 NA
ATOM     32  C   UNL     1       5.023  14.961  17.784  0.00  0.00    +0.000 C 
ENDBRANCH  29  31
ENDBRANCH  28  29
ENDBRANCH   1  28
TORSDOF 5
ENDMDL
