MODEL 1
REMARK VINA RESULT:      -7.3      0.000      0.000
REMARK  Name = 
REMARK  9 active torsions:
REMARK  status: ('A' for Active; 'I' for Inactive)
REMARK    1  A    between atoms: C_1  and  C_2
REMARK    2  A    between atoms: C_2  and  O_3
REMARK    3  A    between atoms: O_3  and  C_4
REMARK    4  A    between atoms: C_4  and  C_6
REMARK    5  A    between atoms: C_10  and  C_11
REMARK    6  A    between atoms: C_14  and  C_15
REMARK    7  A    between atoms: C_15  and  N_16
REMARK    8  A    between atoms: N_19  and  S_20
REMARK    9  A    between atoms: S_20  and  C_21
REMARK                            x       y       z     vdW  Elec       q    Type
REMARK                         _______ _______ _______ _____ _____    ______ ____
ROOT
ATOM      1  C   UNL     1       2.772   5.052  19.137  0.00  0.00    +0.000 A 
ATOM      2  C   UNL     1       1.827   4.395  19.903  0.00  0.00    +0.000 A 
ATOM      3  C   UNL     1       1.236   5.383  20.736  0.00  0.00    +0.000 A 
ATOM      4  C   UNL     1       1.854   6.578  20.423  0.00  0.00    +0.000 A 
ATOM      5  O   UNL     1       2.767   6.382  19.436  0.00  0.00    +0.000 OA
ENDROOT
BRANCH   1  10
ATOM      6  C   UNL     1       6.180   4.648  17.652  0.00  0.00    +0.000 A 
ATOM      7  C   UNL     1       5.872   4.157  16.379  0.00  0.00    +0.000 A 
ATOM      8  C   UNL     1       4.550   3.871  16.040  0.00  0.00    +0.000 A 
ATOM      9  C   UNL     1       3.528   4.115  16.961  0.00  0.00    +0.000 A 
ATOM     10  C   UNL     1       3.822   4.629  18.230  0.00  0.00    +0.000 A 
ATOM     11  C   UNL     1       5.156   4.851  18.586  0.00  0.00    +0.000 A 
BRANCH   6  12
ATOM     12  C   UNL     1       7.597   4.956  17.969  0.00  0.00    +0.000 C 
ATOM     13  O   UNL     1       8.502   4.141  17.886  0.00  0.00    +0.000 OA
BRANCH  12  14
ATOM     14  O   UNL     1       7.703   6.230  18.421  0.00  0.00    +0.000 OA
BRANCH  14  16
ATOM     15  C   UNL     1       8.179   8.524  17.949  0.00  0.00    +0.000 C 
ATOM     16  C   UNL     1       7.536   7.251  17.429  0.00  0.00    +0.000 C 
ENDBRANCH  14  16
ENDBRANCH  12  14
ENDBRANCH   6  12
ENDBRANCH   1  10
BRANCH   4  17
ATOM     17  C   UNL     1       1.722   7.977  20.931  0.00  0.00    +0.000 C 
BRANCH  17  18
ATOM     18  N   UNL     1       0.420   8.589  20.612  0.00  0.00    +0.000 NA
ATOM     19  C   UNL     1      -0.449   8.772  21.792  0.00  0.00    +0.000 C 
ATOM     20  C   UNL     1      -0.005   9.857  22.790  0.00  0.00    +0.000 C 
ATOM     21  N   UNL     1       0.310  11.164  22.145  0.00  0.00    +0.000 NA
ATOM     22  C   UNL     1       1.058  11.058  20.863  0.00  0.00    +0.000 C 
ATOM     23  C   UNL     1       0.583   9.903  19.959  0.00  0.00    +0.000 C 
BRANCH  21  24
ATOM     24  S   UNL     1      -0.797  12.426  22.317  0.00  0.00    +0.000 S 
ATOM     25  C   UNL     1      -1.929  12.094  20.977  0.00  0.00    +0.000 C 
ATOM     26  O   UNL     1      -1.532  12.220  23.550  0.00  0.00    +0.000 OA
ATOM     27  O   UNL     1      -0.108  13.666  22.052  0.00  0.00    +0.000 OA
ENDBRANCH  21  24
ENDBRANCH  17  18
ENDBRANCH   4  17
TORSDOF 7
ENDMDL
MODEL 2
REMARK VINA RESULT:      -7.3      1.994      3.099
REMARK  Name = 
REMARK  9 active torsions:
REMARK  status: ('A' for Active; 'I' for Inactive)
REMARK    1  A    between atoms: C_1  and  C_2
REMARK    2  A    between atoms: C_2  and  O_3
REMARK    3  A    between atoms: O_3  and  C_4
REMARK    4  A    between atoms: C_4  and  C_6
REMARK    5  A    between atoms: C_10  and  C_11
REMARK    6  A    between atoms: C_14  and  C_15
REMARK    7  A    between atoms: C_15  and  N_16
REMARK    8  A    between atoms: N_19  and  S_20
REMARK    9  A    between atoms: S_20  and  C_21
REMARK                            x       y       z     vdW  Elec       q    Type
REMARK                         _______ _______ _______ _____ _____    ______ ____
ROOT
ATOM      1  C   UNL     1       2.599   7.615  18.336  0.00  0.00    +0.000 A 
ATOM      2  C   UNL     1       2.198   8.753  17.661  0.00  0.00    +0.000 A 
ATOM      3  C   UNL     1       1.329   9.451  18.542  0.00  0.00    +0.000 A 
ATOM      4  C   UNL     1       1.258   8.698  19.698  0.00  0.00    +0.000 A 
ATOM      5  O   UNL     1       2.047   7.599  19.583  0.00  0.00    +0.000 OA
ENDROOT
BRANCH   1  10
ATOM      6  C   UNL     1       5.060   5.388  16.616  0.00  0.00    +0.000 A 
ATOM      7  C   UNL     1       4.569   4.121  16.948  0.00  0.00    +0.000 A 
ATOM      8  C   UNL     1       3.483   3.997  17.813  0.00  0.00    +0.000 A 
ATOM      9  C   UNL     1       2.861   5.143  18.316  0.00  0.00    +0.000 A 
ATOM     10  C   UNL     1       3.328   6.416  17.971  0.00  0.00    +0.000 A 
ATOM     11  C   UNL     1       4.458   6.531  17.155  0.00  0.00    +0.000 A 
BRANCH   6  12
ATOM     12  C   UNL     1       6.207   5.479  15.677  0.00  0.00    +0.000 C 
ATOM     13  O   UNL     1       7.298   5.933  15.983  0.00  0.00    +0.000 OA
BRANCH  12  14
ATOM     14  O   UNL     1       5.830   5.057  14.445  0.00  0.00    +0.000 OA
BRANCH  14  16
ATOM     15  C   UNL     1       5.927   3.529  12.610  0.00  0.00    +0.000 C 
ATOM     16  C   UNL     1       6.553   3.930  13.933  0.00  0.00    +0.000 C 
ENDBRANCH  14  16
ENDBRANCH  12  14
ENDBRANCH   6  12
ENDBRANCH   1  10
BRANCH   4  17
ATOM     17  C   UNL     1       0.520   8.848  20.989  0.00  0.00    +0.000 C 
BRANCH  17  18
ATOM     18  N   UNL     1       0.952  10.020  21.771  0.00  0.00    +0.000 NA
ATOM     19  C   UNL     1       0.712  11.306  21.085  0.00  0.00    +0.000 C 
ATOM     20  C   UNL     1      -0.762  11.735  20.961  0.00  0.00    +0.000 C 
ATOM     21  N   UNL     1      -1.512  11.661  22.247  0.00  0.00    +0.000 NA
ATOM     22  C   UNL     1      -1.209  10.461  23.074  0.00  0.00    +0.000 C 
ATOM     23  C   UNL     1       0.282  10.073  23.086  0.00  0.00    +0.000 C 
BRANCH  21  24
ATOM     24  S   UNL     1      -1.871  13.104  23.045  0.00  0.00    +0.000 S 
ATOM     25  C   UNL     1      -2.258  14.184  21.678  0.00  0.00    +0.000 C 
ATOM     26  O   UNL     1      -3.100  12.915  23.792  0.00  0.00    +0.000 OA
ATOM     27  O   UNL     1      -0.667  13.574  23.687  0.00  0.00    +0.000 OA
ENDBRANCH  21  24
ENDBRANCH  17  18
ENDBRANCH   4  17
TORSDOF 7
ENDMDL
MODEL 3
REMARK VINA RESULT:      -7.3      3.444      8.671
REMARK  Name = 
REMARK  9 active torsions:
REMARK  status: ('A' for Active; 'I' for Inactive)
REMARK    1  A    between atoms: C_1  and  C_2
REMARK    2  A    between atoms: C_2  and  O_3
REMARK    3  A    between atoms: O_3  and  C_4
REMARK    4  A    between atoms: C_4  and  C_6
REMARK    5  A    between atoms: C_10  and  C_11
REMARK    6  A    between atoms: C_14  and  C_15
REMARK    7  A    between atoms: C_15  and  N_16
REMARK    8  A    between atoms: N_19  and  S_20
REMARK    9  A    between atoms: S_20  and  C_21
REMARK                            x       y       z     vdW  Elec       q    Type
REMARK                         _______ _______ _______ _____ _____    ______ ____
ROOT
ATOM      1  C   UNL     1       1.875   6.275  20.156  0.00  0.00    +0.000 A 
ATOM      2  C   UNL     1       1.799   5.241  21.071  0.00  0.00    +0.000 A 
ATOM      3  C   UNL     1       2.027   4.045  20.339  0.00  0.00    +0.000 A 
ATOM      4  C   UNL     1       2.231   4.425  19.026  0.00  0.00    +0.000 A 
ATOM      5  O   UNL     1       2.164   5.777  18.920  0.00  0.00    +0.000 OA
ENDROOT
BRANCH   1  10
ATOM      6  C   UNL     1       0.552   9.557  21.362  0.00  0.00    +0.000 A 
ATOM      7  C   UNL     1       0.677  10.346  20.214  0.00  0.00    +0.000 A 
ATOM      8  C   UNL     1       1.281   9.826  19.071  0.00  0.00    +0.000 A 
ATOM      9  C   UNL     1       1.726   8.501  19.060  0.00  0.00    +0.000 A 
ATOM     10  C   UNL     1       1.583   7.694  20.195  0.00  0.00    +0.000 A 
ATOM     11  C   UNL     1       1.035   8.243  21.359  0.00  0.00    +0.000 A 
BRANCH   6  12
ATOM     12  C   UNL     1      -0.114  10.141  22.553  0.00  0.00    +0.000 C 
ATOM     13  O   UNL     1       0.182   9.855  23.703  0.00  0.00    +0.000 OA
BRANCH  12  14
ATOM     14  O   UNL     1      -1.122  10.960  22.165  0.00  0.00    +0.000 OA
BRANCH  14  16
ATOM     15  C   UNL     1      -2.776  12.242  23.319  0.00  0.00    +0.000 C 
ATOM     16  C   UNL     1      -1.304  12.135  22.965  0.00  0.00    +0.000 C 
ENDBRANCH  14  16
ENDBRANCH  12  14
ENDBRANCH   6  12
ENDBRANCH   1  10
BRANCH   4  17
ATOM     17  C   UNL     1       2.498   3.676  17.761  0.00  0.00    +0.000 C 
BRANCH  17  18
ATOM     18  N   UNL     1       3.847   3.087  17.710  0.00  0.00    +0.000 NA
ATOM     19  C   UNL     1       4.544   3.321  16.429  0.00  0.00    +0.000 C 
ATOM     20  C   UNL     1       4.995   4.770  16.166  0.00  0.00    +0.000 C 
ATOM     21  N   UNL     1       5.743   5.375  17.305  0.00  0.00    +0.000 NA
ATOM     22  C   UNL     1       5.188   5.057  18.649  0.00  0.00    +0.000 C 
ATOM     23  C   UNL     1       4.706   3.601  18.796  0.00  0.00    +0.000 C 
BRANCH  21  24
ATOM     24  S   UNL     1       7.415   5.552  17.157  0.00  0.00    +0.000 S 
ATOM     25  C   UNL     1       7.733   6.903  18.279  0.00  0.00    +0.000 C 
ATOM     26  O   UNL     1       8.047   4.376  17.724  0.00  0.00    +0.000 OA
ATOM     27  O   UNL     1       7.703   5.983  15.810  0.00  0.00    +0.000 OA
ENDBRANCH  21  24
ENDBRANCH  17  18
ENDBRANCH   4  17
TORSDOF 7
ENDMDL
MODEL 4
REMARK VINA RESULT:      -7.2      2.014      2.815
REMARK  Name = 
REMARK  9 active torsions:
REMARK  status: ('A' for Active; 'I' for Inactive)
REMARK    1  A    between atoms: C_1  and  C_2
REMARK    2  A    between atoms: C_2  and  O_3
REMARK    3  A    between atoms: O_3  and  C_4
REMARK    4  A    between atoms: C_4  and  C_6
REMARK    5  A    between atoms: C_10  and  C_11
REMARK    6  A    between atoms: C_14  and  C_15
REMARK    7  A    between atoms: C_15  and  N_16
REMARK    8  A    between atoms: N_19  and  S_20
REMARK    9  A    between atoms: S_20  and  C_21
REMARK                            x       y       z     vdW  Elec       q    Type
REMARK                         _______ _______ _______ _____ _____    ______ ____
ROOT
ATOM      1  C   UNL     1       2.525   7.367  18.297  0.00  0.00    +0.000 A 
ATOM      2  C   UNL     1       2.262   8.475  17.514  0.00  0.00    +0.000 A 
ATOM      3  C   UNL     1       1.689   9.445  18.379  0.00  0.00    +0.000 A 
ATOM      4  C   UNL     1       1.641   8.869  19.634  0.00  0.00    +0.000 A 
ATOM      5  O   UNL     1       2.171   7.619  19.589  0.00  0.00    +0.000 OA
ENDROOT
BRANCH   1  10
ATOM      6  C   UNL     1       4.662   4.491  17.227  0.00  0.00    +0.000 A 
ATOM      7  C   UNL     1       3.723   3.456  17.162  0.00  0.00    +0.000 A 
ATOM      8  C   UNL     1       2.406   3.681  17.558  0.00  0.00    +0.000 A 
ATOM      9  C   UNL     1       2.015   4.954  17.983  0.00  0.00    +0.000 A 
ATOM     10  C   UNL     1       2.940   6.004  18.028  0.00  0.00    +0.000 A 
ATOM     11  C   UNL     1       4.274   5.754  17.692  0.00  0.00    +0.000 A 
BRANCH   6  12
ATOM     12  C   UNL     1       6.050   4.217  16.778  0.00  0.00    +0.000 C 
ATOM     13  O   UNL     1       7.042   4.584  17.387  0.00  0.00    +0.000 OA
BRANCH  12  14
ATOM     14  O   UNL     1       6.032   3.578  15.583  0.00  0.00    +0.000 OA
BRANCH  14  16
ATOM     15  C   UNL     1       7.119   4.833  13.864  0.00  0.00    +0.000 C 
ATOM     16  C   UNL     1       5.781   4.411  14.444  0.00  0.00    +0.000 C 
ENDBRANCH  14  16
ENDBRANCH  12  14
ENDBRANCH   6  12
ENDBRANCH   1  10
BRANCH   4  17
ATOM     17  C   UNL     1       1.146   9.329  20.967  0.00  0.00    +0.000 C 
BRANCH  17  18
ATOM     18  N   UNL     1      -0.315   9.206  21.116  0.00  0.00    +0.000 NA
ATOM     19  C   UNL     1      -0.779   9.359  22.511  0.00  0.00    +0.000 C 
ATOM     20  C   UNL     1      -0.679  10.779  23.098  0.00  0.00    +0.000 C 
ATOM     21  N   UNL     1      -1.265  11.828  22.217  0.00  0.00    +0.000 NA
ATOM     22  C   UNL     1      -0.968  11.658  20.768  0.00  0.00    +0.000 C 
ATOM     23  C   UNL     1      -1.031  10.195  20.287  0.00  0.00    +0.000 C 
BRANCH  21  24
ATOM     24  S   UNL     1      -2.755  12.493  22.649  0.00  0.00    +0.000 S 
ATOM     25  C   UNL     1      -2.270  14.104  23.244  0.00  0.00    +0.000 C 
ATOM     26  O   UNL     1      -3.525  12.705  21.439  0.00  0.00    +0.000 OA
ATOM     27  O   UNL     1      -3.285  11.727  23.751  0.00  0.00    +0.000 OA
ENDBRANCH  21  24
ENDBRANCH  17  18
ENDBRANCH   4  17
TORSDOF 7
ENDMDL
MODEL 5
REMARK VINA RESULT:      -7.2      2.258      3.726
REMARK  Name = 
REMARK  9 active torsions:
REMARK  status: ('A' for Active; 'I' for Inactive)
REMARK    1  A    between atoms: C_1  and  C_2
REMARK    2  A    between atoms: C_2  and  O_3
REMARK    3  A    between atoms: O_3  and  C_4
REMARK    4  A    between atoms: C_4  and  C_6
REMARK    5  A    between atoms: C_10  and  C_11
REMARK    6  A    between atoms: C_14  and  C_15
REMARK    7  A    between atoms: C_15  and  N_16
REMARK    8  A    between atoms: N_19  and  S_20
REMARK    9  A    between atoms: S_20  and  C_21
REMARK                            x       y       z     vdW  Elec       q    Type
REMARK                         _______ _______ _______ _____ _____    ______ ____
ROOT
ATOM      1  C   UNL     1       2.703   7.750  18.186  0.00  0.00    +0.000 A 
ATOM      2  C   UNL     1       2.263   8.922  17.600  0.00  0.00    +0.000 A 
ATOM      3  C   UNL     1       1.411   9.545  18.551  0.00  0.00    +0.000 A 
ATOM      4  C   UNL     1       1.388   8.716  19.656  0.00  0.00    +0.000 A 
ATOM      5  O   UNL     1       2.190   7.641  19.445  0.00  0.00    +0.000 OA
ENDROOT
BRANCH   1  10
ATOM      6  C   UNL     1       3.893   4.215  17.927  0.00  0.00    +0.000 A 
ATOM      7  C   UNL     1       5.034   4.363  17.131  0.00  0.00    +0.000 A 
ATOM      8  C   UNL     1       5.360   5.611  16.603  0.00  0.00    +0.000 A 
ATOM      9  C   UNL     1       4.568   6.722  16.903  0.00  0.00    +0.000 A 
ATOM     10  C   UNL     1       3.438   6.591  17.719  0.00  0.00    +0.000 A 
ATOM     11  C   UNL     1       3.080   5.324  18.191  0.00  0.00    +0.000 A 
BRANCH   6  12
ATOM     12  C   UNL     1       3.589   2.874  18.486  0.00  0.00    +0.000 C 
ATOM     13  O   UNL     1       3.625   1.844  17.831  0.00  0.00    +0.000 OA
BRANCH  12  14
ATOM     14  O   UNL     1       3.205   2.988  19.780  0.00  0.00    +0.000 OA
BRANCH  14  16
ATOM     15  C   UNL     1       0.978   3.468  20.504  0.00  0.00    +0.000 C 
ATOM     16  C   UNL     1       1.952   2.373  20.107  0.00  0.00    +0.000 C 
ENDBRANCH  14  16
ENDBRANCH  12  14
ENDBRANCH   6  12
ENDBRANCH   1  10
BRANCH   4  17
ATOM     17  C   UNL     1       0.688   8.768  20.975  0.00  0.00    +0.000 C 
BRANCH  17  18
ATOM     18  N   UNL     1       1.060   9.943  21.783  0.00  0.00    +0.000 NA
ATOM     19  C   UNL     1       0.796  11.230  21.107  0.00  0.00    +0.000 C 
ATOM     20  C   UNL     1      -0.687  11.612  20.947  0.00  0.00    +0.000 C 
ATOM     21  N   UNL     1      -1.469  11.497  22.211  0.00  0.00    +0.000 NA
ATOM     22  C   UNL     1      -1.150  10.296  23.031  0.00  0.00    +0.000 C 
ATOM     23  C   UNL     1       0.353   9.957  23.080  0.00  0.00    +0.000 C 
BRANCH  21  24
ATOM     24  S   UNL     1      -1.897  12.917  23.016  0.00  0.00    +0.000 S 
ATOM     25  C   UNL     1      -2.414  13.956  21.660  0.00  0.00    +0.000 C 
ATOM     26  O   UNL     1      -3.078  12.647  23.813  0.00  0.00    +0.000 OA
ATOM     27  O   UNL     1      -0.704  13.475  23.607  0.00  0.00    +0.000 OA
ENDBRANCH  21  24
ENDBRANCH  17  18
ENDBRANCH   4  17
TORSDOF 7
ENDMDL
MODEL 6
REMARK VINA RESULT:      -7.1      2.059      3.142
REMARK  Name = 
REMARK  9 active torsions:
REMARK  status: ('A' for Active; 'I' for Inactive)
REMARK    1  A    between atoms: C_1  and  C_2
REMARK    2  A    between atoms: C_2  and  O_3
REMARK    3  A    between atoms: O_3  and  C_4
REMARK    4  A    between atoms: C_4  and  C_6
REMARK    5  A    between atoms: C_10  and  C_11
REMARK    6  A    between atoms: C_14  and  C_15
REMARK    7  A    between atoms: C_15  and  N_16
REMARK    8  A    between atoms: N_19  and  S_20
REMARK    9  A    between atoms: S_20  and  C_21
REMARK                            x       y       z     vdW  Elec       q    Type
REMARK                         _______ _______ _______ _____ _____    ______ ____
ROOT
ATOM      1  C   UNL     1       2.209   8.364  18.396  0.00  0.00    +0.000 A 
ATOM      2  C   UNL     1       2.058   9.550  17.702  0.00  0.00    +0.000 A 
ATOM      3  C   UNL     1       1.137  10.332  18.449  0.00  0.00    +0.000 A 
ATOM      4  C   UNL     1       0.788   9.576  19.551  0.00  0.00    +0.000 A 
ATOM      5  O   UNL     1       1.457   8.395  19.532  0.00  0.00    +0.000 OA
ENDROOT
BRANCH   1  10
ATOM      6  C   UNL     1       4.621   5.882  16.981  0.00  0.00    +0.000 A 
ATOM      7  C   UNL     1       3.964   4.675  17.243  0.00  0.00    +0.000 A 
ATOM      8  C   UNL     1       2.773   4.670  17.967  0.00  0.00    +0.000 A 
ATOM      9  C   UNL     1       2.214   5.877  18.395  0.00  0.00    +0.000 A 
ATOM     10  C   UNL     1       2.850   7.094  18.117  0.00  0.00    +0.000 A 
ATOM     11  C   UNL     1       4.078   7.085  17.448  0.00  0.00    +0.000 A 
BRANCH   6  12
ATOM     12  C   UNL     1       5.878   5.847  16.192  0.00  0.00    +0.000 C 
ATOM     13  O   UNL     1       5.938   6.120  15.003  0.00  0.00    +0.000 OA
BRANCH  12  14
ATOM     14  O   UNL     1       6.898   5.404  16.966  0.00  0.00    +0.000 OA
BRANCH  14  16
ATOM     15  C   UNL     1       7.729   5.812  19.169  0.00  0.00    +0.000 C 
ATOM     16  C   UNL     1       7.527   6.399  17.784  0.00  0.00    +0.000 C 
ENDBRANCH  14  16
ENDBRANCH  12  14
ENDBRANCH   6  12
ENDBRANCH   1  10
BRANCH   4  17
ATOM     17  C   UNL     1      -0.136   9.794  20.705  0.00  0.00    +0.000 C 
BRANCH  17  18
ATOM     18  N   UNL     1       0.381  10.763  21.687  0.00  0.00    +0.000 NA
ATOM     19  C   UNL     1       0.456  12.144  21.167  0.00  0.00    +0.000 C 
ATOM     20  C   UNL     1      -0.894  12.851  20.944  0.00  0.00    +0.000 C 
ATOM     21  N   UNL     1      -1.810  12.765  22.117  0.00  0.00    +0.000 NA
ATOM     22  C   UNL     1      -1.828  11.440  22.795  0.00  0.00    +0.000 C 
ATOM     23  C   UNL     1      -0.439  10.783  22.915  0.00  0.00    +0.000 C 
BRANCH  21  24
ATOM     24  S   UNL     1      -2.022  14.145  23.066  0.00  0.00    +0.000 S 
ATOM     25  C   UNL     1      -3.440  13.690  24.049  0.00  0.00    +0.000 C 
ATOM     26  O   UNL     1      -0.896  14.248  23.974  0.00  0.00    +0.000 OA
ATOM     27  O   UNL     1      -2.386  15.237  22.195  0.00  0.00    +0.000 OA
ENDBRANCH  21  24
ENDBRANCH  17  18
ENDBRANCH   4  17
TORSDOF 7
ENDMDL
MODEL 7
REMARK VINA RESULT:      -7.1      3.601      9.510
REMARK  Name = 
REMARK  9 active torsions:
REMARK  status: ('A' for Active; 'I' for Inactive)
REMARK    1  A    between atoms: C_1  and  C_2
REMARK    2  A    between atoms: C_2  and  O_3
REMARK    3  A    between atoms: O_3  and  C_4
REMARK    4  A    between atoms: C_4  and  C_6
REMARK    5  A    between atoms: C_10  and  C_11
REMARK    6  A    between atoms: C_14  and  C_15
REMARK    7  A    between atoms: C_15  and  N_16
REMARK    8  A    between atoms: N_19  and  S_20
REMARK    9  A    between atoms: S_20  and  C_21
REMARK                            x       y       z     vdW  Elec       q    Type
REMARK                         _______ _______ _______ _____ _____    ______ ____
ROOT
ATOM      1  C   UNL     1       0.914   9.386  19.507  0.00  0.00    +0.000 A 
ATOM      2  C   UNL     1       0.992  10.038  18.290  0.00  0.00    +0.000 A 
ATOM      3  C   UNL     1       1.965   9.337  17.527  0.00  0.00    +0.000 A 
ATOM      4  C   UNL     1       2.415   8.303  18.325  0.00  0.00    +0.000 A 
ATOM      5  O   UNL     1       1.760   8.317  19.514  0.00  0.00    +0.000 OA
ENDROOT
BRANCH   1  10
ATOM      6  C   UNL     1      -1.154  11.138  22.083  0.00  0.00    +0.000 A 
ATOM      7  C   UNL     1      -0.758  10.480  23.252  0.00  0.00    +0.000 A 
ATOM      8  C   UNL     1       0.120   9.399  23.183  0.00  0.00    +0.000 A 
ATOM      9  C   UNL     1       0.635   8.999  21.947  0.00  0.00    +0.000 A 
ATOM     10  C   UNL     1       0.265   9.667  20.773  0.00  0.00    +0.000 A 
ATOM     11  C   UNL     1      -0.666  10.708  20.843  0.00  0.00    +0.000 A 
BRANCH   6  12
ATOM     12  C   UNL     1      -2.075  12.296  22.200  0.00  0.00    +0.000 C 
ATOM     13  O   UNL     1      -2.108  13.218  21.400  0.00  0.00    +0.000 OA
BRANCH  12  14
ATOM     14  O   UNL     1      -2.796  12.200  23.344  0.00  0.00    +0.000 OA
BRANCH  14  16
ATOM     15  C   UNL     1      -3.435  14.113  24.625  0.00  0.00    +0.000 C 
ATOM     16  C   UNL     1      -3.834  13.175  23.501  0.00  0.00    +0.000 C 
ENDBRANCH  14  16
ENDBRANCH  12  14
ENDBRANCH   6  12
ENDBRANCH   1  10
BRANCH   4  17
ATOM     17  C   UNL     1       3.432   7.222  18.144  0.00  0.00    +0.000 C 
BRANCH  17  18
ATOM     18  N   UNL     1       2.835   5.910  17.838  0.00  0.00    +0.000 NA
ATOM     19  C   UNL     1       3.824   4.900  17.409  0.00  0.00    +0.000 C 
ATOM     20  C   UNL     1       4.777   4.387  18.504  0.00  0.00    +0.000 C 
ATOM     21  N   UNL     1       4.076   3.961  19.749  0.00  0.00    +0.000 NA
ATOM     22  C   UNL     1       2.959   4.851  20.167  0.00  0.00    +0.000 C 
ATOM     23  C   UNL     1       2.099   5.364  18.995  0.00  0.00    +0.000 C 
BRANCH  21  24
ATOM     24  S   UNL     1       3.933   2.308  20.058  0.00  0.00    +0.000 S 
ATOM     25  C   UNL     1       2.752   2.295  21.395  0.00  0.00    +0.000 C 
ATOM     26  O   UNL     1       3.285   1.689  18.918  0.00  0.00    +0.000 OA
ATOM     27  O   UNL     1       5.203   1.832  20.549  0.00  0.00    +0.000 OA
ENDBRANCH  21  24
ENDBRANCH  17  18
ENDBRANCH   4  17
TORSDOF 7
ENDMDL
MODEL 8
REMARK VINA RESULT:      -7.1      2.251      3.700
REMARK  Name = 
REMARK  9 active torsions:
REMARK  status: ('A' for Active; 'I' for Inactive)
REMARK    1  A    between atoms: C_1  and  C_2
REMARK    2  A    between atoms: C_2  and  O_3
REMARK    3  A    between atoms: O_3  and  C_4
REMARK    4  A    between atoms: C_4  and  C_6
REMARK    5  A    between atoms: C_10  and  C_11
REMARK    6  A    between atoms: C_14  and  C_15
REMARK    7  A    between atoms: C_15  and  N_16
REMARK    8  A    between atoms: N_19  and  S_20
REMARK    9  A    between atoms: S_20  and  C_21
REMARK                            x       y       z     vdW  Elec       q    Type
REMARK                         _______ _______ _______ _____ _____    ______ ____
ROOT
ATOM      1  C   UNL     1       2.077   8.521  18.673  0.00  0.00    +0.000 A 
ATOM      2  C   UNL     1       1.870   9.615  17.855  0.00  0.00    +0.000 A 
ATOM      3  C   UNL     1       0.888  10.413  18.501  0.00  0.00    +0.000 A 
ATOM      4  C   UNL     1       0.562   9.757  19.673  0.00  0.00    +0.000 A 
ATOM      5  O   UNL     1       1.301   8.624  19.789  0.00  0.00    +0.000 OA
ENDROOT
BRANCH   1  10
ATOM      6  C   UNL     1       4.351   5.910  17.260  0.00  0.00    +0.000 A 
ATOM      7  C   UNL     1       3.979   4.785  18.005  0.00  0.00    +0.000 A 
ATOM      8  C   UNL     1       3.047   4.905  19.034  0.00  0.00    +0.000 A 
ATOM      9  C   UNL     1       2.454   6.143  19.295  0.00  0.00    +0.000 A 
ATOM     10  C   UNL     1       2.799   7.270  18.540  0.00  0.00    +0.000 A 
ATOM     11  C   UNL     1       3.783   7.157  17.553  0.00  0.00    +0.000 A 
BRANCH   6  12
ATOM     12  C   UNL     1       5.333   5.739  16.161  0.00  0.00    +0.000 C 
ATOM     13  O   UNL     1       6.221   6.539  15.916  0.00  0.00    +0.000 OA
BRANCH  12  14
ATOM     14  O   UNL     1       5.042   4.621  15.451  0.00  0.00    +0.000 OA
BRANCH  14  16
ATOM     15  C   UNL     1       6.179   3.840  13.500  0.00  0.00    +0.000 C 
ATOM     16  C   UNL     1       6.173   3.855  15.018  0.00  0.00    +0.000 C 
ENDBRANCH  14  16
ENDBRANCH  12  14
ENDBRANCH   6  12
ENDBRANCH   1  10
BRANCH   4  17
ATOM     17  C   UNL     1      -0.398  10.037  20.784  0.00  0.00    +0.000 C 
BRANCH  17  18
ATOM     18  N   UNL     1       0.152  10.940  21.810  0.00  0.00    +0.000 NA
ATOM     19  C   UNL     1       0.283  12.339  21.354  0.00  0.00    +0.000 C 
ATOM     20  C   UNL     1      -1.037  13.108  21.158  0.00  0.00    +0.000 C 
ATOM     21  N   UNL     1      -1.961  13.005  22.323  0.00  0.00    +0.000 NA
ATOM     22  C   UNL     1      -2.035  11.652  22.940  0.00  0.00    +0.000 C 
ATOM     23  C   UNL     1      -0.673  10.937  23.035  0.00  0.00    +0.000 C 
BRANCH  21  24
ATOM     24  S   UNL     1      -2.124  14.348  23.333  0.00  0.00    +0.000 S 
ATOM     25  C   UNL     1      -3.481  13.847  24.378  0.00  0.00    +0.000 C 
ATOM     26  O   UNL     1      -0.948  14.425  24.178  0.00  0.00    +0.000 OA
ATOM     27  O   UNL     1      -2.543  15.468  22.526  0.00  0.00    +0.000 OA
ENDBRANCH  21  24
ENDBRANCH  17  18
ENDBRANCH   4  17
TORSDOF 7
ENDMDL
MODEL 9
REMARK VINA RESULT:      -7.1      1.210      1.256
REMARK  Name = 
REMARK  9 active torsions:
REMARK  status: ('A' for Active; 'I' for Inactive)
REMARK    1  A    between atoms: C_1  and  C_2
REMARK    2  A    between atoms: C_2  and  O_3
REMARK    3  A    between atoms: O_3  and  C_4
REMARK    4  A    between atoms: C_4  and  C_6
REMARK    5  A    between atoms: C_10  and  C_11
REMARK    6  A    between atoms: C_14  and  C_15
REMARK    7  A    between atoms: C_15  and  N_16
REMARK    8  A    between atoms: N_19  and  S_20
REMARK    9  A    between atoms: S_20  and  C_21
REMARK                            x       y       z     vdW  Elec       q    Type
REMARK                         _______ _______ _______ _____ _____    ______ ____
ROOT
ATOM      1  C   UNL     1       2.761   5.801  19.217  0.00  0.00    +0.000 A 
ATOM      2  C   UNL     1       2.066   5.422  20.351  0.00  0.00    +0.000 A 
ATOM      3  C   UNL     1       1.467   6.605  20.862  0.00  0.00    +0.000 A 
ATOM      4  C   UNL     1       1.830   7.627  20.006  0.00  0.00    +0.000 A 
ATOM      5  O   UNL     1       2.593   7.136  18.996  0.00  0.00    +0.000 OA
ENDROOT
BRANCH   1  10
ATOM      6  C   UNL     1       5.626   5.336  16.860  0.00  0.00    +0.000 A 
ATOM      7  C   UNL     1       5.371   4.053  16.362  0.00  0.00    +0.000 A 
ATOM      8  C   UNL     1       4.310   3.305  16.869  0.00  0.00    +0.000 A 
ATOM      9  C   UNL     1       3.477   3.853  17.847  0.00  0.00    +0.000 A 
ATOM     10  C   UNL     1       3.706   5.145  18.335  0.00  0.00    +0.000 A 
ATOM     11  C   UNL     1       4.812   5.865  17.869  0.00  0.00    +0.000 A 
BRANCH   6  12
ATOM     12  C   UNL     1       6.753   6.108  16.282  0.00  0.00    +0.000 C 
ATOM     13  O   UNL     1       7.511   5.666  15.432  0.00  0.00    +0.000 OA
BRANCH  12  14
ATOM     14  O   UNL     1       6.845   7.318  16.887  0.00  0.00    +0.000 OA
BRANCH  14  16
ATOM     15  C   UNL     1       8.294   8.818  18.052  0.00  0.00    +0.000 C 
ATOM     16  C   UNL     1       7.776   7.393  17.974  0.00  0.00    +0.000 C 
ENDBRANCH  14  16
ENDBRANCH  12  14
ENDBRANCH   6  12
ENDBRANCH   1  10
BRANCH   4  17
ATOM     17  C   UNL     1       1.561   9.097  19.976  0.00  0.00    +0.000 C 
BRANCH  17  18
ATOM     18  N   UNL     1       0.129   9.426  20.092  0.00  0.00    +0.000 NA
ATOM     19  C   UNL     1      -0.417   9.205  21.447  0.00  0.00    +0.000 C 
ATOM     20  C   UNL     1       0.060  10.189  22.532  0.00  0.00    +0.000 C 
ATOM     21  N   UNL     1      -0.059  11.619  22.129  0.00  0.00    +0.000 NA
ATOM     22  C   UNL     1       0.331  11.902  20.721  0.00  0.00    +0.000 C 
ATOM     23  C   UNL     1      -0.138  10.829  19.718  0.00  0.00    +0.000 C 
BRANCH  21  24
ATOM     24  S   UNL     1      -1.300  12.538  22.809  0.00  0.00    +0.000 S 
ATOM     25  C   UNL     1      -2.033  13.278  21.360  0.00  0.00    +0.000 C 
ATOM     26  O   UNL     1      -2.286  11.630  23.362  0.00  0.00    +0.000 OA
ATOM     27  O   UNL     1      -0.702  13.576  23.614  0.00  0.00    +0.000 OA
ENDBRANCH  21  24
ENDBRANCH  17  18
ENDBRANCH   4  17
TORSDOF 7
ENDMDL
