MODEL 1
REMARK VINA RESULT:      -9.1      0.000      0.000
REMARK  Name = 
REMARK  3 active torsions:
REMARK  status: ('A' for Active; 'I' for Inactive)
REMARK    1  A    between atoms: C_5  and  C_6
REMARK    2  A    between atoms: C_8  and  N_9
REMARK    3  A    between atoms: N_9  and  C_10
REMARK                            x       y       z     vdW  Elec       q    Type
REMARK                         _______ _______ _______ _____ _____    ______ ____
ROOT
ATOM      1  C   UNL     1       4.409   4.836  17.493  0.00  0.00    +0.000 A 
ATOM      2  C   UNL     1       4.055   5.948  18.279  0.00  0.00    +0.000 A 
ATOM      3  C   UNL     1       3.079   5.896  19.294  0.00  0.00    +0.000 A 
ATOM      4  C   UNL     1       2.506   4.628  19.618  0.00  0.00    +0.000 A 
ATOM      5  C   UNL     1       1.593   4.407  20.674  0.00  0.00    +0.000 A 
ATOM      6  C   UNL     1       1.059   3.143  20.882  0.00  0.00    +0.000 A 
ATOM      7  N   UNL     1       1.364   2.070  20.135  0.00  0.00    +0.000 NA
ATOM      8  C   UNL     1       2.257   2.274  19.141  0.00  0.00    +0.000 A 
ATOM      9  C   UNL     1       2.855   3.503  18.842  0.00  0.00    +0.000 A 
ATOM     10  C   UNL     1       3.787   3.618  17.796  0.00  0.00    +0.000 A 
ENDROOT
BRANCH   1  15
ATOM     11  N   UNL     1       8.213   5.319  13.337  0.00  0.00    +0.000 N 
ATOM     12  C   UNL     1       7.246   5.193  14.330  0.00  0.00    +0.000 A 
ATOM     13  C   UNL     1       6.125   4.406  14.129  0.00  0.00    +0.000 A 
ATOM     14  C   UNL     1       5.187   4.291  15.156  0.00  0.00    +0.000 A 
ATOM     15  C   UNL     1       5.383   4.940  16.383  0.00  0.00    +0.000 A 
ATOM     16  C   UNL     1       6.555   5.690  16.474  0.00  0.00    +0.000 A 
ATOM     17  N   UNL     1       7.479   5.832  15.485  0.00  0.00    +0.000 NA
ATOM     18  H   UNL     1       7.810   5.620  12.458  0.00  0.00    +0.000 HD
ATOM     19  H   UNL     1       8.904   5.980  13.684  0.00  0.00    +0.000 HD
ENDBRANCH   1  15
BRANCH   3  20
ATOM     20  N   UNL     1       2.734   7.035  20.043  0.00  0.00    +0.000 N 
ATOM     21  H   UNL     1       2.797   6.866  21.040  0.00  0.00    +0.000 HD
BRANCH  20  22
ATOM     22  C   UNL     1       1.557   7.880  19.728  0.00  0.00    +0.000 C 
ATOM     23  C   UNL     1       1.047   8.569  21.007  0.00  0.00    +0.000 C 
ATOM     24  C   UNL     1      -0.094   9.563  20.801  0.00  0.00    +0.000 C 
ATOM     25  C   UNL     1       0.368  10.844  20.116  0.00  0.00    +0.000 C 
ATOM     26  C   UNL     1       0.377  10.776  18.590  0.00  0.00    +0.000 C 
ATOM     27  N   UNL     1       0.865   9.552  17.965  0.00  0.00    +0.000 NA
ATOM     28  C   UNL     1       1.989   8.903  18.633  0.00  0.00    +0.000 C 
ATOM     29  H   UNL     1       1.121   9.762  16.999  0.00  0.00    +0.000 HD
ENDBRANCH  20  22
ENDBRANCH   3  20
TORSDOF 3
ENDMDL
MODEL 2
REMARK VINA RESULT:      -9.0      0.882      1.358
REMARK  Name = 
REMARK  3 active torsions:
REMARK  status: ('A' for Active; 'I' for Inactive)
REMARK    1  A    between atoms: C_5  and  C_6
REMARK    2  A    between atoms: C_8  and  N_9
REMARK    3  A    between atoms: N_9  and  C_10
REMARK                            x       y       z     vdW  Elec       q    Type
REMARK                         _______ _______ _______ _____ _____    ______ ____
ROOT
ATOM      1  C   UNL     1       4.215   4.778  17.276  0.00  0.00    +0.000 A 
ATOM      2  C   UNL     1       3.972   5.754  18.259  0.00  0.00    +0.000 A 
ATOM      3  C   UNL     1       2.917   5.666  19.191  0.00  0.00    +0.000 A 
ATOM      4  C   UNL     1       2.130   4.474  19.211  0.00  0.00    +0.000 A 
ATOM      5  C   UNL     1       1.108   4.203  20.149  0.00  0.00    +0.000 A 
ATOM      6  C   UNL     1       0.369   3.032  20.059  0.00  0.00    +0.000 A 
ATOM      7  N   UNL     1       0.568   2.094  19.118  0.00  0.00    +0.000 NA
ATOM      8  C   UNL     1       1.561   2.339  18.237  0.00  0.00    +0.000 A 
ATOM      9  C   UNL     1       2.365   3.483  18.234  0.00  0.00    +0.000 A 
ATOM     10  C   UNL     1       3.388   3.646  17.284  0.00  0.00    +0.000 A 
ENDROOT
BRANCH   1  15
ATOM     11  N   UNL     1       8.370   5.465  13.503  0.00  0.00    +0.000 N 
ATOM     12  C   UNL     1       7.319   5.289  14.399  0.00  0.00    +0.000 A 
ATOM     13  C   UNL     1       6.236   4.494  14.070  0.00  0.00    +0.000 A 
ATOM     14  C   UNL     1       5.211   4.329  15.002  0.00  0.00    +0.000 A 
ATOM     15  C   UNL     1       5.283   4.936  16.263  0.00  0.00    +0.000 A 
ATOM     16  C   UNL     1       6.429   5.699  16.487  0.00  0.00    +0.000 A 
ATOM     17  N   UNL     1       7.435   5.890  15.591  0.00  0.00    +0.000 NA
ATOM     18  H   UNL     1       8.043   5.791  12.602  0.00  0.00    +0.000 HD
ATOM     19  H   UNL     1       9.015   6.123  13.934  0.00  0.00    +0.000 HD
ENDBRANCH   1  15
BRANCH   3  20
ATOM     20  N   UNL     1       2.690   6.674  20.145  0.00  0.00    +0.000 N 
ATOM     21  H   UNL     1       2.128   6.342  20.919  0.00  0.00    +0.000 HD
BRANCH  20  22
ATOM     22  C   UNL     1       2.312   8.060  19.778  0.00  0.00    +0.000 C 
ATOM     23  C   UNL     1       1.990   8.135  18.274  0.00  0.00    +0.000 C 
ATOM     24  C   UNL     1       1.473   9.487  17.786  0.00  0.00    +0.000 C 
ATOM     25  C   UNL     1       0.050   9.769  18.257  0.00  0.00    +0.000 C 
ATOM     26  C   UNL     1      -0.041  10.409  19.641  0.00  0.00    +0.000 C 
ATOM     27  N   UNL     1       0.849   9.909  20.683  0.00  0.00    +0.000 NA
ATOM     28  C   UNL     1       1.100   8.471  20.667  0.00  0.00    +0.000 C 
ATOM     29  H   UNL     1       0.464  10.175  21.591  0.00  0.00    +0.000 HD
ENDBRANCH  20  22
ENDBRANCH   3  20
TORSDOF 3
ENDMDL
MODEL 3
REMARK VINA RESULT:      -8.5      2.151      6.776
REMARK  Name = 
REMARK  3 active torsions:
REMARK  status: ('A' for Active; 'I' for Inactive)
REMARK    1  A    between atoms: C_5  and  C_6
REMARK    2  A    between atoms: C_8  and  N_9
REMARK    3  A    between atoms: N_9  and  C_10
REMARK                            x       y       z     vdW  Elec       q    Type
REMARK                         _______ _______ _______ _____ _____    ______ ____
ROOT
ATOM      1  C   UNL     1       1.841   7.142  19.843  0.00  0.00    +0.000 A 
ATOM      2  C   UNL     1       2.608   6.887  18.691  0.00  0.00    +0.000 A 
ATOM      3  C   UNL     1       3.045   5.598  18.324  0.00  0.00    +0.000 A 
ATOM      4  C   UNL     1       2.591   4.485  19.095  0.00  0.00    +0.000 A 
ATOM      5  C   UNL     1       2.865   3.132  18.789  0.00  0.00    +0.000 A 
ATOM      6  C   UNL     1       2.413   2.121  19.626  0.00  0.00    +0.000 A 
ATOM      7  N   UNL     1       1.697   2.339  20.741  0.00  0.00    +0.000 NA
ATOM      8  C   UNL     1       1.412   3.629  21.021  0.00  0.00    +0.000 A 
ATOM      9  C   UNL     1       1.817   4.724  20.250  0.00  0.00    +0.000 A 
ATOM     10  C   UNL     1       1.460   6.034  20.612  0.00  0.00    +0.000 A 
ENDROOT
BRANCH   1  15
ATOM     11  N   UNL     1       0.410  12.351  21.513  0.00  0.00    +0.000 N 
ATOM     12  C   UNL     1       0.740  11.075  21.065  0.00  0.00    +0.000 A 
ATOM     13  C   UNL     1       0.799  10.795  19.712  0.00  0.00    +0.000 A 
ATOM     14  C   UNL     1       1.150   9.507  19.303  0.00  0.00    +0.000 A 
ATOM     15  C   UNL     1       1.462   8.516  20.243  0.00  0.00    +0.000 A 
ATOM     16  C   UNL     1       1.383   8.920  21.576  0.00  0.00    +0.000 A 
ATOM     17  N   UNL     1       1.029  10.162  22.003  0.00  0.00    +0.000 NA
ATOM     18  H   UNL     1      -0.466  12.672  21.119  0.00  0.00    +0.000 HD
ATOM     19  H   UNL     1       0.375  12.305  22.529  0.00  0.00    +0.000 HD
ENDBRANCH   1  15
BRANCH   3  20
ATOM     20  N   UNL     1       3.832   5.385  17.178  0.00  0.00    +0.000 N 
ATOM     21  H   UNL     1       3.496   4.603  16.629  0.00  0.00    +0.000 HD
BRANCH  20  22
ATOM     22  C   UNL     1       5.314   5.413  17.202  0.00  0.00    +0.000 C 
ATOM     23  C   UNL     1       5.815   6.857  17.017  0.00  0.00    +0.000 C 
ATOM     24  C   UNL     1       7.327   7.042  17.138  0.00  0.00    +0.000 C 
ATOM     25  C   UNL     1       7.815   6.897  18.575  0.00  0.00    +0.000 C 
ATOM     26  C   UNL     1       8.114   5.460  18.999  0.00  0.00    +0.000 C 
ATOM     27  N   UNL     1       7.188   4.417  18.572  0.00  0.00    +0.000 NA
ATOM     28  C   UNL     1       5.777   4.791  18.554  0.00  0.00    +0.000 C 
ATOM     29  H   UNL     1       7.316   3.605  19.178  0.00  0.00    +0.000 HD
ENDBRANCH  20  22
ENDBRANCH   3  20
TORSDOF 3
ENDMDL
MODEL 4
REMARK VINA RESULT:      -8.5      1.138      1.540
REMARK  Name = 
REMARK  3 active torsions:
REMARK  status: ('A' for Active; 'I' for Inactive)
REMARK    1  A    between atoms: C_5  and  C_6
REMARK    2  A    between atoms: C_8  and  N_9
REMARK    3  A    between atoms: N_9  and  C_10
REMARK                            x       y       z     vdW  Elec       q    Type
REMARK                         _______ _______ _______ _____ _____    ______ ____
ROOT
ATOM      1  C   UNL     1       4.544   4.830  17.716  0.00  0.00    +0.000 A 
ATOM      2  C   UNL     1       3.548   5.792  17.967  0.00  0.00    +0.000 A 
ATOM      3  C   UNL     1       2.605   5.674  19.008  0.00  0.00    +0.000 A 
ATOM      4  C   UNL     1       2.740   4.585  19.923  0.00  0.00    +0.000 A 
ATOM      5  C   UNL     1       1.932   4.394  21.067  0.00  0.00    +0.000 A 
ATOM      6  C   UNL     1       2.115   3.279  21.873  0.00  0.00    +0.000 A 
ATOM      7  N   UNL     1       3.044   2.337  21.644  0.00  0.00    +0.000 NA
ATOM      8  C   UNL     1       3.833   2.530  20.566  0.00  0.00    +0.000 A 
ATOM      9  C   UNL     1       3.737   3.615  19.688  0.00  0.00    +0.000 A 
ATOM     10  C   UNL     1       4.614   3.742  18.597  0.00  0.00    +0.000 A 
ENDROOT
BRANCH   1  15
ATOM     11  N   UNL     1       8.173   5.355  13.412  0.00  0.00    +0.000 N 
ATOM     12  C   UNL     1       7.248   5.217  14.443  0.00  0.00    +0.000 A 
ATOM     13  C   UNL     1       6.143   4.398  14.295  0.00  0.00    +0.000 A 
ATOM     14  C   UNL     1       5.248   4.273  15.359  0.00  0.00    +0.000 A 
ATOM     15  C   UNL     1       5.472   4.944  16.569  0.00  0.00    +0.000 A 
ATOM     16  C   UNL     1       6.626   5.727  16.605  0.00  0.00    +0.000 A 
ATOM     17  N   UNL     1       7.507   5.879  15.579  0.00  0.00    +0.000 NA
ATOM     18  H   UNL     1       7.729   5.632  12.545  0.00  0.00    +0.000 HD
ATOM     19  H   UNL     1       8.859   6.039  13.723  0.00  0.00    +0.000 HD
ENDBRANCH   1  15
BRANCH   3  20
ATOM     20  N   UNL     1       1.608   6.644  19.213  0.00  0.00    +0.000 N 
ATOM     21  H   UNL     1       0.830   6.528  18.575  0.00  0.00    +0.000 HD
BRANCH  20  22
ATOM     22  C   UNL     1       1.912   8.081  19.413  0.00  0.00    +0.000 C 
ATOM     23  C   UNL     1       1.722   8.847  18.091  0.00  0.00    +0.000 C 
ATOM     24  C   UNL     1       1.891  10.363  18.185  0.00  0.00    +0.000 C 
ATOM     25  C   UNL     1       0.730  11.032  18.913  0.00  0.00    +0.000 C 
ATOM     26  C   UNL     1       0.879  11.076  20.433  0.00  0.00    +0.000 C 
ATOM     27  N   UNL     1       1.404   9.891  21.102  0.00  0.00    +0.000 NA
ATOM     28  C   UNL     1       0.979   8.609  20.545  0.00  0.00    +0.000 C 
ATOM     29  H   UNL     1       1.142   9.934  22.088  0.00  0.00    +0.000 HD
ENDBRANCH  20  22
ENDBRANCH   3  20
TORSDOF 3
ENDMDL
MODEL 5
REMARK VINA RESULT:      -8.5      1.539      6.854
REMARK  Name = 
REMARK  3 active torsions:
REMARK  status: ('A' for Active; 'I' for Inactive)
REMARK    1  A    between atoms: C_5  and  C_6
REMARK    2  A    between atoms: C_8  and  N_9
REMARK    3  A    between atoms: N_9  and  C_10
REMARK                            x       y       z     vdW  Elec       q    Type
REMARK                         _______ _______ _______ _____ _____    ______ ____
ROOT
ATOM      1  C   UNL     1       3.111   7.108  17.955  0.00  0.00    +0.000 A 
ATOM      2  C   UNL     1       2.686   5.766  17.943  0.00  0.00    +0.000 A 
ATOM      3  C   UNL     1       3.428   4.727  17.346  0.00  0.00    +0.000 A 
ATOM      4  C   UNL     1       4.727   5.030  16.833  0.00  0.00    +0.000 A 
ATOM      5  C   UNL     1       5.622   4.076  16.298  0.00  0.00    +0.000 A 
ATOM      6  C   UNL     1       6.847   4.477  15.785  0.00  0.00    +0.000 A 
ATOM      7  N   UNL     1       7.267   5.752  15.767  0.00  0.00    +0.000 NA
ATOM      8  C   UNL     1       6.424   6.663  16.300  0.00  0.00    +0.000 A 
ATOM      9  C   UNL     1       5.169   6.370  16.844  0.00  0.00    +0.000 A 
ATOM     10  C   UNL     1       4.364   7.384  17.392  0.00  0.00    +0.000 A 
ENDROOT
BRANCH   1  15
ATOM     11  N   UNL     1      -0.089  11.165  20.249  0.00  0.00    +0.000 N 
ATOM     12  C   UNL     1       0.684  10.177  19.645  0.00  0.00    +0.000 A 
ATOM     13  C   UNL     1       1.108  10.315  18.335  0.00  0.00    +0.000 A 
ATOM     14  C   UNL     1       1.895   9.310  17.772  0.00  0.00    +0.000 A 
ATOM     15  C   UNL     1       2.274   8.189  18.522  0.00  0.00    +0.000 A 
ATOM     16  C   UNL     1       1.801   8.169  19.834  0.00  0.00    +0.000 A 
ATOM     17  N   UNL     1       1.020   9.126  20.404  0.00  0.00    +0.000 NA
ATOM     18  H   UNL     1      -0.916  11.379  19.705  0.00  0.00    +0.000 HD
ATOM     19  H   UNL     1      -0.324  10.826  21.179  0.00  0.00    +0.000 HD
ENDBRANCH   1  15
BRANCH   3  20
ATOM     20  N   UNL     1       2.960   3.401  17.331  0.00  0.00    +0.000 N 
ATOM     21  H   UNL     1       2.260   3.255  16.613  0.00  0.00    +0.000 HD
BRANCH  20  22
ATOM     22  C   UNL     1       2.609   2.657  18.564  0.00  0.00    +0.000 C 
ATOM     23  C   UNL     1       3.786   2.701  19.556  0.00  0.00    +0.000 C 
ATOM     24  C   UNL     1       3.512   2.069  20.920  0.00  0.00    +0.000 C 
ATOM     25  C   UNL     1       2.568   2.911  21.771  0.00  0.00    +0.000 C 
ATOM     26  C   UNL     1       1.085   2.642  21.523  0.00  0.00    +0.000 C 
ATOM     27  N   UNL     1       0.647   2.458  20.144  0.00  0.00    +0.000 NA
ATOM     28  C   UNL     1       1.313   3.296  19.150  0.00  0.00    +0.000 C 
ATOM     29  H   UNL     1      -0.360   2.619  20.101  0.00  0.00    +0.000 HD
ENDBRANCH  20  22
ENDBRANCH   3  20
TORSDOF 3
ENDMDL
MODEL 6
REMARK VINA RESULT:      -8.3      1.546      6.388
REMARK  Name = 
REMARK  3 active torsions:
REMARK  status: ('A' for Active; 'I' for Inactive)
REMARK    1  A    between atoms: C_5  and  C_6
REMARK    2  A    between atoms: C_8  and  N_9
REMARK    3  A    between atoms: N_9  and  C_10
REMARK                            x       y       z     vdW  Elec       q    Type
REMARK                         _______ _______ _______ _____ _____    ______ ____
ROOT
ATOM      1  C   UNL     1       2.509   6.607  19.633  0.00  0.00    +0.000 A 
ATOM      2  C   UNL     1       3.783   6.163  19.233  0.00  0.00    +0.000 A 
ATOM      3  C   UNL     1       4.316   4.912  19.604  0.00  0.00    +0.000 A 
ATOM      4  C   UNL     1       3.478   4.005  20.323  0.00  0.00    +0.000 A 
ATOM      5  C   UNL     1       3.840   2.685  20.675  0.00  0.00    +0.000 A 
ATOM      6  C   UNL     1       2.970   1.895  21.412  0.00  0.00    +0.000 A 
ATOM      7  N   UNL     1       1.759   2.302  21.824  0.00  0.00    +0.000 NA
ATOM      8  C   UNL     1       1.400   3.554  21.466  0.00  0.00    +0.000 A 
ATOM      9  C   UNL     1       2.196   4.434  20.727  0.00  0.00    +0.000 A 
ATOM     10  C   UNL     1       1.733   5.717  20.388  0.00  0.00    +0.000 A 
ENDROOT
BRANCH   1  15
ATOM     11  N   UNL     1       0.537  11.775  18.464  0.00  0.00    +0.000 N 
ATOM     12  C   UNL     1       1.021  10.494  18.709  0.00  0.00    +0.000 A 
ATOM     13  C   UNL     1       1.748   9.817  17.746  0.00  0.00    +0.000 A 
ATOM     14  C   UNL     1       2.231   8.540  18.037  0.00  0.00    +0.000 A 
ATOM     15  C   UNL     1       2.008   7.957  19.292  0.00  0.00    +0.000 A 
ATOM     16  C   UNL     1       1.277   8.740  20.185  0.00  0.00    +0.000 A 
ATOM     17  N   UNL     1       0.781   9.980  19.923  0.00  0.00    +0.000 NA
ATOM     18  H   UNL     1      -0.015  11.811  17.615  0.00  0.00    +0.000 HD
ATOM     19  H   UNL     1      -0.006  12.045  19.281  0.00  0.00    +0.000 HD
ENDBRANCH   1  15
BRANCH   3  20
ATOM     20  N   UNL     1       5.604   4.512  19.205  0.00  0.00    +0.000 N 
ATOM     21  H   UNL     1       6.323   5.112  19.591  0.00  0.00    +0.000 HD
BRANCH  20  22
ATOM     22  C   UNL     1       5.933   4.129  17.811  0.00  0.00    +0.000 C 
ATOM     23  C   UNL     1       4.682   4.258  16.923  0.00  0.00    +0.000 C 
ATOM     24  C   UNL     1       4.912   4.004  15.434  0.00  0.00    +0.000 C 
ATOM     25  C   UNL     1       5.687   5.133  14.765  0.00  0.00    +0.000 C 
ATOM     26  C   UNL     1       7.206   5.001  14.863  0.00  0.00    +0.000 C 
ATOM     27  N   UNL     1       7.771   4.554  16.131  0.00  0.00    +0.000 NA
ATOM     28  C   UNL     1       7.101   5.044  17.332  0.00  0.00    +0.000 C 
ATOM     29  H   UNL     1       8.755   4.825  16.159  0.00  0.00    +0.000 HD
ENDBRANCH  20  22
ENDBRANCH   3  20
TORSDOF 3
ENDMDL
MODEL 7
REMARK VINA RESULT:      -8.3      1.609      6.780
REMARK  Name = 
REMARK  3 active torsions:
REMARK  status: ('A' for Active; 'I' for Inactive)
REMARK    1  A    between atoms: C_5  and  C_6
REMARK    2  A    between atoms: C_8  and  N_9
REMARK    3  A    between atoms: N_9  and  C_10
REMARK                            x       y       z     vdW  Elec       q    Type
REMARK                         _______ _______ _______ _____ _____    ______ ____
ROOT
ATOM      1  C   UNL     1       3.555   6.912  18.016  0.00  0.00    +0.000 A 
ATOM      2  C   UNL     1       3.854   5.741  18.737  0.00  0.00    +0.000 A 
ATOM      3  C   UNL     1       4.727   4.743  18.259  0.00  0.00    +0.000 A 
ATOM      4  C   UNL     1       5.431   4.985  17.039  0.00  0.00    +0.000 A 
ATOM      5  C   UNL     1       6.408   4.124  16.491  0.00  0.00    +0.000 A 
ATOM      6  C   UNL     1       7.006   4.429  15.276  0.00  0.00    +0.000 A 
ATOM      7  N   UNL     1       6.723   5.529  14.560  0.00  0.00    +0.000 NA
ATOM      8  C   UNL     1       5.808   6.367  15.095  0.00  0.00    +0.000 A 
ATOM      9  C   UNL     1       5.145   6.158  16.308  0.00  0.00    +0.000 A 
ATOM     10  C   UNL     1       4.217   7.094  16.795  0.00  0.00    +0.000 A 
ENDROOT
BRANCH   1  15
ATOM     11  N   UNL     1      -0.190  10.637  20.033  0.00  0.00    +0.000 N 
ATOM     12  C   UNL     1       0.717   9.728  19.496  0.00  0.00    +0.000 A 
ATOM     13  C   UNL     1       1.189   9.880  18.204  0.00  0.00    +0.000 A 
ATOM     14  C   UNL     1       2.112   8.957  17.709  0.00  0.00    +0.000 A 
ATOM     15  C   UNL     1       2.575   7.905  18.510  0.00  0.00    +0.000 A 
ATOM     16  C   UNL     1       2.040   7.863  19.798  0.00  0.00    +0.000 A 
ATOM     17  N   UNL     1       1.129   8.740  20.301  0.00  0.00    +0.000 NA
ATOM     18  H   UNL     1      -1.007  10.743  19.443  0.00  0.00    +0.000 HD
ATOM     19  H   UNL     1      -0.433  10.296  20.960  0.00  0.00    +0.000 HD
ENDBRANCH   1  15
BRANCH   3  20
ATOM     20  N   UNL     1       4.984   3.573  18.996  0.00  0.00    +0.000 N 
ATOM     21  H   UNL     1       5.719   3.016  18.578  0.00  0.00    +0.000 HD
BRANCH  20  22
ATOM     22  C   UNL     1       3.907   2.705  19.530  0.00  0.00    +0.000 C 
ATOM     23  C   UNL     1       3.345   3.306  20.831  0.00  0.00    +0.000 C 
ATOM     24  C   UNL     1       2.146   2.568  21.424  0.00  0.00    +0.000 C 
ATOM     25  C   UNL     1       0.876   2.771  20.605  0.00  0.00    +0.000 C 
ATOM     26  C   UNL     1       0.708   1.790  19.446  0.00  0.00    +0.000 C 
ATOM     27  N   UNL     1       1.888   1.464  18.653  0.00  0.00    +0.000 NA
ATOM     28  C   UNL     1       2.820   2.564  18.421  0.00  0.00    +0.000 C 
ATOM     29  H   UNL     1       1.580   1.087  17.756  0.00  0.00    +0.000 HD
ENDBRANCH  20  22
ENDBRANCH   3  20
TORSDOF 3
ENDMDL
MODEL 8
REMARK VINA RESULT:      -8.3      2.718      5.758
REMARK  Name = 
REMARK  3 active torsions:
REMARK  status: ('A' for Active; 'I' for Inactive)
REMARK    1  A    between atoms: C_5  and  C_6
REMARK    2  A    between atoms: C_8  and  N_9
REMARK    3  A    between atoms: N_9  and  C_10
REMARK                            x       y       z     vdW  Elec       q    Type
REMARK                         _______ _______ _______ _____ _____    ______ ____
ROOT
ATOM      1  C   UNL     1       1.809   8.140  19.624  0.00  0.00    +0.000 A 
ATOM      2  C   UNL     1       1.377   9.208  18.815  0.00  0.00    +0.000 A 
ATOM      3  C   UNL     1       0.563  10.256  19.291  0.00  0.00    +0.000 A 
ATOM      4  C   UNL     1       0.259  10.298  20.686  0.00  0.00    +0.000 A 
ATOM      5  C   UNL     1      -0.459  11.337  21.320  0.00  0.00    +0.000 A 
ATOM      6  C   UNL     1      -0.740  11.265  22.677  0.00  0.00    +0.000 A 
ATOM      7  N   UNL     1      -0.357  10.248  23.466  0.00  0.00    +0.000 NA
ATOM      8  C   UNL     1       0.351   9.267  22.868  0.00  0.00    +0.000 A 
ATOM      9  C   UNL     1       0.690   9.237  21.511  0.00  0.00    +0.000 A 
ATOM     10  C   UNL     1       1.445   8.179  20.977  0.00  0.00    +0.000 A 
ENDROOT
BRANCH   1  15
ATOM     11  N   UNL     1       4.782   3.754  17.651  0.00  0.00    +0.000 N 
ATOM     12  C   UNL     1       4.077   4.861  18.116  0.00  0.00    +0.000 A 
ATOM     13  C   UNL     1       4.065   6.044  17.397  0.00  0.00    +0.000 A 
ATOM     14  C   UNL     1       3.332   7.125  17.889  0.00  0.00    +0.000 A 
ATOM     15  C   UNL     1       2.599   7.014  19.078  0.00  0.00    +0.000 A 
ATOM     16  C   UNL     1       2.674   5.770  19.705  0.00  0.00    +0.000 A 
ATOM     17  N   UNL     1       3.393   4.705  19.257  0.00  0.00    +0.000 NA
ATOM     18  H   UNL     1       5.751   3.981  17.460  0.00  0.00    +0.000 HD
ATOM     19  H   UNL     1       4.694   3.031  18.361  0.00  0.00    +0.000 HD
ENDBRANCH   1  15
BRANCH   3  20
ATOM     20  N   UNL     1       0.130  11.294  18.446  0.00  0.00    +0.000 N 
ATOM     21  H   UNL     1       0.281  12.206  18.860  0.00  0.00    +0.000 HD
BRANCH  20  22
ATOM     22  C   UNL     1      -1.161  11.255  17.719  0.00  0.00    +0.000 C 
ATOM     23  C   UNL     1      -1.475   9.811  17.285  0.00  0.00    +0.000 C 
ATOM     24  C   UNL     1      -2.839   9.612  16.625  0.00  0.00    +0.000 C 
ATOM     25  C   UNL     1      -3.988   9.722  17.621  0.00  0.00    +0.000 C 
ATOM     26  C   UNL     1      -4.484  11.148  17.857  0.00  0.00    +0.000 C 
ATOM     27  N   UNL     1      -3.488  12.207  17.970  0.00  0.00    +0.000 NA
ATOM     28  C   UNL     1      -2.254  11.844  18.662  0.00  0.00    +0.000 C 
ATOM     29  H   UNL     1      -3.917  13.005  18.441  0.00  0.00    +0.000 HD
ENDBRANCH  20  22
ENDBRANCH   3  20
TORSDOF 3
ENDMDL
MODEL 9
REMARK VINA RESULT:      -8.2      2.747      5.585
REMARK  Name = 
REMARK  3 active torsions:
REMARK  status: ('A' for Active; 'I' for Inactive)
REMARK    1  A    between atoms: C_5  and  C_6
REMARK    2  A    between atoms: C_8  and  N_9
REMARK    3  A    between atoms: N_9  and  C_10
REMARK                            x       y       z     vdW  Elec       q    Type
REMARK                         _______ _______ _______ _____ _____    ______ ____
ROOT
ATOM      1  C   UNL     1       1.826   8.230  19.239  0.00  0.00    +0.000 A 
ATOM      2  C   UNL     1       1.313   9.341  18.545  0.00  0.00    +0.000 A 
ATOM      3  C   UNL     1       0.514  10.330  19.154  0.00  0.00    +0.000 A 
ATOM      4  C   UNL     1       0.313  10.263  20.566  0.00  0.00    +0.000 A 
ATOM      5  C   UNL     1      -0.378  11.234  21.326  0.00  0.00    +0.000 A 
ATOM      6  C   UNL     1      -0.557  11.057  22.690  0.00  0.00    +0.000 A 
ATOM      7  N   UNL     1      -0.095   9.997  23.372  0.00  0.00    +0.000 NA
ATOM      8  C   UNL     1       0.589   9.081  22.653  0.00  0.00    +0.000 A 
ATOM      9  C   UNL     1       0.827   9.158  21.277  0.00  0.00    +0.000 A 
ATOM     10  C   UNL     1       1.563   8.162  20.614  0.00  0.00    +0.000 A 
ENDROOT
BRANCH   1  15
ATOM     11  N   UNL     1       4.855   4.277  16.562  0.00  0.00    +0.000 N 
ATOM     12  C   UNL     1       4.076   5.222  17.223  0.00  0.00    +0.000 A 
ATOM     13  C   UNL     1       3.079   4.828  18.098  0.00  0.00    +0.000 A 
ATOM     14  C   UNL     1       2.331   5.807  18.755  0.00  0.00    +0.000 A 
ATOM     15  C   UNL     1       2.597   7.168  18.555  0.00  0.00    +0.000 A 
ATOM     16  C   UNL     1       3.635   7.443  17.664  0.00  0.00    +0.000 A 
ATOM     17  N   UNL     1       4.369   6.510  16.999  0.00  0.00    +0.000 NA
ATOM     18  H   UNL     1       4.284   3.608  16.059  0.00  0.00    +0.000 HD
ATOM     19  H   UNL     1       5.474   4.791  15.940  0.00  0.00    +0.000 HD
ENDBRANCH   1  15
BRANCH   3  20
ATOM     20  N   UNL     1      -0.002  11.415  18.422  0.00  0.00    +0.000 N 
ATOM     21  H   UNL     1       0.125  12.294  18.907  0.00  0.00    +0.000 HD
BRANCH  20  22
ATOM     22  C   UNL     1      -1.321  11.375  17.746  0.00  0.00    +0.000 C 
ATOM     23  C   UNL     1      -1.600   9.954  17.223  0.00  0.00    +0.000 C 
ATOM     24  C   UNL     1      -2.982   9.747  16.605  0.00  0.00    +0.000 C 
ATOM     25  C   UNL     1      -4.091   9.741  17.652  0.00  0.00    +0.000 C 
ATOM     26  C   UNL     1      -4.629  11.125  18.010  0.00  0.00    +0.000 C 
ATOM     27  N   UNL     1      -3.669  12.212  18.159  0.00  0.00    +0.000 NA
ATOM     28  C   UNL     1      -2.393  11.852  18.772  0.00  0.00    +0.000 C 
ATOM     29  H   UNL     1      -4.106  12.957  18.703  0.00  0.00    +0.000 HD
ENDBRANCH  20  22
ENDBRANCH   3  20
TORSDOF 3
ENDMDL
