MODEL 1
REMARK VINA RESULT:      -6.6      0.000      0.000
REMARK  Name = 
REMARK  11 active torsions:
REMARK  status: ('A' for Active; 'I' for Inactive)
REMARK    1  A    between atoms: C_1  and  N_2
REMARK    2  A    between atoms: N_2  and  C_3
REMARK    3  A    between atoms: C_6  and  C_7
REMARK    4  A    between atoms: C_7  and  C_9
REMARK    5  A    between atoms: C_11  and  O_12
REMARK    6  A    between atoms: O_12  and  C_13
REMARK    7  A    between atoms: C_14  and  O_15
REMARK    8  A    between atoms: O_15  and  C_16
REMARK    9  A    between atoms: C_17  and  O_18
REMARK   10  A    between atoms: O_18  and  C_19
REMARK   11  A    between atoms: C_20  and  O_21
REMARK                            x       y       z     vdW  Elec       q    Type
REMARK                         _______ _______ _______ _____ _____    ______ ____
ROOT
ATOM      1  C   UNL     1       2.831   6.366  17.957  0.00  0.00    +0.000 A 
ATOM      2  C   UNL     1       1.800   5.437  18.118  0.00  0.00    +0.000 A 
ATOM      3  C   UNL     1       2.048   4.076  17.943  0.00  0.00    +0.000 A 
ATOM      4  C   UNL     1       3.353   3.617  17.633  0.00  0.00    +0.000 A 
ATOM      5  C   UNL     1       4.407   4.552  17.501  0.00  0.00    +0.000 A 
ATOM      6  C   UNL     1       4.130   5.921  17.681  0.00  0.00    +0.000 A 
ENDROOT
BRANCH   1   7
ATOM      7  C   UNL     1       2.451   7.800  18.054  0.00  0.00    +0.000 C 
ATOM      8  O   UNL     1       2.776   8.554  17.137  0.00  0.00    +0.000 OA
BRANCH   7  12
ATOM      9  C   UNL     1       0.374   9.558  21.411  0.00  0.00    +0.000 A 
ATOM     10  C   UNL     1       0.398  10.164  20.148  0.00  0.00    +0.000 A 
ATOM     11  C   UNL     1       1.061   9.575  19.068  0.00  0.00    +0.000 A 
ATOM     12  C   UNL     1       1.751   8.374  19.237  0.00  0.00    +0.000 A 
ATOM     13  C   UNL     1       1.803   7.795  20.510  0.00  0.00    +0.000 A 
ATOM     14  C   UNL     1       1.103   8.374  21.579  0.00  0.00    +0.000 A 
BRANCH   9  16
ATOM     15  C   UNL     1      -0.800  11.552  22.223  0.00  0.00    +0.000 C 
ATOM     16  N   UNL     1      -0.253  10.227  22.467  0.00  0.00    +0.000 N 
ATOM     17  H   UNL     1       0.303  10.197  23.318  0.00  0.00    +0.000 HD
ENDBRANCH   9  16
ENDBRANCH   7  12
ENDBRANCH   1   7
BRANCH   3  18
ATOM     18  O   UNL     1       1.064   3.117  18.063  0.00  0.00    +0.000 OA
ATOM     19  C   UNL     1       0.593   2.850  19.379  0.00  0.00    +0.000 C 
ENDBRANCH   3  18
BRANCH   4  20
ATOM     20  O   UNL     1       3.425   2.253  17.482  0.00  0.00    +0.000 OA
ATOM     21  C   UNL     1       3.864   1.435  18.552  0.00  0.00    +0.000 C 
ENDBRANCH   4  20
BRANCH   5  22
ATOM     22  O   UNL     1       5.631   4.108  17.063  0.00  0.00    +0.000 OA
ATOM     23  C   UNL     1       5.842   3.998  15.658  0.00  0.00    +0.000 C 
ENDBRANCH   5  22
BRANCH   6  24
ATOM     24  O   UNL     1       5.115   6.857  17.567  0.00  0.00    +0.000 OA
ATOM     25  H   UNL     1       4.684   7.686  17.297  0.00  0.00    +0.000 HD
ENDBRANCH   6  24
TORSDOF 7
ENDMDL
MODEL 2
REMARK VINA RESULT:      -6.5      0.572      1.152
REMARK  Name = 
REMARK  11 active torsions:
REMARK  status: ('A' for Active; 'I' for Inactive)
REMARK    1  A    between atoms: C_1  and  N_2
REMARK    2  A    between atoms: N_2  and  C_3
REMARK    3  A    between atoms: C_6  and  C_7
REMARK    4  A    between atoms: C_7  and  C_9
REMARK    5  A    between atoms: C_11  and  O_12
REMARK    6  A    between atoms: O_12  and  C_13
REMARK    7  A    between atoms: C_14  and  O_15
REMARK    8  A    between atoms: O_15  and  C_16
REMARK    9  A    between atoms: C_17  and  O_18
REMARK   10  A    between atoms: O_18  and  C_19
REMARK   11  A    between atoms: C_20  and  O_21
REMARK                            x       y       z     vdW  Elec       q    Type
REMARK                         _______ _______ _______ _____ _____    ______ ____
ROOT
ATOM      1  C   UNL     1       2.967   6.341  17.838  0.00  0.00    +0.000 A 
ATOM      2  C   UNL     1       1.904   5.453  18.018  0.00  0.00    +0.000 A 
ATOM      3  C   UNL     1       2.112   4.078  17.907  0.00  0.00    +0.000 A 
ATOM      4  C   UNL     1       3.407   3.566  17.644  0.00  0.00    +0.000 A 
ATOM      5  C   UNL     1       4.493   4.461  17.493  0.00  0.00    +0.000 A 
ATOM      6  C   UNL     1       4.256   5.844  17.607  0.00  0.00    +0.000 A 
ENDROOT
BRANCH   1   7
ATOM      7  C   UNL     1       2.631   7.789  17.864  0.00  0.00    +0.000 C 
ATOM      8  O   UNL     1       3.094   8.513  16.983  0.00  0.00    +0.000 OA
BRANCH   7  12
ATOM      9  C   UNL     1       0.311   9.511  21.078  0.00  0.00    +0.000 A 
ATOM     10  C   UNL     1       1.124   8.385  21.265  0.00  0.00    +0.000 A 
ATOM     11  C   UNL     1       1.880   7.849  20.219  0.00  0.00    +0.000 A 
ATOM     12  C   UNL     1       1.813   8.411  18.943  0.00  0.00    +0.000 A 
ATOM     13  C   UNL     1       0.947   9.487  18.721  0.00  0.00    +0.000 A 
ATOM     14  C   UNL     1       0.221  10.042  19.785  0.00  0.00    +0.000 A 
BRANCH   9  16
ATOM     15  C   UNL     1      -0.119   9.537  23.492  0.00  0.00    +0.000 C 
ATOM     16  N   UNL     1      -0.469   9.962  22.147  0.00  0.00    +0.000 N 
ATOM     17  H   UNL     1      -1.464   9.853  21.962  0.00  0.00    +0.000 HD
ENDBRANCH   9  16
ENDBRANCH   7  12
ENDBRANCH   1   7
BRANCH   3  18
ATOM     18  O   UNL     1       1.095   3.156  18.049  0.00  0.00    +0.000 OA
ATOM     19  C   UNL     1       0.633   2.918  19.374  0.00  0.00    +0.000 C 
ENDBRANCH   3  18
BRANCH   4  20
ATOM     20  O   UNL     1       3.439   2.195  17.554  0.00  0.00    +0.000 OA
ATOM     21  C   UNL     1       3.858   1.413  18.657  0.00  0.00    +0.000 C 
ENDBRANCH   4  20
BRANCH   5  22
ATOM     22  O   UNL     1       5.709   3.960  17.099  0.00  0.00    +0.000 OA
ATOM     23  C   UNL     1       5.966   3.837  15.702  0.00  0.00    +0.000 C 
ENDBRANCH   5  22
BRANCH   6  24
ATOM     24  O   UNL     1       5.273   6.744  17.473  0.00  0.00    +0.000 OA
ATOM     25  H   UNL     1       5.394   6.887  16.519  0.00  0.00    +0.000 HD
ENDBRANCH   6  24
TORSDOF 7
ENDMDL
MODEL 3
REMARK VINA RESULT:      -6.5      3.982      7.494
REMARK  Name = 
REMARK  11 active torsions:
REMARK  status: ('A' for Active; 'I' for Inactive)
REMARK    1  A    between atoms: C_1  and  N_2
REMARK    2  A    between atoms: N_2  and  C_3
REMARK    3  A    between atoms: C_6  and  C_7
REMARK    4  A    between atoms: C_7  and  C_9
REMARK    5  A    between atoms: C_11  and  O_12
REMARK    6  A    between atoms: O_12  and  C_13
REMARK    7  A    between atoms: C_14  and  O_15
REMARK    8  A    between atoms: O_15  and  C_16
REMARK    9  A    between atoms: C_17  and  O_18
REMARK   10  A    between atoms: O_18  and  C_19
REMARK   11  A    between atoms: C_20  and  O_21
REMARK                            x       y       z     vdW  Elec       q    Type
REMARK                         _______ _______ _______ _____ _____    ______ ____
ROOT
ATOM      1  C   UNL     1       5.546   5.674  17.322  0.00  0.00    +0.000 A 
ATOM      2  C   UNL     1       4.423   6.498  17.223  0.00  0.00    +0.000 A 
ATOM      3  C   UNL     1       3.344   6.321  18.088  0.00  0.00    +0.000 A 
ATOM      4  C   UNL     1       3.388   5.328  19.098  0.00  0.00    +0.000 A 
ATOM      5  C   UNL     1       4.538   4.512  19.223  0.00  0.00    +0.000 A 
ATOM      6  C   UNL     1       5.613   4.710  18.335  0.00  0.00    +0.000 A 
ENDROOT
BRANCH   1   7
ATOM      7  C   UNL     1       6.599   5.863  16.288  0.00  0.00    +0.000 C 
ATOM      8  O   UNL     1       7.493   6.679  16.507  0.00  0.00    +0.000 OA
BRANCH   7  12
ATOM      9  C   UNL     1       6.441   3.754  12.520  0.00  0.00    +0.000 A 
ATOM     10  C   UNL     1       5.499   3.538  13.535  0.00  0.00    +0.000 A 
ATOM     11  C   UNL     1       5.555   4.240  14.742  0.00  0.00    +0.000 A 
ATOM     12  C   UNL     1       6.582   5.155  14.978  0.00  0.00    +0.000 A 
ATOM     13  C   UNL     1       7.575   5.324  14.006  0.00  0.00    +0.000 A 
ATOM     14  C   UNL     1       7.489   4.644  12.782  0.00  0.00    +0.000 A 
BRANCH   9  16
ATOM     15  C   UNL     1       5.870   1.615  11.465  0.00  0.00    +0.000 C 
ATOM     16  N   UNL     1       6.368   2.976  11.360  0.00  0.00    +0.000 N 
ATOM     17  H   UNL     1       7.227   3.026  10.817  0.00  0.00    +0.000 HD
ENDBRANCH   9  16
ENDBRANCH   7  12
ENDBRANCH   1   7
BRANCH   3  18
ATOM     18  O   UNL     1       2.198   7.087  18.020  0.00  0.00    +0.000 OA
ATOM     19  C   UNL     1       2.377   8.499  18.005  0.00  0.00    +0.000 C 
ENDBRANCH   3  18
BRANCH   4  20
ATOM     20  O   UNL     1       2.244   5.276  19.857  0.00  0.00    +0.000 OA
ATOM     21  C   UNL     1       1.287   4.253  19.643  0.00  0.00    +0.000 C 
ENDBRANCH   4  20
BRANCH   5  22
ATOM     22  O   UNL     1       4.510   3.465  20.111  0.00  0.00    +0.000 OA
ATOM     23  C   UNL     1       4.166   2.173  19.615  0.00  0.00    +0.000 C 
ENDBRANCH   5  22
BRANCH   6  24
ATOM     24  O   UNL     1       6.743   3.950  18.421  0.00  0.00    +0.000 OA
ATOM     25  H   UNL     1       6.718   3.328  17.674  0.00  0.00    +0.000 HD
ENDBRANCH   6  24
TORSDOF 7
ENDMDL
MODEL 4
REMARK VINA RESULT:      -6.5      3.953      7.351
REMARK  Name = 
REMARK  11 active torsions:
REMARK  status: ('A' for Active; 'I' for Inactive)
REMARK    1  A    between atoms: C_1  and  N_2
REMARK    2  A    between atoms: N_2  and  C_3
REMARK    3  A    between atoms: C_6  and  C_7
REMARK    4  A    between atoms: C_7  and  C_9
REMARK    5  A    between atoms: C_11  and  O_12
REMARK    6  A    between atoms: O_12  and  C_13
REMARK    7  A    between atoms: C_14  and  O_15
REMARK    8  A    between atoms: O_15  and  C_16
REMARK    9  A    between atoms: C_17  and  O_18
REMARK   10  A    between atoms: O_18  and  C_19
REMARK   11  A    between atoms: C_20  and  O_21
REMARK                            x       y       z     vdW  Elec       q    Type
REMARK                         _______ _______ _______ _____ _____    ______ ____
ROOT
ATOM      1  C   UNL     1       5.253   5.779  17.592  0.00  0.00    +0.000 A 
ATOM      2  C   UNL     1       4.216   6.706  17.720  0.00  0.00    +0.000 A 
ATOM      3  C   UNL     1       3.208   6.505  18.662  0.00  0.00    +0.000 A 
ATOM      4  C   UNL     1       3.242   5.379  19.522  0.00  0.00    +0.000 A 
ATOM      5  C   UNL     1       4.309   4.455  19.419  0.00  0.00    +0.000 A 
ATOM      6  C   UNL     1       5.313   4.680  18.457  0.00  0.00    +0.000 A 
ENDROOT
BRANCH   1   7
ATOM      7  C   UNL     1       6.221   6.017  16.488  0.00  0.00    +0.000 C 
ATOM      8  O   UNL     1       7.015   6.951  16.599  0.00  0.00    +0.000 OA
BRANCH   7  12
ATOM      9  C   UNL     1       6.366   3.730  12.825  0.00  0.00    +0.000 A 
ATOM     10  C   UNL     1       7.431   4.539  13.242  0.00  0.00    +0.000 A 
ATOM     11  C   UNL     1       7.375   5.260  14.437  0.00  0.00    +0.000 A 
ATOM     12  C   UNL     1       6.229   5.217  15.232  0.00  0.00    +0.000 A 
ATOM     13  C   UNL     1       5.126   4.477  14.791  0.00  0.00    +0.000 A 
ATOM     14  C   UNL     1       5.206   3.725  13.609  0.00  0.00    +0.000 A 
BRANCH   9  16
ATOM     15  C   UNL     1       5.888   1.752  11.457  0.00  0.00    +0.000 C 
ATOM     16  N   UNL     1       6.457   3.082  11.589  0.00  0.00    +0.000 N 
ATOM     17  H   UNL     1       7.398   3.132  11.204  0.00  0.00    +0.000 HD
ENDBRANCH   9  16
ENDBRANCH   7  12
ENDBRANCH   1   7
BRANCH   3  18
ATOM     18  O   UNL     1       2.145   7.372  18.815  0.00  0.00    +0.000 OA
ATOM     19  C   UNL     1       2.109   8.494  17.941  0.00  0.00    +0.000 C 
ENDBRANCH   3  18
BRANCH   4  20
ATOM     20  O   UNL     1       2.172   5.323  20.383  0.00  0.00    +0.000 OA
ATOM     21  C   UNL     1       1.121   4.400  20.161  0.00  0.00    +0.000 C 
ENDBRANCH   4  20
BRANCH   5  22
ATOM     22  O   UNL     1       4.254   3.300  20.159  0.00  0.00    +0.000 OA
ATOM     23  C   UNL     1       3.825   2.105  19.509  0.00  0.00    +0.000 C 
ENDBRANCH   5  22
BRANCH   6  24
ATOM     24  O   UNL     1       6.362   3.818  18.324  0.00  0.00    +0.000 OA
ATOM     25  H   UNL     1       6.201   3.306  17.513  0.00  0.00    +0.000 HD
ENDBRANCH   6  24
TORSDOF 7
ENDMDL
MODEL 5
REMARK VINA RESULT:      -6.4      1.544      2.979
REMARK  Name = 
REMARK  11 active torsions:
REMARK  status: ('A' for Active; 'I' for Inactive)
REMARK    1  A    between atoms: C_1  and  N_2
REMARK    2  A    between atoms: N_2  and  C_3
REMARK    3  A    between atoms: C_6  and  C_7
REMARK    4  A    between atoms: C_7  and  C_9
REMARK    5  A    between atoms: C_11  and  O_12
REMARK    6  A    between atoms: O_12  and  C_13
REMARK    7  A    between atoms: C_14  and  O_15
REMARK    8  A    between atoms: O_15  and  C_16
REMARK    9  A    between atoms: C_17  and  O_18
REMARK   10  A    between atoms: O_18  and  C_19
REMARK   11  A    between atoms: C_20  and  O_21
REMARK                            x       y       z     vdW  Elec       q    Type
REMARK                         _______ _______ _______ _____ _____    ______ ____
ROOT
ATOM      1  C   UNL     1       3.242   6.214  18.334  0.00  0.00    +0.000 A 
ATOM      2  C   UNL     1       4.537   6.158  18.852  0.00  0.00    +0.000 A 
ATOM      3  C   UNL     1       5.100   4.932  19.207  0.00  0.00    +0.000 A 
ATOM      4  C   UNL     1       4.378   3.728  19.015  0.00  0.00    +0.000 A 
ATOM      5  C   UNL     1       3.077   3.777  18.460  0.00  0.00    +0.000 A 
ATOM      6  C   UNL     1       2.531   5.028  18.112  0.00  0.00    +0.000 A 
ENDROOT
BRANCH   1   7
ATOM      7  C   UNL     1       2.685   7.570  18.089  0.00  0.00    +0.000 C 
ATOM      8  O   UNL     1       2.982   8.143  17.041  0.00  0.00    +0.000 OA
BRANCH   7  12
ATOM      9  C   UNL     1       0.198   9.743  20.876  0.00  0.00    +0.000 A 
ATOM     10  C   UNL     1       0.473  10.225  19.589  0.00  0.00    +0.000 A 
ATOM     11  C   UNL     1       1.266   9.503  18.694  0.00  0.00    +0.000 A 
ATOM     12  C   UNL     1       1.837   8.289  19.080  0.00  0.00    +0.000 A 
ATOM     13  C   UNL     1       1.637   7.832  20.388  0.00  0.00    +0.000 A 
ATOM     14  C   UNL     1       0.807   8.544  21.267  0.00  0.00    +0.000 A 
BRANCH   9  16
ATOM     15  C   UNL     1      -0.629  10.159  23.147  0.00  0.00    +0.000 C 
ATOM     16  N   UNL     1      -0.551  10.541  21.747  0.00  0.00    +0.000 N 
ATOM     17  H   UNL     1      -1.467  10.763  21.363  0.00  0.00    +0.000 HD
ENDBRANCH   9  16
ENDBRANCH   7  12
ENDBRANCH   1   7
BRANCH   3  18
ATOM     18  O   UNL     1       6.364   4.819  19.748  0.00  0.00    +0.000 OA
ATOM     19  C   UNL     1       7.367   5.670  19.203  0.00  0.00    +0.000 C 
ENDBRANCH   3  18
BRANCH   4  20
ATOM     20  O   UNL     1       5.067   2.612  19.426  0.00  0.00    +0.000 OA
ATOM     21  C   UNL     1       4.676   1.918  20.597  0.00  0.00    +0.000 C 
ENDBRANCH   4  20
BRANCH   5  22
ATOM     22  O   UNL     1       2.337   2.621  18.412  0.00  0.00    +0.000 OA
ATOM     23  C   UNL     1       1.363   2.403  19.430  0.00  0.00    +0.000 C 
ENDBRANCH   5  22
BRANCH   6  24
ATOM     24  O   UNL     1       1.283   5.123  17.571  0.00  0.00    +0.000 OA
ATOM     25  H   UNL     1       0.854   4.260  17.706  0.00  0.00    +0.000 HD
ENDBRANCH   6  24
TORSDOF 7
ENDMDL
MODEL 6
REMARK VINA RESULT:      -6.2      1.096      1.096
REMARK  Name = 
REMARK  11 active torsions:
REMARK  status: ('A' for Active; 'I' for Inactive)
REMARK    1  A    between atoms: C_1  and  N_2
REMARK    2  A    between atoms: N_2  and  C_3
REMARK    3  A    between atoms: C_6  and  C_7
REMARK    4  A    between atoms: C_7  and  C_9
REMARK    5  A    between atoms: C_11  and  O_12
REMARK    6  A    between atoms: O_12  and  C_13
REMARK    7  A    between atoms: C_14  and  O_15
REMARK    8  A    between atoms: O_15  and  C_16
REMARK    9  A    between atoms: C_17  and  O_18
REMARK   10  A    between atoms: O_18  and  C_19
REMARK   11  A    between atoms: C_20  and  O_21
REMARK                            x       y       z     vdW  Elec       q    Type
REMARK                         _______ _______ _______ _____ _____    ______ ____
ROOT
ATOM      1  C   UNL     1       2.868   6.569  18.619  0.00  0.00    +0.000 A 
ATOM      2  C   UNL     1       2.136   5.654  19.379  0.00  0.00    +0.000 A 
ATOM      3  C   UNL     1       2.574   4.336  19.503  0.00  0.00    +0.000 A 
ATOM      4  C   UNL     1       3.780   3.918  18.888  0.00  0.00    +0.000 A 
ATOM      5  C   UNL     1       4.542   4.850  18.144  0.00  0.00    +0.000 A 
ATOM      6  C   UNL     1       4.077   6.175  18.033  0.00  0.00    +0.000 A 
ENDROOT
BRANCH   1   7
ATOM      7  C   UNL     1       2.270   7.920  18.453  0.00  0.00    +0.000 C 
ATOM      8  O   UNL     1       2.460   8.517  17.394  0.00  0.00    +0.000 OA
BRANCH   7  12
ATOM      9  C   UNL     1      -0.002   9.982  21.495  0.00  0.00    +0.000 A 
ATOM     10  C   UNL     1      -0.035  10.370  20.149  0.00  0.00    +0.000 A 
ATOM     11  C   UNL     1       0.693   9.682  19.174  0.00  0.00    +0.000 A 
ATOM     12  C   UNL     1       1.506   8.605  19.532  0.00  0.00    +0.000 A 
ATOM     13  C   UNL     1       1.611   8.255  20.883  0.00  0.00    +0.000 A 
ATOM     14  C   UNL     1       0.846   8.926  21.849  0.00  0.00    +0.000 A 
BRANCH   9  16
ATOM     15  C   UNL     1      -0.669  12.196  22.313  0.00  0.00    +0.000 C 
ATOM     16  N   UNL     1      -0.704  10.748  22.432  0.00  0.00    +0.000 N 
ATOM     17  H   UNL     1      -0.521  10.441  23.385  0.00  0.00    +0.000 HD
ENDBRANCH   9  16
ENDBRANCH   7  12
ENDBRANCH   1   7
BRANCH   3  18
ATOM     18  O   UNL     1       1.878   3.382  20.218  0.00  0.00    +0.000 OA
ATOM     19  C   UNL     1       2.028   3.414  21.633  0.00  0.00    +0.000 C 
ENDBRANCH   3  18
BRANCH   4  20
ATOM     20  O   UNL     1       4.062   2.589  19.096  0.00  0.00    +0.000 OA
ATOM     21  C   UNL     1       3.584   1.605  18.196  0.00  0.00    +0.000 C 
ENDBRANCH   4  20
BRANCH   5  22
ATOM     22  O   UNL     1       5.630   4.398  17.439  0.00  0.00    +0.000 OA
ATOM     23  C   UNL     1       5.436   4.001  16.083  0.00  0.00    +0.000 C 
ENDBRANCH   5  22
BRANCH   6  24
ATOM     24  O   UNL     1       4.780   7.108  17.329  0.00  0.00    +0.000 OA
ATOM     25  H   UNL     1       5.102   7.760  17.974  0.00  0.00    +0.000 HD
ENDBRANCH   6  24
TORSDOF 7
ENDMDL
MODEL 7
REMARK VINA RESULT:      -6.2      1.810      3.603
REMARK  Name = 
REMARK  11 active torsions:
REMARK  status: ('A' for Active; 'I' for Inactive)
REMARK    1  A    between atoms: C_1  and  N_2
REMARK    2  A    between atoms: N_2  and  C_3
REMARK    3  A    between atoms: C_6  and  C_7
REMARK    4  A    between atoms: C_7  and  C_9
REMARK    5  A    between atoms: C_11  and  O_12
REMARK    6  A    between atoms: O_12  and  C_13
REMARK    7  A    between atoms: C_14  and  O_15
REMARK    8  A    between atoms: O_15  and  C_16
REMARK    9  A    between atoms: C_17  and  O_18
REMARK   10  A    between atoms: O_18  and  C_19
REMARK   11  A    between atoms: C_20  and  O_21
REMARK                            x       y       z     vdW  Elec       q    Type
REMARK                         _______ _______ _______ _____ _____    ______ ____
ROOT
ATOM      1  C   UNL     1       3.116   5.874  18.783  0.00  0.00    +0.000 A 
ATOM      2  C   UNL     1       4.359   6.407  18.436  0.00  0.00    +0.000 A 
ATOM      3  C   UNL     1       5.266   5.649  17.697  0.00  0.00    +0.000 A 
ATOM      4  C   UNL     1       4.926   4.344  17.263  0.00  0.00    +0.000 A 
ATOM      5  C   UNL     1       3.655   3.812  17.584  0.00  0.00    +0.000 A 
ATOM      6  C   UNL     1       2.758   4.598  18.333  0.00  0.00    +0.000 A 
ENDROOT
BRANCH   1   7
ATOM      7  C   UNL     1       2.259   6.711  19.664  0.00  0.00    +0.000 C 
ATOM      8  O   UNL     1       1.829   6.214  20.705  0.00  0.00    +0.000 OA
BRANCH   7  12
ATOM      9  C   UNL     1       1.029  10.755  18.765  0.00  0.00    +0.000 A 
ATOM     10  C   UNL     1       0.777  10.158  20.007  0.00  0.00    +0.000 A 
ATOM     11  C   UNL     1       1.196   8.854  20.288  0.00  0.00    +0.000 A 
ATOM     12  C   UNL     1       1.849   8.099  19.313  0.00  0.00    +0.000 A 
ATOM     13  C   UNL     1       2.039   8.653  18.041  0.00  0.00    +0.000 A 
ATOM     14  C   UNL     1       1.650   9.976  17.781  0.00  0.00    +0.000 A 
BRANCH   9  16
ATOM     15  C   UNL     1      -0.907  12.246  18.556  0.00  0.00    +0.000 C 
ATOM     16  N   UNL     1       0.531  12.039  18.523  0.00  0.00    +0.000 N 
ATOM     17  H   UNL     1       0.956  12.461  17.700  0.00  0.00    +0.000 HD
ENDBRANCH   9  16
ENDBRANCH   7  12
ENDBRANCH   1   7
BRANCH   3  18
ATOM     18  O   UNL     1       6.518   6.114  17.348  0.00  0.00    +0.000 OA
ATOM     19  C   UNL     1       7.486   6.177  18.389  0.00  0.00    +0.000 C 
ENDBRANCH   3  18
BRANCH   4  20
ATOM     20  O   UNL     1       5.932   3.728  16.558  0.00  0.00    +0.000 OA
ATOM     21  C   UNL     1       5.974   3.812  15.145  0.00  0.00    +0.000 C 
ENDBRANCH   4  20
BRANCH   5  22
ATOM     22  O   UNL     1       3.394   2.498  17.279  0.00  0.00    +0.000 OA
ATOM     23  C   UNL     1       3.596   1.519  18.296  0.00  0.00    +0.000 C 
ENDBRANCH   5  22
BRANCH   6  24
ATOM     24  O   UNL     1       1.520   4.127  18.663  0.00  0.00    +0.000 OA
ATOM     25  H   UNL     1       0.875   4.748  18.283  0.00  0.00    +0.000 HD
ENDBRANCH   6  24
TORSDOF 7
ENDMDL
MODEL 8
REMARK VINA RESULT:      -6.1      1.821      3.563
REMARK  Name = 
REMARK  11 active torsions:
REMARK  status: ('A' for Active; 'I' for Inactive)
REMARK    1  A    between atoms: C_1  and  N_2
REMARK    2  A    between atoms: N_2  and  C_3
REMARK    3  A    between atoms: C_6  and  C_7
REMARK    4  A    between atoms: C_7  and  C_9
REMARK    5  A    between atoms: C_11  and  O_12
REMARK    6  A    between atoms: O_12  and  C_13
REMARK    7  A    between atoms: C_14  and  O_15
REMARK    8  A    between atoms: O_15  and  C_16
REMARK    9  A    between atoms: C_17  and  O_18
REMARK   10  A    between atoms: O_18  and  C_19
REMARK   11  A    between atoms: C_20  and  O_21
REMARK                            x       y       z     vdW  Elec       q    Type
REMARK                         _______ _______ _______ _____ _____    ______ ____
ROOT
ATOM      1  C   UNL     1       3.076   5.863  18.849  0.00  0.00    +0.000 A 
ATOM      2  C   UNL     1       4.314   6.413  18.509  0.00  0.00    +0.000 A 
ATOM      3  C   UNL     1       5.215   5.685  17.732  0.00  0.00    +0.000 A 
ATOM      4  C   UNL     1       4.872   4.396  17.253  0.00  0.00    +0.000 A 
ATOM      5  C   UNL     1       3.606   3.848  17.568  0.00  0.00    +0.000 A 
ATOM      6  C   UNL     1       2.715   4.604  18.356  0.00  0.00    +0.000 A 
ENDROOT
BRANCH   1   7
ATOM      7  C   UNL     1       2.227   6.665  19.770  0.00  0.00    +0.000 C 
ATOM      8  O   UNL     1       1.847   6.143  20.818  0.00  0.00    +0.000 OA
BRANCH   7  12
ATOM      9  C   UNL     1       0.925  10.650  18.723  0.00  0.00    +0.000 A 
ATOM     10  C   UNL     1       1.585   9.817  17.809  0.00  0.00    +0.000 A 
ATOM     11  C   UNL     1       1.985   8.525  18.159  0.00  0.00    +0.000 A 
ATOM     12  C   UNL     1       1.766   8.045  19.451  0.00  0.00    +0.000 A 
ATOM     13  C   UNL     1       1.179   8.893  20.398  0.00  0.00    +0.000 A 
ATOM     14  C   UNL     1       0.746  10.174  20.027  0.00  0.00    +0.000 A 
BRANCH   9  16
ATOM     15  C   UNL     1      -0.756  12.425  18.529  0.00  0.00    +0.000 C 
ATOM     16  N   UNL     1       0.605  11.955  18.333  0.00  0.00    +0.000 N 
ATOM     17  H   UNL     1       0.948  12.165  17.398  0.00  0.00    +0.000 HD
ENDBRANCH   9  16
ENDBRANCH   7  12
ENDBRANCH   1   7
BRANCH   3  18
ATOM     18  O   UNL     1       6.461   6.165  17.387  0.00  0.00    +0.000 OA
ATOM     19  C   UNL     1       7.423   6.247  18.433  0.00  0.00    +0.000 C 
ENDBRANCH   3  18
BRANCH   4  20
ATOM     20  O   UNL     1       5.872   3.809  16.515  0.00  0.00    +0.000 OA
ATOM     21  C   UNL     1       5.857   3.882  15.100  0.00  0.00    +0.000 C 
ENDBRANCH   4  20
BRANCH   5  22
ATOM     22  O   UNL     1       3.344   2.547  17.217  0.00  0.00    +0.000 OA
ATOM     23  C   UNL     1       3.530   1.534  18.204  0.00  0.00    +0.000 C 
ENDBRANCH   5  22
BRANCH   6  24
ATOM     24  O   UNL     1       1.482   4.118  18.681  0.00  0.00    +0.000 OA
ATOM     25  H   UNL     1       1.585   3.636  19.519  0.00  0.00    +0.000 HD
ENDBRANCH   6  24
TORSDOF 7
ENDMDL
MODEL 9
REMARK VINA RESULT:      -6.1      4.664      8.470
REMARK  Name = 
REMARK  11 active torsions:
REMARK  status: ('A' for Active; 'I' for Inactive)
REMARK    1  A    between atoms: C_1  and  N_2
REMARK    2  A    between atoms: N_2  and  C_3
REMARK    3  A    between atoms: C_6  and  C_7
REMARK    4  A    between atoms: C_7  and  C_9
REMARK    5  A    between atoms: C_11  and  O_12
REMARK    6  A    between atoms: O_12  and  C_13
REMARK    7  A    between atoms: C_14  and  O_15
REMARK    8  A    between atoms: O_15  and  C_16
REMARK    9  A    between atoms: C_17  and  O_18
REMARK   10  A    between atoms: O_18  and  C_19
REMARK   11  A    between atoms: C_20  and  O_21
REMARK                            x       y       z     vdW  Elec       q    Type
REMARK                         _______ _______ _______ _____ _____    ______ ____
ROOT
ATOM      1  C   UNL     1      -1.125  11.321  18.660  0.00  0.00    +0.000 A 
ATOM      2  C   UNL     1      -1.665  10.724  17.519  0.00  0.00    +0.000 A 
ATOM      3  C   UNL     1      -3.044  10.730  17.310  0.00  0.00    +0.000 A 
ATOM      4  C   UNL     1      -3.908  11.369  18.234  0.00  0.00    +0.000 A 
ATOM      5  C   UNL     1      -3.362  12.004  19.375  0.00  0.00    +0.000 A 
ATOM      6  C   UNL     1      -1.967  11.982  19.563  0.00  0.00    +0.000 A 
ENDROOT
BRANCH   1   7
ATOM      7  C   UNL     1       0.341  11.170  18.854  0.00  0.00    +0.000 C 
ATOM      8  O   UNL     1       1.050  12.172  18.757  0.00  0.00    +0.000 OA
BRANCH   7  12
ATOM      9  C   UNL     1       2.186   7.351  19.680  0.00  0.00    +0.000 A 
ATOM     10  C   UNL     1       1.480   8.065  20.657  0.00  0.00    +0.000 A 
ATOM     11  C   UNL     1       0.876   9.292  20.370  0.00  0.00    +0.000 A 
ATOM     12  C   UNL     1       0.995   9.854  19.098  0.00  0.00    +0.000 A 
ATOM     13  C   UNL     1       1.762   9.191  18.133  0.00  0.00    +0.000 A 
ATOM     14  C   UNL     1       2.332   7.942  18.419  0.00  0.00    +0.000 A 
BRANCH   9  16
ATOM     15  C   UNL     1       2.029   5.113  20.672  0.00  0.00    +0.000 C 
ATOM     16  N   UNL     1       2.820   6.159  20.045  0.00  0.00    +0.000 N 
ATOM     17  H   UNL     1       3.688   6.331  20.548  0.00  0.00    +0.000 HD
ENDBRANCH   9  16
ENDBRANCH   7  12
ENDBRANCH   1   7
BRANCH   3  18
ATOM     18  O   UNL     1      -3.636  10.133  16.216  0.00  0.00    +0.000 OA
ATOM     19  C   UNL     1      -3.111  10.481  14.940  0.00  0.00    +0.000 C 
ENDBRANCH   3  18
BRANCH   4  20
ATOM     20  O   UNL     1      -5.235  11.274  17.889  0.00  0.00    +0.000 OA
ATOM     21  C   UNL     1      -5.898  12.368  17.280  0.00  0.00    +0.000 C 
ENDBRANCH   4  20
BRANCH   5  22
ATOM     22  O   UNL     1      -4.219  12.494  20.329  0.00  0.00    +0.000 OA
ATOM     23  C   UNL     1      -4.493  13.894  20.331  0.00  0.00    +0.000 C 
ENDBRANCH   5  22
BRANCH   6  24
ATOM     24  O   UNL     1      -1.396  12.584  20.646  0.00  0.00    +0.000 OA
ATOM     25  H   UNL     1      -2.123  12.841  21.238  0.00  0.00    +0.000 HD
ENDBRANCH   6  24
TORSDOF 7
ENDMDL
