MODEL 1
REMARK VINA RESULT:      -8.2      0.000      0.000
REMARK  Name = 
REMARK  6 active torsions:
REMARK  status: ('A' for Active; 'I' for Inactive)
REMARK    1  A    between atoms: C_1  and  C_2
REMARK    2  A    between atoms: C_6  and  C_7
REMARK    3  A    between atoms: C_9  and  C_10
REMARK    4  A    between atoms: N_15  and  C_16
REMARK    5  A    between atoms: C_19  and  S_20
REMARK    6  A    between atoms: S_20  and  C_21
REMARK                            x       y       z     vdW  Elec       q    Type
REMARK                         _______ _______ _______ _____ _____    ______ ____
ROOT
ATOM      1  C   UNL     1       4.463   4.988  18.364  0.00  0.00    +0.000 A 
ATOM      2  N   UNL     1       4.445   3.676  18.207  0.00  0.00    +0.000 NA
ATOM      3  C   UNL     1       3.181   3.243  18.535  0.00  0.00    +0.000 A 
ATOM      4  C   UNL     1       2.415   4.335  18.895  0.00  0.00    +0.000 A 
ATOM      5  N   UNL     1       3.187   5.473  18.705  0.00  0.00    +0.000 N 
ENDROOT
BRANCH   1  11
ATOM      6  C   UNL     1       5.242   6.519  15.742  0.00  0.00    +0.000 C 
ATOM      7  C   UNL     1       6.021   6.471  17.018  0.00  0.00    +0.000 A 
ATOM      8  C   UNL     1       7.198   7.256  17.257  0.00  0.00    +0.000 A 
ATOM      9  C   UNL     1       7.791   6.963  18.463  0.00  0.00    +0.000 A 
ATOM     10  S   UNL     1       7.038   5.624  19.213  0.00  0.00    +0.000 S 
ATOM     11  C   UNL     1       5.689   5.722  18.144  0.00  0.00    +0.000 A 
ENDBRANCH   1  11
BRANCH   5  12
ATOM     12  C   UNL     1       2.694   6.819  18.839  0.00  0.00    +0.000 A 
ATOM     13  C   UNL     1       2.726   7.712  17.750  0.00  0.00    +0.000 A 
ATOM     14  C   UNL     1       2.157   8.993  17.852  0.00  0.00    +0.000 A 
ATOM     15  C   UNL     1       1.528   9.376  19.032  0.00  0.00    +0.000 A 
ATOM     16  C   UNL     1       1.551   8.538  20.141  0.00  0.00    +0.000 A 
ATOM     17  C   UNL     1       2.176   7.292  20.050  0.00  0.00    +0.000 A 
BRANCH  15  18
ATOM     18  S   UNL     1       0.772  10.974  19.165  0.00  0.00    +0.000 S 
ATOM     19  C   UNL     1       0.745  11.285  20.914  0.00  0.00    +0.000 C 
ATOM     20  O   UNL     1       1.671  11.939  18.560  0.00  0.00    +0.000 OA
ATOM     21  O   UNL     1      -0.595  10.849  18.705  0.00  0.00    +0.000 OA
ENDBRANCH  15  18
ENDBRANCH   5  12
BRANCH   3  22
ATOM     22  C   UNL     1       2.776   1.798  18.476  0.00  0.00    +0.000 C 
ATOM     23  F   UNL     1       3.818   0.940  18.620  0.00  0.00    +0.000 F 
ATOM     24  F   UNL     1       1.873   1.491  19.445  0.00  0.00    +0.000 F 
ATOM     25  F   UNL     1       2.183   1.497  17.289  0.00  0.00    +0.000 F 
ENDBRANCH   3  22
TORSDOF 4
ENDMDL
MODEL 2
REMARK VINA RESULT:      -8.1      2.577      4.227
REMARK  Name = 
REMARK  6 active torsions:
REMARK  status: ('A' for Active; 'I' for Inactive)
REMARK    1  A    between atoms: C_1  and  C_2
REMARK    2  A    between atoms: C_6  and  C_7
REMARK    3  A    between atoms: C_9  and  C_10
REMARK    4  A    between atoms: N_15  and  C_16
REMARK    5  A    between atoms: C_19  and  S_20
REMARK    6  A    between atoms: S_20  and  C_21
REMARK                            x       y       z     vdW  Elec       q    Type
REMARK                         _______ _______ _______ _____ _____    ______ ____
ROOT
ATOM      1  C   UNL     1       3.722   5.104  18.968  0.00  0.00    +0.000 A 
ATOM      2  N   UNL     1       4.913   4.569  18.765  0.00  0.00    +0.000 NA
ATOM      3  C   UNL     1       5.693   5.525  18.158  0.00  0.00    +0.000 A 
ATOM      4  C   UNL     1       4.944   6.675  17.996  0.00  0.00    +0.000 A 
ATOM      5  N   UNL     1       3.708   6.460  18.590  0.00  0.00    +0.000 N 
ENDROOT
BRANCH   1  11
ATOM      6  C   UNL     1       1.193   4.036  17.456  0.00  0.00    +0.000 C 
ATOM      7  C   UNL     1       1.573   3.758  18.876  0.00  0.00    +0.000 A 
ATOM      8  C   UNL     1       0.874   2.828  19.716  0.00  0.00    +0.000 A 
ATOM      9  C   UNL     1       1.351   2.822  21.006  0.00  0.00    +0.000 A 
ATOM     10  S   UNL     1       2.504   4.061  21.245  0.00  0.00    +0.000 S 
ATOM     11  C   UNL     1       2.664   4.307  19.546  0.00  0.00    +0.000 A 
ENDBRANCH   1  11
BRANCH   5  12
ATOM     12  C   UNL     1       2.698   7.473  18.751  0.00  0.00    +0.000 A 
ATOM     13  C   UNL     1       2.062   7.670  19.992  0.00  0.00    +0.000 A 
ATOM     14  C   UNL     1       1.147   8.720  20.175  0.00  0.00    +0.000 A 
ATOM     15  C   UNL     1       0.887   9.598  19.127  0.00  0.00    +0.000 A 
ATOM     16  C   UNL     1       1.447   9.377  17.875  0.00  0.00    +0.000 A 
ATOM     17  C   UNL     1       2.305   8.291  17.684  0.00  0.00    +0.000 A 
BRANCH  15  18
ATOM     18  S   UNL     1      -0.235  10.952  19.352  0.00  0.00    +0.000 S 
ATOM     19  C   UNL     1      -0.556  10.951  21.099  0.00  0.00    +0.000 C 
ATOM     20  O   UNL     1       0.481  12.175  19.037  0.00  0.00    +0.000 OA
ATOM     21  O   UNL     1      -1.463  10.619  18.664  0.00  0.00    +0.000 OA
ENDBRANCH  15  18
ENDBRANCH   5  12
BRANCH   3  22
ATOM     22  C   UNL     1       7.124   5.283  17.772  0.00  0.00    +0.000 C 
ATOM     23  F   UNL     1       7.958   5.173  18.838  0.00  0.00    +0.000 F 
ATOM     24  F   UNL     1       7.260   4.143  17.045  0.00  0.00    +0.000 F 
ATOM     25  F   UNL     1       7.608   6.293  17.000  0.00  0.00    +0.000 F 
ENDBRANCH   3  22
TORSDOF 4
ENDMDL
MODEL 3
REMARK VINA RESULT:      -8.1      0.746      1.154
REMARK  Name = 
REMARK  6 active torsions:
REMARK  status: ('A' for Active; 'I' for Inactive)
REMARK    1  A    between atoms: C_1  and  C_2
REMARK    2  A    between atoms: C_6  and  C_7
REMARK    3  A    between atoms: C_9  and  C_10
REMARK    4  A    between atoms: N_15  and  C_16
REMARK    5  A    between atoms: C_19  and  S_20
REMARK    6  A    between atoms: S_20  and  C_21
REMARK                            x       y       z     vdW  Elec       q    Type
REMARK                         _______ _______ _______ _____ _____    ______ ____
ROOT
ATOM      1  C   UNL     1       4.412   5.022  18.324  0.00  0.00    +0.000 A 
ATOM      2  N   UNL     1       4.382   3.712  18.149  0.00  0.00    +0.000 NA
ATOM      3  C   UNL     1       3.120   3.283  18.487  0.00  0.00    +0.000 A 
ATOM      4  C   UNL     1       2.366   4.376  18.873  0.00  0.00    +0.000 A 
ATOM      5  N   UNL     1       3.144   5.511  18.688  0.00  0.00    +0.000 N 
ENDROOT
BRANCH   1  11
ATOM      6  C   UNL     1       5.183   6.557  15.703  0.00  0.00    +0.000 C 
ATOM      7  C   UNL     1       5.970   6.501  16.974  0.00  0.00    +0.000 A 
ATOM      8  C   UNL     1       7.153   7.279  17.208  0.00  0.00    +0.000 A 
ATOM      9  C   UNL     1       7.751   6.979  18.410  0.00  0.00    +0.000 A 
ATOM     10  S   UNL     1       6.995   5.641  19.160  0.00  0.00    +0.000 S 
ATOM     11  C   UNL     1       5.641   5.749  18.100  0.00  0.00    +0.000 A 
ENDBRANCH   1  11
BRANCH   5  12
ATOM     12  C   UNL     1       2.663   6.858  18.848  0.00  0.00    +0.000 A 
ATOM     13  C   UNL     1       2.678   7.763  17.769  0.00  0.00    +0.000 A 
ATOM     14  C   UNL     1       2.120   9.046  17.896  0.00  0.00    +0.000 A 
ATOM     15  C   UNL     1       1.517   9.420  19.093  0.00  0.00    +0.000 A 
ATOM     16  C   UNL     1       1.558   8.570  20.192  0.00  0.00    +0.000 A 
ATOM     17  C   UNL     1       2.173   7.320  20.075  0.00  0.00    +0.000 A 
BRANCH  15  18
ATOM     18  S   UNL     1       0.774  11.021  19.260  0.00  0.00    +0.000 S 
ATOM     19  C   UNL     1       1.965  12.118  18.528  0.00  0.00    +0.000 C 
ATOM     20  O   UNL     1      -0.415  11.044  18.428  0.00  0.00    +0.000 OA
ATOM     21  O   UNL     1       0.691  11.318  20.674  0.00  0.00    +0.000 OA
ENDBRANCH  15  18
ENDBRANCH   5  12
BRANCH   3  22
ATOM     22  C   UNL     1       2.703   1.842  18.413  0.00  0.00    +0.000 C 
ATOM     23  F   UNL     1       1.799   1.494  19.365  0.00  0.00    +0.000 F 
ATOM     24  F   UNL     1       2.146   1.543  17.209  0.00  0.00    +0.000 F 
ATOM     25  F   UNL     1       3.769   1.009  18.562  0.00  0.00    +0.000 F 
ENDBRANCH   3  22
TORSDOF 4
ENDMDL
MODEL 4
REMARK VINA RESULT:      -8.1      0.726      1.185
REMARK  Name = 
REMARK  6 active torsions:
REMARK  status: ('A' for Active; 'I' for Inactive)
REMARK    1  A    between atoms: C_1  and  C_2
REMARK    2  A    between atoms: C_6  and  C_7
REMARK    3  A    between atoms: C_9  and  C_10
REMARK    4  A    between atoms: N_15  and  C_16
REMARK    5  A    between atoms: C_19  and  S_20
REMARK    6  A    between atoms: S_20  and  C_21
REMARK                            x       y       z     vdW  Elec       q    Type
REMARK                         _______ _______ _______ _____ _____    ______ ____
ROOT
ATOM      1  C   UNL     1       4.431   5.004  18.327  0.00  0.00    +0.000 A 
ATOM      2  N   UNL     1       4.403   3.695  18.145  0.00  0.00    +0.000 NA
ATOM      3  C   UNL     1       3.140   3.263  18.476  0.00  0.00    +0.000 A 
ATOM      4  C   UNL     1       2.384   4.353  18.865  0.00  0.00    +0.000 A 
ATOM      5  N   UNL     1       3.161   5.490  18.689  0.00  0.00    +0.000 N 
ENDROOT
BRANCH   1  11
ATOM      6  C   UNL     1       5.216   6.540  15.710  0.00  0.00    +0.000 C 
ATOM      7  C   UNL     1       5.995   6.486  16.986  0.00  0.00    +0.000 A 
ATOM      8  C   UNL     1       7.174   7.266  17.228  0.00  0.00    +0.000 A 
ATOM      9  C   UNL     1       7.765   6.967  18.434  0.00  0.00    +0.000 A 
ATOM     10  S   UNL     1       7.007   5.628  19.179  0.00  0.00    +0.000 S 
ATOM     11  C   UNL     1       5.660   5.733  18.110  0.00  0.00    +0.000 A 
ENDBRANCH   1  11
BRANCH   5  12
ATOM     12  C   UNL     1       2.678   6.836  18.854  0.00  0.00    +0.000 A 
ATOM     13  C   UNL     1       2.712   7.751  17.785  0.00  0.00    +0.000 A 
ATOM     14  C   UNL     1       2.153   9.034  17.916  0.00  0.00    +0.000 A 
ATOM     15  C   UNL     1       1.530   9.396  19.107  0.00  0.00    +0.000 A 
ATOM     16  C   UNL     1       1.552   8.534  20.197  0.00  0.00    +0.000 A 
ATOM     17  C   UNL     1       2.168   7.285  20.078  0.00  0.00    +0.000 A 
BRANCH  15  18
ATOM     18  S   UNL     1       0.786  10.995  19.277  0.00  0.00    +0.000 S 
ATOM     19  C   UNL     1      -0.784  10.820  18.465  0.00  0.00    +0.000 C 
ATOM     20  O   UNL     1       0.529  11.214  20.689  0.00  0.00    +0.000 OA
ATOM     21  O   UNL     1       1.587  11.932  18.519  0.00  0.00    +0.000 OA
ENDBRANCH  15  18
ENDBRANCH   5  12
BRANCH   3  22
ATOM     22  C   UNL     1       2.724   1.823  18.393  0.00  0.00    +0.000 C 
ATOM     23  F   UNL     1       2.152   1.495  17.205  0.00  0.00    +0.000 F 
ATOM     24  F   UNL     1       3.781   0.986  18.567  0.00  0.00    +0.000 F 
ATOM     25  F   UNL     1       1.821   1.509  19.361  0.00  0.00    +0.000 F 
ENDBRANCH   3  22
TORSDOF 4
ENDMDL
MODEL 5
REMARK VINA RESULT:      -8.1      2.638      4.287
REMARK  Name = 
REMARK  6 active torsions:
REMARK  status: ('A' for Active; 'I' for Inactive)
REMARK    1  A    between atoms: C_1  and  C_2
REMARK    2  A    between atoms: C_6  and  C_7
REMARK    3  A    between atoms: C_9  and  C_10
REMARK    4  A    between atoms: N_15  and  C_16
REMARK    5  A    between atoms: C_19  and  S_20
REMARK    6  A    between atoms: S_20  and  C_21
REMARK                            x       y       z     vdW  Elec       q    Type
REMARK                         _______ _______ _______ _____ _____    ______ ____
ROOT
ATOM      1  C   UNL     1       3.751   5.011  18.722  0.00  0.00    +0.000 A 
ATOM      2  N   UNL     1       4.917   4.459  18.433  0.00  0.00    +0.000 NA
ATOM      3  C   UNL     1       5.677   5.416  17.801  0.00  0.00    +0.000 A 
ATOM      4  C   UNL     1       4.941   6.583  17.714  0.00  0.00    +0.000 A 
ATOM      5  N   UNL     1       3.740   6.375  18.378  0.00  0.00    +0.000 N 
ENDROOT
BRANCH   1  11
ATOM      6  C   UNL     1       1.067   4.113  17.377  0.00  0.00    +0.000 C 
ATOM      7  C   UNL     1       1.553   3.744  18.742  0.00  0.00    +0.000 A 
ATOM      8  C   UNL     1       0.892   2.792  19.589  0.00  0.00    +0.000 A 
ATOM      9  C   UNL     1       1.473   2.699  20.832  0.00  0.00    +0.000 A 
ATOM     10  S   UNL     1       2.689   3.884  21.036  0.00  0.00    +0.000 S 
ATOM     11  C   UNL     1       2.716   4.218  19.345  0.00  0.00    +0.000 A 
ENDBRANCH   1  11
BRANCH   5  12
ATOM     12  C   UNL     1       2.762   7.402  18.625  0.00  0.00    +0.000 A 
ATOM     13  C   UNL     1       2.146   7.525  19.885  0.00  0.00    +0.000 A 
ATOM     14  C   UNL     1       1.263   8.585  20.156  0.00  0.00    +0.000 A 
ATOM     15  C   UNL     1       1.017   9.544  19.178  0.00  0.00    +0.000 A 
ATOM     16  C   UNL     1       1.557   9.399  17.906  0.00  0.00    +0.000 A 
ATOM     17  C   UNL     1       2.382   8.306  17.626  0.00  0.00    +0.000 A 
BRANCH  15  18
ATOM     18  S   UNL     1      -0.062  10.909  19.515  0.00  0.00    +0.000 S 
ATOM     19  C   UNL     1      -1.396  10.688  18.363  0.00  0.00    +0.000 C 
ATOM     20  O   UNL     1      -0.600  10.727  20.851  0.00  0.00    +0.000 OA
ATOM     21  O   UNL     1       0.645  12.121  19.164  0.00  0.00    +0.000 OA
ENDBRANCH  15  18
ENDBRANCH   5  12
BRANCH   3  22
ATOM     22  C   UNL     1       7.076   5.158  17.322  0.00  0.00    +0.000 C 
ATOM     23  F   UNL     1       7.710   6.276  16.882  0.00  0.00    +0.000 F 
ATOM     24  F   UNL     1       7.851   4.624  18.302  0.00  0.00    +0.000 F 
ATOM     25  F   UNL     1       7.092   4.270  16.291  0.00  0.00    +0.000 F 
ENDBRANCH   3  22
TORSDOF 4
ENDMDL
MODEL 6
REMARK VINA RESULT:      -8.0      2.600      4.163
REMARK  Name = 
REMARK  6 active torsions:
REMARK  status: ('A' for Active; 'I' for Inactive)
REMARK    1  A    between atoms: C_1  and  C_2
REMARK    2  A    between atoms: C_6  and  C_7
REMARK    3  A    between atoms: C_9  and  C_10
REMARK    4  A    between atoms: N_15  and  C_16
REMARK    5  A    between atoms: C_19  and  S_20
REMARK    6  A    between atoms: S_20  and  C_21
REMARK                            x       y       z     vdW  Elec       q    Type
REMARK                         _______ _______ _______ _____ _____    ______ ____
ROOT
ATOM      1  C   UNL     1       3.695   5.006  18.734  0.00  0.00    +0.000 A 
ATOM      2  N   UNL     1       4.810   4.375  18.408  0.00  0.00    +0.000 NA
ATOM      3  C   UNL     1       5.603   5.271  17.729  0.00  0.00    +0.000 A 
ATOM      4  C   UNL     1       4.942   6.481  17.650  0.00  0.00    +0.000 A 
ATOM      5  N   UNL     1       3.758   6.363  18.366  0.00  0.00    +0.000 N 
ENDROOT
BRANCH   1  11
ATOM      6  C   UNL     1       1.017   4.022  17.437  0.00  0.00    +0.000 C 
ATOM      7  C   UNL     1       1.476   3.780  18.840  0.00  0.00    +0.000 A 
ATOM      8  C   UNL     1       0.787   2.924  19.762  0.00  0.00    +0.000 A 
ATOM      9  C   UNL     1       1.348   2.943  21.018  0.00  0.00    +0.000 A 
ATOM     10  S   UNL     1       2.579   4.124  21.128  0.00  0.00    +0.000 S 
ATOM     11  C   UNL     1       2.638   4.293  19.413  0.00  0.00    +0.000 A 
ENDBRANCH   1  11
BRANCH   5  12
ATOM     12  C   UNL     1       2.859   7.455  18.633  0.00  0.00    +0.000 A 
ATOM     13  C   UNL     1       2.593   8.428  17.651  0.00  0.00    +0.000 A 
ATOM     14  C   UNL     1       1.644   9.440  17.876  0.00  0.00    +0.000 A 
ATOM     15  C   UNL     1       0.934   9.464  19.073  0.00  0.00    +0.000 A 
ATOM     16  C   UNL     1       1.235   8.558  20.083  0.00  0.00    +0.000 A 
ATOM     17  C   UNL     1       2.227   7.596  19.874  0.00  0.00    +0.000 A 
BRANCH  15  18
ATOM     18  S   UNL     1      -0.295  10.709  19.359  0.00  0.00    +0.000 S 
ATOM     19  C   UNL     1      -1.625  10.247  18.277  0.00  0.00    +0.000 C 
ATOM     20  O   UNL     1      -0.765  10.559  20.724  0.00  0.00    +0.000 OA
ATOM     21  O   UNL     1       0.247  11.970  18.901  0.00  0.00    +0.000 OA
ENDBRANCH  15  18
ENDBRANCH   5  12
BRANCH   3  22
ATOM     22  C   UNL     1       6.962   4.914  17.199  0.00  0.00    +0.000 C 
ATOM     23  F   UNL     1       7.796   4.413  18.146  0.00  0.00    +0.000 F 
ATOM     24  F   UNL     1       6.885   3.986  16.208  0.00  0.00    +0.000 F 
ATOM     25  F   UNL     1       7.586   5.998  16.663  0.00  0.00    +0.000 F 
ENDBRANCH   3  22
TORSDOF 4
ENDMDL
MODEL 7
REMARK VINA RESULT:      -8.0      2.745      4.197
REMARK  Name = 
REMARK  6 active torsions:
REMARK  status: ('A' for Active; 'I' for Inactive)
REMARK    1  A    between atoms: C_1  and  C_2
REMARK    2  A    between atoms: C_6  and  C_7
REMARK    3  A    between atoms: C_9  and  C_10
REMARK    4  A    between atoms: N_15  and  C_16
REMARK    5  A    between atoms: C_19  and  S_20
REMARK    6  A    between atoms: S_20  and  C_21
REMARK                            x       y       z     vdW  Elec       q    Type
REMARK                         _______ _______ _______ _____ _____    ______ ____
ROOT
ATOM      1  C   UNL     1       3.655   4.432  17.844  0.00  0.00    +0.000 A 
ATOM      2  N   UNL     1       4.611   3.827  17.161  0.00  0.00    +0.000 NA
ATOM      3  C   UNL     1       5.274   4.795  16.443  0.00  0.00    +0.000 A 
ATOM      4  C   UNL     1       4.698   6.022  16.709  0.00  0.00    +0.000 A 
ATOM      5  N   UNL     1       3.719   5.827  17.674  0.00  0.00    +0.000 N 
ENDROOT
BRANCH   1  11
ATOM      6  C   UNL     1       4.479   2.437  20.116  0.00  0.00    +0.000 C 
ATOM      7  C   UNL     1       3.089   2.820  19.720  0.00  0.00    +0.000 A 
ATOM      8  C   UNL     1       1.918   2.411  20.442  0.00  0.00    +0.000 A 
ATOM      9  C   UNL     1       0.754   2.806  19.826  0.00  0.00    +0.000 A 
ATOM     10  S   UNL     1       1.070   3.502  18.296  0.00  0.00    +0.000 S 
ATOM     11  C   UNL     1       2.748   3.652  18.656  0.00  0.00    +0.000 A 
ENDBRANCH   1  11
BRANCH   5  12
ATOM     12  C   UNL     1       2.989   6.890  18.315  0.00  0.00    +0.000 A 
ATOM     13  C   UNL     1       2.651   8.062  17.610  0.00  0.00    +0.000 A 
ATOM     14  C   UNL     1       1.857   9.057  18.205  0.00  0.00    +0.000 A 
ATOM     15  C   UNL     1       1.371   8.871  19.495  0.00  0.00    +0.000 A 
ATOM     16  C   UNL     1       1.754   7.757  20.233  0.00  0.00    +0.000 A 
ATOM     17  C   UNL     1       2.597   6.804  19.656  0.00  0.00    +0.000 A 
BRANCH  15  18
ATOM     18  S   UNL     1       0.335  10.098  20.247  0.00  0.00    +0.000 S 
ATOM     19  C   UNL     1      -0.107   9.379  21.810  0.00  0.00    +0.000 C 
ATOM     20  O   UNL     1       1.157  11.264  20.515  0.00  0.00    +0.000 OA
ATOM     21  O   UNL     1      -0.863  10.209  19.443  0.00  0.00    +0.000 OA
ENDBRANCH  15  18
ENDBRANCH   5  12
BRANCH   3  22
ATOM     22  C   UNL     1       6.436   4.486  15.542  0.00  0.00    +0.000 C 
ATOM     23  F   UNL     1       7.611   4.346  16.207  0.00  0.00    +0.000 F 
ATOM     24  F   UNL     1       6.236   3.337  14.844  0.00  0.00    +0.000 F 
ATOM     25  F   UNL     1       6.623   5.470  14.620  0.00  0.00    +0.000 F 
ENDBRANCH   3  22
TORSDOF 4
ENDMDL
MODEL 8
REMARK VINA RESULT:      -8.0      2.771      4.395
REMARK  Name = 
REMARK  6 active torsions:
REMARK  status: ('A' for Active; 'I' for Inactive)
REMARK    1  A    between atoms: C_1  and  C_2
REMARK    2  A    between atoms: C_6  and  C_7
REMARK    3  A    between atoms: C_9  and  C_10
REMARK    4  A    between atoms: N_15  and  C_16
REMARK    5  A    between atoms: C_19  and  S_20
REMARK    6  A    between atoms: S_20  and  C_21
REMARK                            x       y       z     vdW  Elec       q    Type
REMARK                         _______ _______ _______ _____ _____    ______ ____
ROOT
ATOM      1  C   UNL     1       3.790   4.500  18.035  0.00  0.00    +0.000 A 
ATOM      2  N   UNL     1       4.854   3.929  17.496  0.00  0.00    +0.000 NA
ATOM      3  C   UNL     1       5.574   4.918  16.867  0.00  0.00    +0.000 A 
ATOM      4  C   UNL     1       4.921   6.124  17.040  0.00  0.00    +0.000 A 
ATOM      5  N   UNL     1       3.826   5.896  17.862  0.00  0.00    +0.000 N 
ENDROOT
BRANCH   1  11
ATOM      6  C   UNL     1       4.391   2.402  20.284  0.00  0.00    +0.000 C 
ATOM      7  C   UNL     1       3.045   2.810  19.774  0.00  0.00    +0.000 A 
ATOM      8  C   UNL     1       1.810   2.376  20.362  0.00  0.00    +0.000 A 
ATOM      9  C   UNL     1       0.711   2.805  19.655  0.00  0.00    +0.000 A 
ATOM     10  S   UNL     1       1.172   3.565  18.195  0.00  0.00    +0.000 S 
ATOM     11  C   UNL     1       2.809   3.691  18.721  0.00  0.00    +0.000 A 
ENDBRANCH   1  11
BRANCH   5  12
ATOM     12  C   UNL     1       2.976   6.934  18.385  0.00  0.00    +0.000 A 
ATOM     13  C   UNL     1       2.472   6.861  19.698  0.00  0.00    +0.000 A 
ATOM     14  C   UNL     1       1.722   7.918  20.242  0.00  0.00    +0.000 A 
ATOM     15  C   UNL     1       1.499   9.065  19.487  0.00  0.00    +0.000 A 
ATOM     16  C   UNL     1       1.923   9.125  18.165  0.00  0.00    +0.000 A 
ATOM     17  C   UNL     1       2.612   8.042  17.611  0.00  0.00    +0.000 A 
BRANCH  15  18
ATOM     18  S   UNL     1       0.588  10.424  20.170  0.00  0.00    +0.000 S 
ATOM     19  C   UNL     1       1.100  11.812  19.188  0.00  0.00    +0.000 C 
ATOM     20  O   UNL     1      -0.819  10.190  19.903  0.00  0.00    +0.000 OA
ATOM     21  O   UNL     1       1.058  10.626  21.524  0.00  0.00    +0.000 OA
ENDBRANCH  15  18
ENDBRANCH   5  12
BRANCH   3  22
ATOM     22  C   UNL     1       6.859   4.650  16.139  0.00  0.00    +0.000 C 
ATOM     23  F   UNL     1       7.365   5.746  15.518  0.00  0.00    +0.000 F 
ATOM     24  F   UNL     1       7.824   4.190  16.978  0.00  0.00    +0.000 F 
ATOM     25  F   UNL     1       6.697   3.698  15.180  0.00  0.00    +0.000 F 
ENDBRANCH   3  22
TORSDOF 4
ENDMDL
MODEL 9
REMARK VINA RESULT:      -8.0      2.810      4.308
REMARK  Name = 
REMARK  6 active torsions:
REMARK  status: ('A' for Active; 'I' for Inactive)
REMARK    1  A    between atoms: C_1  and  C_2
REMARK    2  A    between atoms: C_6  and  C_7
REMARK    3  A    between atoms: C_9  and  C_10
REMARK    4  A    between atoms: N_15  and  C_16
REMARK    5  A    between atoms: C_19  and  S_20
REMARK    6  A    between atoms: S_20  and  C_21
REMARK                            x       y       z     vdW  Elec       q    Type
REMARK                         _______ _______ _______ _____ _____    ______ ____
ROOT
ATOM      1  C   UNL     1       3.665   4.438  17.835  0.00  0.00    +0.000 A 
ATOM      2  N   UNL     1       4.623   3.832  17.155  0.00  0.00    +0.000 NA
ATOM      3  C   UNL     1       5.291   4.798  16.439  0.00  0.00    +0.000 A 
ATOM      4  C   UNL     1       4.715   6.026  16.704  0.00  0.00    +0.000 A 
ATOM      5  N   UNL     1       3.732   5.833  17.665  0.00  0.00    +0.000 N 
ENDROOT
BRANCH   1  11
ATOM      6  C   UNL     1       4.478   2.434  20.103  0.00  0.00    +0.000 C 
ATOM      7  C   UNL     1       3.090   2.823  19.705  0.00  0.00    +0.000 A 
ATOM      8  C   UNL     1       1.916   2.417  20.424  0.00  0.00    +0.000 A 
ATOM      9  C   UNL     1       0.755   2.818  19.807  0.00  0.00    +0.000 A 
ATOM     10  S   UNL     1       1.076   3.516  18.279  0.00  0.00    +0.000 S 
ATOM     11  C   UNL     1       2.754   3.660  18.643  0.00  0.00    +0.000 A 
ENDBRANCH   1  11
BRANCH   5  12
ATOM     12  C   UNL     1       3.002   6.897  18.303  0.00  0.00    +0.000 A 
ATOM     13  C   UNL     1       2.666   8.068  17.596  0.00  0.00    +0.000 A 
ATOM     14  C   UNL     1       1.871   9.064  18.188  0.00  0.00    +0.000 A 
ATOM     15  C   UNL     1       1.382   8.880  19.478  0.00  0.00    +0.000 A 
ATOM     16  C   UNL     1       1.763   7.767  20.217  0.00  0.00    +0.000 A 
ATOM     17  C   UNL     1       2.608   6.813  19.643  0.00  0.00    +0.000 A 
BRANCH  15  18
ATOM     18  S   UNL     1       0.346  10.109  20.226  0.00  0.00    +0.000 S 
ATOM     19  C   UNL     1      -0.858  10.467  18.971  0.00  0.00    +0.000 C 
ATOM     20  O   UNL     1      -0.348   9.483  21.336  0.00  0.00    +0.000 OA
ATOM     21  O   UNL     1       1.153  11.292  20.433  0.00  0.00    +0.000 OA
ENDBRANCH  15  18
ENDBRANCH   5  12
BRANCH   3  22
ATOM     22  C   UNL     1       6.455   4.488  15.543  0.00  0.00    +0.000 C 
ATOM     23  F   UNL     1       6.695   5.453  14.618  0.00  0.00    +0.000 F 
ATOM     24  F   UNL     1       7.603   4.324  16.251  0.00  0.00    +0.000 F 
ATOM     25  F   UNL     1       6.257   3.330  14.856  0.00  0.00    +0.000 F 
ENDBRANCH   3  22
TORSDOF 4
ENDMDL
