MODEL 1
REMARK VINA RESULT:      -6.8      0.000      0.000
REMARK  Name = 
REMARK  4 active torsions:
REMARK  status: ('A' for Active; 'I' for Inactive)
REMARK    1  A    between atoms: C_1  and  C_2
REMARK    2  A    between atoms: C_2  and  N_3
REMARK    3  A    between atoms: C_7  and  C_9
REMARK    4  A    between atoms: C_17  and  C_18
REMARK                            x       y       z     vdW  Elec       q    Type
REMARK                         _______ _______ _______ _____ _____    ______ ____
ROOT
ATOM      1  N   UNL     1       7.180   7.210  17.017  0.00  0.00    +0.000 NA
ATOM      2  C   UNL     1       7.866   6.191  17.852  0.00  0.00    +0.000 C 
ATOM      3  C   UNL     1       7.025   5.454  18.924  0.00  0.00    +0.000 C 
ATOM      4  N   UNL     1       5.640   5.155  18.532  0.00  0.00    +0.000 N 
ATOM      5  C   UNL     1       5.031   4.037  19.138  0.00  0.00    +0.000 C 
ATOM      6  O   UNL     1       5.662   3.315  19.911  0.00  0.00    +0.000 OA
ATOM      7  C   UNL     1       4.998   6.197  17.725  0.00  0.00    +0.000 C 
ATOM      8  C   UNL     1       5.876   6.657  16.522  0.00  0.00    +0.000 C 
ENDROOT
BRANCH   5   9
ATOM      9  C   UNL     1       3.593   3.688  18.885  0.00  0.00    +0.000 A 
ATOM     10  C   UNL     1       3.267   2.667  17.979  0.00  0.00    +0.000 A 
ATOM     11  C   UNL     1       1.949   2.235  17.806  0.00  0.00    +0.000 A 
ATOM     12  C   UNL     1       0.914   2.897  18.449  0.00  0.00    +0.000 A 
ATOM     13  C   UNL     1       1.200   4.002  19.249  0.00  0.00    +0.000 A 
ATOM     14  C   UNL     1       2.531   4.398  19.477  0.00  0.00    +0.000 A 
ATOM     15 CL   UNL     1       2.734   5.774  20.505  0.00  0.00    +0.000 Cl
ENDBRANCH   5   9
BRANCH   8  16
ATOM     16  C   UNL     1       6.009   5.530  15.473  0.00  0.00    +0.000 A 
ATOM     17  C   UNL     1       7.098   5.483  14.580  0.00  0.00    +0.000 A 
ATOM     18  C   UNL     1       7.161   4.535  13.560  0.00  0.00    +0.000 A 
ATOM     19  C   UNL     1       6.163   3.583  13.437  0.00  0.00    +0.000 A 
ATOM     20  C   UNL     1       5.124   3.559  14.361  0.00  0.00    +0.000 A 
ATOM     21  C   UNL     1       5.059   4.514  15.385  0.00  0.00    +0.000 A 
ENDBRANCH   8  16
BRANCH   1  23
ATOM     22  C   UNL     1       8.270   9.245  18.047  0.00  0.00    +0.000 C 
ATOM     23  C   UNL     1       6.978   8.490  17.724  0.00  0.00    +0.000 C 
ENDBRANCH   1  23
TORSDOF 3
ENDMDL
MODEL 2
REMARK VINA RESULT:      -6.4      0.086      1.003
REMARK  Name = 
REMARK  4 active torsions:
REMARK  status: ('A' for Active; 'I' for Inactive)
REMARK    1  A    between atoms: C_1  and  C_2
REMARK    2  A    between atoms: C_2  and  N_3
REMARK    3  A    between atoms: C_7  and  C_9
REMARK    4  A    between atoms: C_17  and  C_18
REMARK                            x       y       z     vdW  Elec       q    Type
REMARK                         _______ _______ _______ _____ _____    ______ ____
ROOT
ATOM      1  N   UNL     1       7.143   7.248  17.018  0.00  0.00    +0.000 NA
ATOM      2  C   UNL     1       7.841   6.211  17.822  0.00  0.00    +0.000 C 
ATOM      3  C   UNL     1       7.019   5.458  18.896  0.00  0.00    +0.000 C 
ATOM      4  N   UNL     1       5.625   5.169  18.526  0.00  0.00    +0.000 N 
ATOM      5  C   UNL     1       5.024   4.043  19.124  0.00  0.00    +0.000 C 
ATOM      6  O   UNL     1       5.668   3.305  19.871  0.00  0.00    +0.000 OA
ATOM      7  C   UNL     1       4.971   6.228  17.750  0.00  0.00    +0.000 C 
ATOM      8  C   UNL     1       5.828   6.706  16.539  0.00  0.00    +0.000 C 
ENDROOT
BRANCH   5   9
ATOM      9  C   UNL     1       3.581   3.702  18.892  0.00  0.00    +0.000 A 
ATOM     10  C   UNL     1       3.234   2.701  17.971  0.00  0.00    +0.000 A 
ATOM     11  C   UNL     1       1.912   2.276  17.815  0.00  0.00    +0.000 A 
ATOM     12  C   UNL     1       0.892   2.926  18.493  0.00  0.00    +0.000 A 
ATOM     13  C   UNL     1       1.197   4.014  19.310  0.00  0.00    +0.000 A 
ATOM     14  C   UNL     1       2.533   4.402  19.520  0.00  0.00    +0.000 A 
ATOM     15 CL   UNL     1       2.759   5.756  20.572  0.00  0.00    +0.000 Cl
ENDBRANCH   5   9
BRANCH   8  16
ATOM     16  C   UNL     1       5.937   5.599  15.468  0.00  0.00    +0.000 A 
ATOM     17  C   UNL     1       4.990   4.558  15.387  0.00  0.00    +0.000 A 
ATOM     18  C   UNL     1       5.149   3.498  14.497  0.00  0.00    +0.000 A 
ATOM     19  C   UNL     1       6.231   3.475  13.633  0.00  0.00    +0.000 A 
ATOM     20  C   UNL     1       7.131   4.535  13.637  0.00  0.00    +0.000 A 
ATOM     21  C   UNL     1       6.973   5.600  14.535  0.00  0.00    +0.000 A 
ENDBRANCH   8  16
BRANCH   1  23
ATOM     22  C   UNL     1       8.258   9.261  18.062  0.00  0.00    +0.000 C 
ATOM     23  C   UNL     1       6.958   8.515  17.752  0.00  0.00    +0.000 C 
ENDBRANCH   1  23
TORSDOF 3
ENDMDL
MODEL 3
REMARK VINA RESULT:      -6.3      1.133      1.511
REMARK  Name = 
REMARK  4 active torsions:
REMARK  status: ('A' for Active; 'I' for Inactive)
REMARK    1  A    between atoms: C_1  and  C_2
REMARK    2  A    between atoms: C_2  and  N_3
REMARK    3  A    between atoms: C_7  and  C_9
REMARK    4  A    between atoms: C_17  and  C_18
REMARK                            x       y       z     vdW  Elec       q    Type
REMARK                         _______ _______ _______ _____ _____    ______ ____
ROOT
ATOM      1  N   UNL     1       7.182   7.219  17.067  0.00  0.00    +0.000 NA
ATOM      2  C   UNL     1       7.860   6.195  17.903  0.00  0.00    +0.000 C 
ATOM      3  C   UNL     1       7.029   5.509  19.015  0.00  0.00    +0.000 C 
ATOM      4  N   UNL     1       5.623   5.248  18.673  0.00  0.00    +0.000 N 
ATOM      5  C   UNL     1       4.997   4.164  19.321  0.00  0.00    +0.000 C 
ATOM      6  O   UNL     1       5.627   3.437  20.089  0.00  0.00    +0.000 OA
ATOM      7  C   UNL     1       4.991   6.294  17.863  0.00  0.00    +0.000 C 
ATOM      8  C   UNL     1       5.846   6.699  16.624  0.00  0.00    +0.000 C 
ENDROOT
BRANCH   5   9
ATOM      9  C   UNL     1       3.541   3.858  19.119  0.00  0.00    +0.000 A 
ATOM     10  C   UNL     1       2.565   4.622  19.777  0.00  0.00    +0.000 A 
ATOM     11  C   UNL     1       1.202   4.444  19.523  0.00  0.00    +0.000 A 
ATOM     12  C   UNL     1       0.782   3.415  18.693  0.00  0.00    +0.000 A 
ATOM     13  C   UNL     1       1.727   2.556  18.135  0.00  0.00    +0.000 A 
ATOM     14  C   UNL     1       3.102   2.773  18.336  0.00  0.00    +0.000 A 
ATOM     15 CL   UNL     1       4.157   1.638  17.567  0.00  0.00    +0.000 Cl
ENDBRANCH   5   9
BRANCH   8  16
ATOM     16  C   UNL     1       5.909   5.548  15.596  0.00  0.00    +0.000 A 
ATOM     17  C   UNL     1       6.973   5.440  14.679  0.00  0.00    +0.000 A 
ATOM     18  C   UNL     1       6.975   4.470  13.677  0.00  0.00    +0.000 A 
ATOM     19  C   UNL     1       5.938   3.555  13.599  0.00  0.00    +0.000 A 
ATOM     20  C   UNL     1       4.921   3.591  14.547  0.00  0.00    +0.000 A 
ATOM     21  C   UNL     1       4.919   4.568  15.551  0.00  0.00    +0.000 A 
ENDBRANCH   8  16
BRANCH   1  23
ATOM     22  C   UNL     1       8.372   9.183  18.122  0.00  0.00    +0.000 C 
ATOM     23  C   UNL     1       7.044   8.519  17.752  0.00  0.00    +0.000 C 
ENDBRANCH   1  23
TORSDOF 3
ENDMDL
MODEL 4
REMARK VINA RESULT:      -6.2      2.569      4.256
REMARK  Name = 
REMARK  4 active torsions:
REMARK  status: ('A' for Active; 'I' for Inactive)
REMARK    1  A    between atoms: C_1  and  C_2
REMARK    2  A    between atoms: C_2  and  N_3
REMARK    3  A    between atoms: C_7  and  C_9
REMARK    4  A    between atoms: C_17  and  C_18
REMARK                            x       y       z     vdW  Elec       q    Type
REMARK                         _______ _______ _______ _____ _____    ______ ____
ROOT
ATOM      1  N   UNL     1       5.738   6.717  16.968  0.00  0.00    +0.000 NA
ATOM      2  C   UNL     1       4.989   5.963  15.930  0.00  0.00    +0.000 C 
ATOM      3  C   UNL     1       4.470   4.551  16.299  0.00  0.00    +0.000 C 
ATOM      4  N   UNL     1       3.997   4.403  17.683  0.00  0.00    +0.000 N 
ATOM      5  C   UNL     1       3.014   3.421  17.923  0.00  0.00    +0.000 C 
ATOM      6  O   UNL     1       2.536   2.767  16.995  0.00  0.00    +0.000 OA
ATOM      7  C   UNL     1       4.777   5.150  18.675  0.00  0.00    +0.000 C 
ATOM      8  C   UNL     1       4.999   6.640  18.272  0.00  0.00    +0.000 C 
ENDROOT
BRANCH   5   9
ATOM      9  C   UNL     1       2.522   3.118  19.308  0.00  0.00    +0.000 A 
ATOM     10  C   UNL     1       1.283   3.619  19.738  0.00  0.00    +0.000 A 
ATOM     11  C   UNL     1       0.739   3.262  20.975  0.00  0.00    +0.000 A 
ATOM     12  C   UNL     1       1.478   2.490  21.858  0.00  0.00    +0.000 A 
ATOM     13  C   UNL     1       2.767   2.092  21.508  0.00  0.00    +0.000 A 
ATOM     14  C   UNL     1       3.291   2.394  20.238  0.00  0.00    +0.000 A 
ATOM     15 CL   UNL     1       4.895   1.822  19.939  0.00  0.00    +0.000 Cl
ENDBRANCH   5   9
BRANCH   8  16
ATOM     16  C   UNL     1       3.670   7.426  18.309  0.00  0.00    +0.000 A 
ATOM     17  C   UNL     1       3.394   8.448  17.378  0.00  0.00    +0.000 A 
ATOM     18  C   UNL     1       2.248   9.234  17.480  0.00  0.00    +0.000 A 
ATOM     19  C   UNL     1       1.326   8.988  18.483  0.00  0.00    +0.000 A 
ATOM     20  C   UNL     1       1.537   7.929  19.360  0.00  0.00    +0.000 A 
ATOM     21  C   UNL     1       2.691   7.141  19.260  0.00  0.00    +0.000 A 
ENDBRANCH   8  16
BRANCH   1  23
ATOM     22  C   UNL     1       7.906   6.942  18.248  0.00  0.00    +0.000 C 
ATOM     23  C   UNL     1       7.131   6.255  17.121  0.00  0.00    +0.000 C 
ENDBRANCH   1  23
TORSDOF 3
ENDMDL
MODEL 5
REMARK VINA RESULT:      -6.1      1.145      1.816
REMARK  Name = 
REMARK  4 active torsions:
REMARK  status: ('A' for Active; 'I' for Inactive)
REMARK    1  A    between atoms: C_1  and  C_2
REMARK    2  A    between atoms: C_2  and  N_3
REMARK    3  A    between atoms: C_7  and  C_9
REMARK    4  A    between atoms: C_17  and  C_18
REMARK                            x       y       z     vdW  Elec       q    Type
REMARK                         _______ _______ _______ _____ _____    ______ ____
ROOT
ATOM      1  N   UNL     1       7.146   7.226  17.084  0.00  0.00    +0.000 NA
ATOM      2  C   UNL     1       7.836   6.185  17.889  0.00  0.00    +0.000 C 
ATOM      3  C   UNL     1       7.025   5.487  19.009  0.00  0.00    +0.000 C 
ATOM      4  N   UNL     1       5.611   5.239  18.694  0.00  0.00    +0.000 N 
ATOM      5  C   UNL     1       4.992   4.150  19.340  0.00  0.00    +0.000 C 
ATOM      6  O   UNL     1       5.635   3.408  20.083  0.00  0.00    +0.000 OA
ATOM      7  C   UNL     1       4.967   6.302  17.915  0.00  0.00    +0.000 C 
ATOM      8  C   UNL     1       5.797   6.720  16.663  0.00  0.00    +0.000 C 
ENDROOT
BRANCH   5   9
ATOM      9  C   UNL     1       3.531   3.855  19.166  0.00  0.00    +0.000 A 
ATOM     10  C   UNL     1       2.571   4.654  19.808  0.00  0.00    +0.000 A 
ATOM     11  C   UNL     1       1.204   4.483  19.577  0.00  0.00    +0.000 A 
ATOM     12  C   UNL     1       0.761   3.432  18.788  0.00  0.00    +0.000 A 
ATOM     13  C   UNL     1       1.689   2.542  18.249  0.00  0.00    +0.000 A 
ATOM     14  C   UNL     1       3.070   2.750  18.426  0.00  0.00    +0.000 A 
ATOM     15 CL   UNL     1       4.101   1.575  17.686  0.00  0.00    +0.000 Cl
ENDBRANCH   5   9
BRANCH   8  16
ATOM     16  C   UNL     1       5.830   5.584  15.617  0.00  0.00    +0.000 A 
ATOM     17  C   UNL     1       4.897   4.528  15.649  0.00  0.00    +0.000 A 
ATOM     18  C   UNL     1       4.996   3.445  14.778  0.00  0.00    +0.000 A 
ATOM     19  C   UNL     1       5.998   3.413  13.823  0.00  0.00    +0.000 A 
ATOM     20  C   UNL     1       6.877   4.486  13.718  0.00  0.00    +0.000 A 
ATOM     21  C   UNL     1       6.780   5.574  14.597  0.00  0.00    +0.000 A 
ENDBRANCH   8  16
BRANCH   1  23
ATOM     22  C   UNL     1       8.370   9.180  18.119  0.00  0.00    +0.000 C 
ATOM     23  C   UNL     1       7.030   8.516  17.791  0.00  0.00    +0.000 C 
ENDBRANCH   1  23
TORSDOF 3
ENDMDL
MODEL 6
REMARK VINA RESULT:      -6.0      2.351      6.019
REMARK  Name = 
REMARK  4 active torsions:
REMARK  status: ('A' for Active; 'I' for Inactive)
REMARK    1  A    between atoms: C_1  and  C_2
REMARK    2  A    between atoms: C_2  and  N_3
REMARK    3  A    between atoms: C_7  and  C_9
REMARK    4  A    between atoms: C_17  and  C_18
REMARK                            x       y       z     vdW  Elec       q    Type
REMARK                         _______ _______ _______ _____ _____    ______ ____
ROOT
ATOM      1  N   UNL     1       1.738   3.802  20.246  0.00  0.00    +0.000 NA
ATOM      2  C   UNL     1       3.017   3.925  20.992  0.00  0.00    +0.000 C 
ATOM      3  C   UNL     1       4.326   3.584  20.238  0.00  0.00    +0.000 C 
ATOM      4  N   UNL     1       4.354   3.984  18.823  0.00  0.00    +0.000 N 
ATOM      5  C   UNL     1       5.616   4.257  18.259  0.00  0.00    +0.000 C 
ATOM      6  O   UNL     1       6.637   4.222  18.947  0.00  0.00    +0.000 OA
ATOM      7  C   UNL     1       3.074   3.827  18.123  0.00  0.00    +0.000 C 
ATOM      8  C   UNL     1       1.879   4.455  18.902  0.00  0.00    +0.000 C 
ENDROOT
BRANCH   5   9
ATOM      9  C   UNL     1       5.776   4.586  16.803  0.00  0.00    +0.000 A 
ATOM     10  C   UNL     1       5.941   3.556  15.864  0.00  0.00    +0.000 A 
ATOM     11  C   UNL     1       5.974   3.815  14.491  0.00  0.00    +0.000 A 
ATOM     12  C   UNL     1       5.963   5.125  14.034  0.00  0.00    +0.000 A 
ATOM     13  C   UNL     1       5.936   6.171  14.954  0.00  0.00    +0.000 A 
ATOM     14  C   UNL     1       5.836   5.912  16.334  0.00  0.00    +0.000 A 
ATOM     15 CL   UNL     1       5.795   7.308  17.353  0.00  0.00    +0.000 Cl
ENDBRANCH   5   9
BRANCH   8  16
ATOM     16  C   UNL     1       1.992   5.995  18.941  0.00  0.00    +0.000 A 
ATOM     17  C   UNL     1       1.765   6.719  20.129  0.00  0.00    +0.000 A 
ATOM     18  C   UNL     1       1.754   8.112  20.140  0.00  0.00    +0.000 A 
ATOM     19  C   UNL     1       2.017   8.816  18.977  0.00  0.00    +0.000 A 
ATOM     20  C   UNL     1       2.327   8.122  17.812  0.00  0.00    +0.000 A 
ATOM     21  C   UNL     1       2.335   6.720  17.801  0.00  0.00    +0.000 A 
ENDBRANCH   8  16
BRANCH   1  23
ATOM     22  C   UNL     1       0.507   2.113  18.826  0.00  0.00    +0.000 C 
ATOM     23  C   UNL     1       1.285   2.404  20.111  0.00  0.00    +0.000 C 
ENDBRANCH   1  23
TORSDOF 3
ENDMDL
MODEL 7
REMARK VINA RESULT:      -6.0      9.421     10.920
REMARK  Name = 
REMARK  4 active torsions:
REMARK  status: ('A' for Active; 'I' for Inactive)
REMARK    1  A    between atoms: C_1  and  C_2
REMARK    2  A    between atoms: C_2  and  N_3
REMARK    3  A    between atoms: C_7  and  C_9
REMARK    4  A    between atoms: C_17  and  C_18
REMARK                            x       y       z     vdW  Elec       q    Type
REMARK                         _______ _______ _______ _____ _____    ______ ____
ROOT
ATOM      1  N   UNL     1       0.810  11.693  19.072  0.00  0.00    +0.000 NA
ATOM      2  C   UNL     1       0.764  10.609  20.087  0.00  0.00    +0.000 C 
ATOM      3  C   UNL     1       0.223  10.963  21.495  0.00  0.00    +0.000 C 
ATOM      4  N   UNL     1      -0.889  11.924  21.513  0.00  0.00    +0.000 N 
ATOM      5  C   UNL     1      -1.785  11.847  22.599  0.00  0.00    +0.000 C 
ATOM      6  O   UNL     1      -1.667  10.969  23.454  0.00  0.00    +0.000 OA
ATOM      7  C   UNL     1      -0.790  12.986  20.507  0.00  0.00    +0.000 C 
ATOM      8  C   UNL     1      -0.492  12.440  19.078  0.00  0.00    +0.000 C 
ENDROOT
BRANCH   5   9
ATOM      9  C   UNL     1      -2.904  12.832  22.770  0.00  0.00    +0.000 A 
ATOM     10  C   UNL     1      -4.144  12.601  22.154  0.00  0.00    +0.000 A 
ATOM     11  C   UNL     1      -5.243  13.433  22.387  0.00  0.00    +0.000 A 
ATOM     12  C   UNL     1      -5.092  14.582  23.147  0.00  0.00    +0.000 A 
ATOM     13  C   UNL     1      -3.836  14.906  23.658  0.00  0.00    +0.000 A 
ATOM     14  C   UNL     1      -2.743  14.037  23.481  0.00  0.00    +0.000 A 
ATOM     15 CL   UNL     1      -1.253  14.560  24.184  0.00  0.00    +0.000 Cl
ENDBRANCH   5   9
BRANCH   8  16
ATOM     16  C   UNL     1      -1.695  11.643  18.528  0.00  0.00    +0.000 A 
ATOM     17  C   UNL     1      -1.514  10.489  17.739  0.00  0.00    +0.000 A 
ATOM     18  C   UNL     1      -2.594   9.835  17.148  0.00  0.00    +0.000 A 
ATOM     19  C   UNL     1      -3.884  10.289  17.370  0.00  0.00    +0.000 A 
ATOM     20  C   UNL     1      -4.091  11.374  18.215  0.00  0.00    +0.000 A 
ATOM     21  C   UNL     1      -3.004  12.033  18.806  0.00  0.00    +0.000 A 
ENDBRANCH   8  16
BRANCH   1  23
ATOM     22  C   UNL     1       2.610  13.084  17.970  0.00  0.00    +0.000 C 
ATOM     23  C   UNL     1       1.948  12.612  19.267  0.00  0.00    +0.000 C 
ENDBRANCH   1  23
TORSDOF 3
ENDMDL
MODEL 8
REMARK VINA RESULT:      -5.9      9.408     10.921
REMARK  Name = 
REMARK  4 active torsions:
REMARK  status: ('A' for Active; 'I' for Inactive)
REMARK    1  A    between atoms: C_1  and  C_2
REMARK    2  A    between atoms: C_2  and  N_3
REMARK    3  A    between atoms: C_7  and  C_9
REMARK    4  A    between atoms: C_17  and  C_18
REMARK                            x       y       z     vdW  Elec       q    Type
REMARK                         _______ _______ _______ _____ _____    ______ ____
ROOT
ATOM      1  N   UNL     1       0.872  11.710  19.055  0.00  0.00    +0.000 NA
ATOM      2  C   UNL     1       0.804  10.617  20.059  0.00  0.00    +0.000 C 
ATOM      3  C   UNL     1       0.246  10.962  21.462  0.00  0.00    +0.000 C 
ATOM      4  N   UNL     1      -0.861  11.930  21.472  0.00  0.00    +0.000 N 
ATOM      5  C   UNL     1      -1.772  11.849  22.545  0.00  0.00    +0.000 C 
ATOM      6  O   UNL     1      -1.672  10.963  23.394  0.00  0.00    +0.000 OA
ATOM      7  C   UNL     1      -0.741  13.000  20.477  0.00  0.00    +0.000 C 
ATOM      8  C   UNL     1      -0.425  12.465  19.048  0.00  0.00    +0.000 C 
ENDROOT
BRANCH   5   9
ATOM      9  C   UNL     1      -2.888  12.840  22.709  0.00  0.00    +0.000 A 
ATOM     10  C   UNL     1      -4.119  12.623  22.070  0.00  0.00    +0.000 A 
ATOM     11  C   UNL     1      -5.216  13.460  22.294  0.00  0.00    +0.000 A 
ATOM     12  C   UNL     1      -5.070  14.600  23.070  0.00  0.00    +0.000 A 
ATOM     13  C   UNL     1      -3.821  14.909  23.605  0.00  0.00    +0.000 A 
ATOM     14  C   UNL     1      -2.731  14.035  23.436  0.00  0.00    +0.000 A 
ATOM     15 CL   UNL     1      -1.249  14.541  24.169  0.00  0.00    +0.000 Cl
ENDBRANCH   5   9
BRANCH   8  16
ATOM     16  C   UNL     1      -1.626  11.680  18.474  0.00  0.00    +0.000 A 
ATOM     17  C   UNL     1      -2.953  12.076  18.732  0.00  0.00    +0.000 A 
ATOM     18  C   UNL     1      -4.037  11.306  18.312  0.00  0.00    +0.000 A 
ATOM     19  C   UNL     1      -3.821  10.149  17.582  0.00  0.00    +0.000 A 
ATOM     20  C   UNL     1      -2.522   9.786  17.242  0.00  0.00    +0.000 A 
ATOM     21  C   UNL     1      -1.434  10.559  17.668  0.00  0.00    +0.000 A 
ENDBRANCH   8  16
BRANCH   1  23
ATOM     22  C   UNL     1       2.363  13.498  18.070  0.00  0.00    +0.000 C 
ATOM     23  C   UNL     1       2.013  12.620  19.274  0.00  0.00    +0.000 C 
ENDBRANCH   1  23
TORSDOF 3
ENDMDL
MODEL 9
REMARK VINA RESULT:      -5.9      9.666     11.445
REMARK  Name = 
REMARK  4 active torsions:
REMARK  status: ('A' for Active; 'I' for Inactive)
REMARK    1  A    between atoms: C_1  and  C_2
REMARK    2  A    between atoms: C_2  and  N_3
REMARK    3  A    between atoms: C_7  and  C_9
REMARK    4  A    between atoms: C_17  and  C_18
REMARK                            x       y       z     vdW  Elec       q    Type
REMARK                         _______ _______ _______ _____ _____    ______ ____
ROOT
ATOM      1  N   UNL     1      -1.581  13.811  22.290  0.00  0.00    +0.000 NA
ATOM      2  C   UNL     1      -2.962  13.378  22.624  0.00  0.00    +0.000 C 
ATOM      3  C   UNL     1      -3.955  13.172  21.453  0.00  0.00    +0.000 C 
ATOM      4  N   UNL     1      -3.369  12.602  20.231  0.00  0.00    +0.000 N 
ATOM      5  C   UNL     1      -4.227  11.862  19.394  0.00  0.00    +0.000 C 
ATOM      6  O   UNL     1      -5.398  11.653  19.715  0.00  0.00    +0.000 OA
ATOM      7  C   UNL     1      -2.012  13.073  19.932  0.00  0.00    +0.000 C 
ATOM      8  C   UNL     1      -1.055  12.977  21.159  0.00  0.00    +0.000 C 
ENDROOT
BRANCH   5   9
ATOM      9  C   UNL     1      -3.764  11.310  18.078  0.00  0.00    +0.000 A 
ATOM     10  C   UNL     1      -2.601  10.525  18.015  0.00  0.00    +0.000 A 
ATOM     11  C   UNL     1      -2.205   9.898  16.830  0.00  0.00    +0.000 A 
ATOM     12  C   UNL     1      -2.899  10.140  15.654  0.00  0.00    +0.000 A 
ATOM     13  C   UNL     1      -3.977  11.023  15.664  0.00  0.00    +0.000 A 
ATOM     14  C   UNL     1      -4.418  11.604  16.867  0.00  0.00    +0.000 A 
ATOM     15 CL   UNL     1      -5.777  12.665  16.727  0.00  0.00    +0.000 Cl
ENDBRANCH   5   9
BRANCH   8  16
ATOM     16  C   UNL     1      -0.768  11.503  21.522  0.00  0.00    +0.000 A 
ATOM     17  C   UNL     1      -0.892  11.035  22.846  0.00  0.00    +0.000 A 
ATOM     18  C   UNL     1      -0.525   9.737  23.195  0.00  0.00    +0.000 A 
ATOM     19  C   UNL     1      -0.071   8.860  22.224  0.00  0.00    +0.000 A 
ATOM     20  C   UNL     1      -0.023   9.276  20.897  0.00  0.00    +0.000 A 
ATOM     21  C   UNL     1      -0.389  10.582  20.547  0.00  0.00    +0.000 A 
ENDBRANCH   8  16
BRANCH   1  23
ATOM     22  C   UNL     1      -1.577  16.172  23.192  0.00  0.00    +0.000 C 
ATOM     23  C   UNL     1      -1.491  15.250  21.973  0.00  0.00    +0.000 C 
ENDBRANCH   1  23
TORSDOF 3
ENDMDL
