MODEL 1
REMARK VINA RESULT:      -6.7      0.000      0.000
REMARK  Name = 
REMARK  9 active torsions:
REMARK  status: ('A' for Active; 'I' for Inactive)
REMARK    1  A    between atoms: C_1  and  O_2
REMARK    2  A    between atoms: O_2  and  C_3
REMARK    3  A    between atoms: C_5  and  C_6
REMARK    4  A    between atoms: C_14  and  C_15
REMARK    5  A    between atoms: N_17  and  C_18
REMARK    6  A    between atoms: C_25  and  O_26
REMARK    7  A    between atoms: O_26  and  C_27
REMARK    8  A    between atoms: C_28  and  O_29
REMARK    9  A    between atoms: O_29  and  C_30
REMARK                            x       y       z     vdW  Elec       q    Type
REMARK                         _______ _______ _______ _____ _____    ______ ____
ROOT
ATOM      1  C   UNL     1      -0.032  11.693  20.942  0.00  0.00    +0.000 C 
ATOM      2  S   UNL     1       1.335  12.857  20.822  0.00  0.00    +0.000 S 
ATOM      3  C   UNL     1       1.586  12.907  19.052  0.00  0.00    +0.000 C 
ATOM      4  C   UNL     1       1.933  11.649  18.312  0.00  0.00    +0.000 C 
ATOM      5  O   UNL     1       2.355  11.714  17.163  0.00  0.00    +0.000 OA
ATOM      6  N   UNL     1       1.855  10.302  18.768  0.00  0.00    +0.000 N 
ATOM      7  C   UNL     1       1.333   9.730  19.916  0.00  0.00    +0.000 A 
ATOM      8  C   UNL     1       0.500  10.307  20.866  0.00  0.00    +0.000 A 
ATOM      9  C   UNL     1       0.172   9.232  21.753  0.00  0.00    +0.000 A 
ATOM     10  C   UNL     1      -0.636   9.235  23.001  0.00  0.00    +0.000 C 
ATOM     11  N   UNL     1       0.620   8.063  21.290  0.00  0.00    +0.000 NA
ATOM     12  N   UNL     1       1.413   8.377  20.246  0.00  0.00    +0.000 N 
ATOM     13  H   UNL     1       2.221   9.667  18.064  0.00  0.00    +0.000 HD
ENDROOT
BRANCH   1  16
ATOM     14  C   UNL     1      -2.678  10.855  18.254  0.00  0.00    +0.000 A 
ATOM     15  C   UNL     1      -1.431  11.007  18.886  0.00  0.00    +0.000 A 
ATOM     16  C   UNL     1      -1.239  11.832  20.009  0.00  0.00    +0.000 A 
ATOM     17  C   UNL     1      -2.331  12.632  20.373  0.00  0.00    +0.000 A 
ATOM     18  C   UNL     1      -3.572  12.548  19.711  0.00  0.00    +0.000 A 
ATOM     19  C   UNL     1      -3.771  11.638  18.654  0.00  0.00    +0.000 A 
BRANCH  14  21
ATOM     20  C   UNL     1      -2.620  10.504  15.905  0.00  0.00    +0.000 C 
ATOM     21  O   UNL     1      -2.807   9.968  17.216  0.00  0.00    +0.000 OA
ENDBRANCH  14  21
BRANCH  18  22
ATOM     22  O   UNL     1      -4.501  13.434  20.202  0.00  0.00    +0.000 OA
ATOM     23  C   UNL     1      -5.211  13.007  21.361  0.00  0.00    +0.000 C 
ENDBRANCH  18  22
BRANCH  19  24
ATOM     24  O   UNL     1      -5.011  11.634  18.070  0.00  0.00    +0.000 OA
ATOM     25  C   UNL     1      -5.983  10.703  18.534  0.00  0.00    +0.000 C 
ENDBRANCH  19  24
ENDBRANCH   1  16
BRANCH  12  26
ATOM     26  C   UNL     1       2.147   7.361  19.581  0.00  0.00    +0.000 A 
ATOM     27  C   UNL     1       2.225   6.085  20.160  0.00  0.00    +0.000 A 
ATOM     28  C   UNL     1       2.915   5.067  19.503  0.00  0.00    +0.000 A 
ATOM     29  C   UNL     1       3.559   5.327  18.294  0.00  0.00    +0.000 A 
ATOM     30  C   UNL     1       3.511   6.605  17.735  0.00  0.00    +0.000 A 
ATOM     31  C   UNL     1       2.798   7.625  18.371  0.00  0.00    +0.000 A 
ENDBRANCH  12  26
TORSDOF 5
ENDMDL
MODEL 2
REMARK VINA RESULT:      -6.7      3.915      5.158
REMARK  Name = 
REMARK  9 active torsions:
REMARK  status: ('A' for Active; 'I' for Inactive)
REMARK    1  A    between atoms: C_1  and  O_2
REMARK    2  A    between atoms: O_2  and  C_3
REMARK    3  A    between atoms: C_5  and  C_6
REMARK    4  A    between atoms: C_14  and  C_15
REMARK    5  A    between atoms: N_17  and  C_18
REMARK    6  A    between atoms: C_25  and  O_26
REMARK    7  A    between atoms: O_26  and  C_27
REMARK    8  A    between atoms: C_28  and  O_29
REMARK    9  A    between atoms: O_29  and  C_30
REMARK                            x       y       z     vdW  Elec       q    Type
REMARK                         _______ _______ _______ _____ _____    ______ ____
ROOT
ATOM      1  C   UNL     1      -2.597  13.139  23.279  0.00  0.00    +0.000 C 
ATOM      2  S   UNL     1      -2.427  14.584  24.339  0.00  0.00    +0.000 S 
ATOM      3  C   UNL     1      -2.664  15.904  23.157  0.00  0.00    +0.000 C 
ATOM      4  C   UNL     1      -1.735  16.030  21.985  0.00  0.00    +0.000 C 
ATOM      5  O   UNL     1      -1.726  17.063  21.323  0.00  0.00    +0.000 OA
ATOM      6  N   UNL     1      -0.792  15.083  21.494  0.00  0.00    +0.000 N 
ATOM      7  C   UNL     1      -0.534  13.763  21.821  0.00  0.00    +0.000 A 
ATOM      8  C   UNL     1      -1.308  12.894  22.580  0.00  0.00    +0.000 A 
ATOM      9  C   UNL     1      -0.631  11.636  22.483  0.00  0.00    +0.000 A 
ATOM     10  C   UNL     1      -0.941  10.332  23.128  0.00  0.00    +0.000 C 
ATOM     11  N   UNL     1       0.368  11.686  21.601  0.00  0.00    +0.000 NA
ATOM     12  N   UNL     1       0.499  12.991  21.288  0.00  0.00    +0.000 N 
ATOM     13  H   UNL     1      -0.259  15.478  20.725  0.00  0.00    +0.000 HD
ENDROOT
BRANCH   1  16
ATOM     14  C   UNL     1      -4.581  12.331  20.064  0.00  0.00    +0.000 A 
ATOM     15  C   UNL     1      -3.552  12.780  20.909  0.00  0.00    +0.000 A 
ATOM     16  C   UNL     1      -3.751  13.059  22.274  0.00  0.00    +0.000 A 
ATOM     17  C   UNL     1      -5.079  13.022  22.718  0.00  0.00    +0.000 A 
ATOM     18  C   UNL     1      -6.139  12.641  21.871  0.00  0.00    +0.000 A 
ATOM     19  C   UNL     1      -5.902  12.266  20.534  0.00  0.00    +0.000 A 
BRANCH  14  21
ATOM     20  C   UNL     1      -2.931  11.674  18.485  0.00  0.00    +0.000 C 
ATOM     21  O   UNL     1      -4.294  11.999  18.765  0.00  0.00    +0.000 OA
ENDBRANCH  14  21
BRANCH  18  22
ATOM     22  O   UNL     1      -7.365  12.696  22.491  0.00  0.00    +0.000 OA
ATOM     23  C   UNL     1      -7.335  12.843  23.908  0.00  0.00    +0.000 C 
ENDBRANCH  18  22
BRANCH  19  24
ATOM     24  O   UNL     1      -6.997  11.916  19.789  0.00  0.00    +0.000 OA
ATOM     25  C   UNL     1      -7.621  12.908  18.981  0.00  0.00    +0.000 C 
ENDBRANCH  19  24
ENDBRANCH   1  16
BRANCH  12  26
ATOM     26  C   UNL     1       1.556  13.417  20.444  0.00  0.00    +0.000 A 
ATOM     27  C   UNL     1       1.473  13.166  19.066  0.00  0.00    +0.000 A 
ATOM     28  C   UNL     1       2.489  13.606  18.218  0.00  0.00    +0.000 A 
ATOM     29  C   UNL     1       3.603  14.258  18.743  0.00  0.00    +0.000 A 
ATOM     30  C   UNL     1       3.703  14.478  20.118  0.00  0.00    +0.000 A 
ATOM     31  C   UNL     1       2.677  14.066  20.973  0.00  0.00    +0.000 A 
ENDBRANCH  12  26
TORSDOF 5
ENDMDL
MODEL 3
REMARK VINA RESULT:      -6.6      3.633      6.904
REMARK  Name = 
REMARK  9 active torsions:
REMARK  status: ('A' for Active; 'I' for Inactive)
REMARK    1  A    between atoms: C_1  and  O_2
REMARK    2  A    between atoms: O_2  and  C_3
REMARK    3  A    between atoms: C_5  and  C_6
REMARK    4  A    between atoms: C_14  and  C_15
REMARK    5  A    between atoms: N_17  and  C_18
REMARK    6  A    between atoms: C_25  and  O_26
REMARK    7  A    between atoms: O_26  and  C_27
REMARK    8  A    between atoms: C_28  and  O_29
REMARK    9  A    between atoms: O_29  and  C_30
REMARK                            x       y       z     vdW  Elec       q    Type
REMARK                         _______ _______ _______ _____ _____    ______ ____
ROOT
ATOM      1  C   UNL     1      -0.429  12.553  19.528  0.00  0.00    +0.000 C 
ATOM      2  S   UNL     1       0.857  11.391  20.015  0.00  0.00    +0.000 S 
ATOM      3  C   UNL     1       0.002  10.438  21.263  0.00  0.00    +0.000 C 
ATOM      4  C   UNL     1      -0.541  11.124  22.482  0.00  0.00    +0.000 C 
ATOM      5  O   UNL     1      -0.893  10.458  23.450  0.00  0.00    +0.000 OA
ATOM      6  N   UNL     1      -0.712  12.518  22.713  0.00  0.00    +0.000 N 
ATOM      7  C   UNL     1      -0.581  13.627  21.894  0.00  0.00    +0.000 A 
ATOM      8  C   UNL     1      -0.473  13.669  20.510  0.00  0.00    +0.000 A 
ATOM      9  C   UNL     1      -0.496  15.065  20.192  0.00  0.00    +0.000 A 
ATOM     10  C   UNL     1      -0.355  15.749  18.880  0.00  0.00    +0.000 C 
ATOM     11  N   UNL     1      -0.772  15.805  21.268  0.00  0.00    +0.000 NA
ATOM     12  N   UNL     1      -0.711  14.952  22.310  0.00  0.00    +0.000 N 
ATOM     13  H   UNL     1      -1.041  12.684  23.660  0.00  0.00    +0.000 HD
ENDROOT
BRANCH   1  16
ATOM     14  C   UNL     1      -4.289  12.397  19.459  0.00  0.00    +0.000 A 
ATOM     15  C   UNL     1      -2.976  12.550  19.938  0.00  0.00    +0.000 A 
ATOM     16  C   UNL     1      -1.851  12.050  19.257  0.00  0.00    +0.000 A 
ATOM     17  C   UNL     1      -2.119  11.242  18.145  0.00  0.00    +0.000 A 
ATOM     18  C   UNL     1      -3.432  11.017  17.684  0.00  0.00    +0.000 A 
ATOM     19  C   UNL     1      -4.538  11.612  18.323  0.00  0.00    +0.000 A 
BRANCH  14  21
ATOM     20  C   UNL     1      -5.430  12.671  21.525  0.00  0.00    +0.000 C 
ATOM     21  O   UNL     1      -5.329  12.982  20.134  0.00  0.00    +0.000 OA
ENDBRANCH  14  21
BRANCH  18  22
ATOM     22  O   UNL     1      -3.480  10.175  16.599  0.00  0.00    +0.000 OA
ATOM     23  C   UNL     1      -3.172  10.769  15.341  0.00  0.00    +0.000 C 
ENDBRANCH  18  22
BRANCH  19  24
ATOM     24  O   UNL     1      -5.774  11.329  17.804  0.00  0.00    +0.000 OA
ATOM     25  C   UNL     1      -6.663  10.514  18.560  0.00  0.00    +0.000 C 
ENDBRANCH  19  24
ENDBRANCH   1  16
BRANCH  12  26
ATOM     26  C   UNL     1      -0.851  15.438  23.635  0.00  0.00    +0.000 A 
ATOM     27  C   UNL     1       0.002  16.460  24.080  0.00  0.00    +0.000 A 
ATOM     28  C   UNL     1      -0.143  16.971  25.370  0.00  0.00    +0.000 A 
ATOM     29  C   UNL     1      -1.105  16.439  26.228  0.00  0.00    +0.000 A 
ATOM     30  C   UNL     1      -1.929  15.399  25.797  0.00  0.00    +0.000 A 
ATOM     31  C   UNL     1      -1.812  14.899  24.497  0.00  0.00    +0.000 A 
ENDBRANCH  12  26
TORSDOF 5
ENDMDL
MODEL 4
REMARK VINA RESULT:      -6.5      0.917      1.323
REMARK  Name = 
REMARK  9 active torsions:
REMARK  status: ('A' for Active; 'I' for Inactive)
REMARK    1  A    between atoms: C_1  and  O_2
REMARK    2  A    between atoms: O_2  and  C_3
REMARK    3  A    between atoms: C_5  and  C_6
REMARK    4  A    between atoms: C_14  and  C_15
REMARK    5  A    between atoms: N_17  and  C_18
REMARK    6  A    between atoms: C_25  and  O_26
REMARK    7  A    between atoms: O_26  and  C_27
REMARK    8  A    between atoms: C_28  and  O_29
REMARK    9  A    between atoms: O_29  and  C_30
REMARK                            x       y       z     vdW  Elec       q    Type
REMARK                         _______ _______ _______ _____ _____    ______ ____
ROOT
ATOM      1  C   UNL     1      -0.427  12.304  21.365  0.00  0.00    +0.000 C 
ATOM      2  S   UNL     1       0.877  13.544  21.325  0.00  0.00    +0.000 S 
ATOM      3  C   UNL     1       1.064  13.786  19.564  0.00  0.00    +0.000 C 
ATOM      4  C   UNL     1       1.446  12.629  18.688  0.00  0.00    +0.000 C 
ATOM      5  O   UNL     1       1.824  12.833  17.539  0.00  0.00    +0.000 OA
ATOM      6  N   UNL     1       1.450  11.241  19.005  0.00  0.00    +0.000 N 
ATOM      7  C   UNL     1       0.996  10.529  20.103  0.00  0.00    +0.000 A 
ATOM      8  C   UNL     1       0.169  10.963  21.131  0.00  0.00    +0.000 A 
ATOM      9  C   UNL     1      -0.074   9.788  21.912  0.00  0.00    +0.000 A 
ATOM     10  C   UNL     1      -0.839   9.623  23.177  0.00  0.00    +0.000 C 
ATOM     11  N   UNL     1       0.413   8.697  21.318  0.00  0.00    +0.000 NA
ATOM     12  N   UNL     1       1.154   9.155  20.290  0.00  0.00    +0.000 N 
ATOM     13  H   UNL     1       1.822  10.700  18.229  0.00  0.00    +0.000 HD
ENDROOT
BRANCH   1  16
ATOM     14  C   UNL     1      -3.071  11.654  18.624  0.00  0.00    +0.000 A 
ATOM     15  C   UNL     1      -1.823  11.821  19.250  0.00  0.00    +0.000 A 
ATOM     16  C   UNL     1      -1.671  12.474  20.487  0.00  0.00    +0.000 A 
ATOM     17  C   UNL     1      -2.818  13.100  20.993  0.00  0.00    +0.000 A 
ATOM     18  C   UNL     1      -4.067  13.005  20.347  0.00  0.00    +0.000 A 
ATOM     19  C   UNL     1      -4.217  12.258  19.162  0.00  0.00    +0.000 A 
BRANCH  14  21
ATOM     20  C   UNL     1      -2.066  10.044  17.193  0.00  0.00    +0.000 C 
ATOM     21  O   UNL     1      -3.152  10.933  17.460  0.00  0.00    +0.000 OA
ENDBRANCH  14  21
BRANCH  18  22
ATOM     22  O   UNL     1      -5.056  13.711  20.990  0.00  0.00    +0.000 OA
ATOM     23  C   UNL     1      -5.251  13.391  22.364  0.00  0.00    +0.000 C 
ENDBRANCH  18  22
BRANCH  19  24
ATOM     24  O   UNL     1      -5.469  12.229  18.607  0.00  0.00    +0.000 OA
ATOM     25  C   UNL     1      -6.333  11.142  18.923  0.00  0.00    +0.000 C 
ENDBRANCH  19  24
ENDBRANCH   1  16
BRANCH  12  26
ATOM     26  C   UNL     1       1.912   8.252  19.501  0.00  0.00    +0.000 A 
ATOM     27  C   UNL     1       2.303   8.637  18.210  0.00  0.00    +0.000 A 
ATOM     28  C   UNL     1       3.076   7.773  17.433  0.00  0.00    +0.000 A 
ATOM     29  C   UNL     1       3.425   6.516  17.924  0.00  0.00    +0.000 A 
ATOM     30  C   UNL     1       3.007   6.119  19.196  0.00  0.00    +0.000 A 
ATOM     31  C   UNL     1       2.256   6.989  19.993  0.00  0.00    +0.000 A 
ENDBRANCH  12  26
TORSDOF 5
ENDMDL
MODEL 5
REMARK VINA RESULT:      -6.4      3.021      7.208
REMARK  Name = 
REMARK  9 active torsions:
REMARK  status: ('A' for Active; 'I' for Inactive)
REMARK    1  A    between atoms: C_1  and  O_2
REMARK    2  A    between atoms: O_2  and  C_3
REMARK    3  A    between atoms: C_5  and  C_6
REMARK    4  A    between atoms: C_14  and  C_15
REMARK    5  A    between atoms: N_17  and  C_18
REMARK    6  A    between atoms: C_25  and  O_26
REMARK    7  A    between atoms: O_26  and  C_27
REMARK    8  A    between atoms: C_28  and  O_29
REMARK    9  A    between atoms: O_29  and  C_30
REMARK                            x       y       z     vdW  Elec       q    Type
REMARK                         _______ _______ _______ _____ _____    ______ ____
ROOT
ATOM      1  C   UNL     1      -0.936  11.939  18.457  0.00  0.00    +0.000 C 
ATOM      2  S   UNL     1       0.079  13.424  18.385  0.00  0.00    +0.000 S 
ATOM      3  C   UNL     1       0.799  13.425  20.021  0.00  0.00    +0.000 C 
ATOM      4  C   UNL     1      -0.090  13.485  21.228  0.00  0.00    +0.000 C 
ATOM      5  O   UNL     1       0.389  13.744  22.327  0.00  0.00    +0.000 OA
ATOM      6  N   UNL     1      -1.499  13.286  21.302  0.00  0.00    +0.000 N 
ATOM      7  C   UNL     1      -2.434  12.859  20.375  0.00  0.00    +0.000 A 
ATOM      8  C   UNL     1      -2.216  12.258  19.142  0.00  0.00    +0.000 A 
ATOM      9  C   UNL     1      -3.526  11.914  18.676  0.00  0.00    +0.000 A 
ATOM     10  C   UNL     1      -3.952  11.299  17.392  0.00  0.00    +0.000 C 
ATOM     11  N   UNL     1      -4.449  12.124  19.617  0.00  0.00    +0.000 NA
ATOM     12  N   UNL     1      -3.811  12.796  20.595  0.00  0.00    +0.000 N 
ATOM     13  H   UNL     1      -1.832  13.456  22.247  0.00  0.00    +0.000 HD
ENDROOT
BRANCH   1  16
ATOM     14  C   UNL     1       1.517   9.034  19.138  0.00  0.00    +0.000 A 
ATOM     15  C   UNL     1       0.738   9.977  18.445  0.00  0.00    +0.000 A 
ATOM     16  C   UNL     1      -0.354  10.643  19.030  0.00  0.00    +0.000 A 
ATOM     17  C   UNL     1      -0.733  10.195  20.303  0.00  0.00    +0.000 A 
ATOM     18  C   UNL     1      -0.008   9.201  20.991  0.00  0.00    +0.000 A 
ATOM     19  C   UNL     1       1.145   8.621  20.426  0.00  0.00    +0.000 A 
BRANCH  14  21
ATOM     20  C   UNL     1       2.362   7.443  17.588  0.00  0.00    +0.000 C 
ATOM     21  O   UNL     1       2.618   8.487  18.529  0.00  0.00    +0.000 OA
ENDBRANCH  14  21
BRANCH  18  22
ATOM     22  O   UNL     1      -0.559   8.886  22.210  0.00  0.00    +0.000 OA
ATOM     23  C   UNL     1      -0.606   9.948  23.160  0.00  0.00    +0.000 C 
ENDBRANCH  18  22
BRANCH  19  24
ATOM     24  O   UNL     1       1.778   7.660  21.170  0.00  0.00    +0.000 OA
ATOM     25  C   UNL     1       1.526   6.290  20.875  0.00  0.00    +0.000 C 
ENDBRANCH  19  24
ENDBRANCH   1  16
BRANCH  12  26
ATOM     26  C   UNL     1      -4.535  13.279  21.715  0.00  0.00    +0.000 A 
ATOM     27  C   UNL     1      -5.328  14.428  21.571  0.00  0.00    +0.000 A 
ATOM     28  C   UNL     1      -6.072  14.897  22.654  0.00  0.00    +0.000 A 
ATOM     29  C   UNL     1      -5.995  14.250  23.887  0.00  0.00    +0.000 A 
ATOM     30  C   UNL     1      -5.180  13.128  24.040  0.00  0.00    +0.000 A 
ATOM     31  C   UNL     1      -4.452  12.633  22.953  0.00  0.00    +0.000 A 
ENDBRANCH  12  26
TORSDOF 5
ENDMDL
MODEL 6
REMARK VINA RESULT:      -6.3      3.726      7.604
REMARK  Name = 
REMARK  9 active torsions:
REMARK  status: ('A' for Active; 'I' for Inactive)
REMARK    1  A    between atoms: C_1  and  O_2
REMARK    2  A    between atoms: O_2  and  C_3
REMARK    3  A    between atoms: C_5  and  C_6
REMARK    4  A    between atoms: C_14  and  C_15
REMARK    5  A    between atoms: N_17  and  C_18
REMARK    6  A    between atoms: C_25  and  O_26
REMARK    7  A    between atoms: O_26  and  C_27
REMARK    8  A    between atoms: C_28  and  O_29
REMARK    9  A    between atoms: O_29  and  C_30
REMARK                            x       y       z     vdW  Elec       q    Type
REMARK                         _______ _______ _______ _____ _____    ______ ____
ROOT
ATOM      1  C   UNL     1      -0.518  11.875  20.518  0.00  0.00    +0.000 C 
ATOM      2  S   UNL     1      -0.473  10.214  19.827  0.00  0.00    +0.000 S 
ATOM      3  C   UNL     1      -0.747  10.558  18.094  0.00  0.00    +0.000 C 
ATOM      4  C   UNL     1      -2.008  11.247  17.661  0.00  0.00    +0.000 C 
ATOM      5  O   UNL     1      -2.322  11.255  16.475  0.00  0.00    +0.000 OA
ATOM      6  N   UNL     1      -2.967  11.928  18.464  0.00  0.00    +0.000 N 
ATOM      7  C   UNL     1      -2.985  12.284  19.801  0.00  0.00    +0.000 A 
ATOM      8  C   UNL     1      -1.934  12.285  20.709  0.00  0.00    +0.000 A 
ATOM      9  C   UNL     1      -2.488  12.863  21.896  0.00  0.00    +0.000 A 
ATOM     10  C   UNL     1      -1.871  13.078  23.232  0.00  0.00    +0.000 C 
ATOM     11  N   UNL     1      -3.717  13.337  21.680  0.00  0.00    +0.000 NA
ATOM     12  N   UNL     1      -4.059  12.889  20.456  0.00  0.00    +0.000 N 
ATOM     13  H   UNL     1      -3.751  12.236  17.895  0.00  0.00    +0.000 HD
ENDROOT
BRANCH   1  16
ATOM     14  C   UNL     1       0.273  15.293  18.900  0.00  0.00    +0.000 A 
ATOM     15  C   UNL     1      -0.378  14.080  19.187  0.00  0.00    +0.000 A 
ATOM     16  C   UNL     1       0.258  13.007  19.838  0.00  0.00    +0.000 A 
ATOM     17  C   UNL     1       1.637  13.149  20.044  0.00  0.00    +0.000 A 
ATOM     18  C   UNL     1       2.326  14.330  19.703  0.00  0.00    +0.000 A 
ATOM     19  C   UNL     1       1.648  15.431  19.146  0.00  0.00    +0.000 A 
BRANCH  14  21
ATOM     20  C   UNL     1      -1.201  17.126  19.240  0.00  0.00    +0.000 C 
ATOM     21  O   UNL     1      -0.435  16.325  18.339  0.00  0.00    +0.000 OA
ENDBRANCH  14  21
BRANCH  18  22
ATOM     22  O   UNL     1       3.674  14.255  19.961  0.00  0.00    +0.000 OA
ATOM     23  C   UNL     1       4.046  14.328  21.334  0.00  0.00    +0.000 C 
ENDBRANCH  18  22
BRANCH  19  24
ATOM     24  O   UNL     1       2.405  16.532  18.843  0.00  0.00    +0.000 OA
ATOM     25  C   UNL     1       2.567  17.545  19.830  0.00  0.00    +0.000 C 
ENDBRANCH  19  24
ENDBRANCH   1  16
BRANCH  12  26
ATOM     26  C   UNL     1      -5.364  13.123  19.953  0.00  0.00    +0.000 A 
ATOM     27  C   UNL     1      -5.798  14.445  19.772  0.00  0.00    +0.000 A 
ATOM     28  C   UNL     1      -7.067  14.693  19.249  0.00  0.00    +0.000 A 
ATOM     29  C   UNL     1      -7.916  13.630  18.943  0.00  0.00    +0.000 A 
ATOM     30  C   UNL     1      -7.498  12.316  19.155  0.00  0.00    +0.000 A 
ATOM     31  C   UNL     1      -6.217  12.056  19.653  0.00  0.00    +0.000 A 
ENDBRANCH  12  26
TORSDOF 5
ENDMDL
MODEL 7
REMARK VINA RESULT:      -6.3      2.791      5.050
REMARK  Name = 
REMARK  9 active torsions:
REMARK  status: ('A' for Active; 'I' for Inactive)
REMARK    1  A    between atoms: C_1  and  O_2
REMARK    2  A    between atoms: O_2  and  C_3
REMARK    3  A    between atoms: C_5  and  C_6
REMARK    4  A    between atoms: C_14  and  C_15
REMARK    5  A    between atoms: N_17  and  C_18
REMARK    6  A    between atoms: C_25  and  O_26
REMARK    7  A    between atoms: O_26  and  C_27
REMARK    8  A    between atoms: C_28  and  O_29
REMARK    9  A    between atoms: O_29  and  C_30
REMARK                            x       y       z     vdW  Elec       q    Type
REMARK                         _______ _______ _______ _____ _____    ______ ____
ROOT
ATOM      1  C   UNL     1      -0.511  11.042  20.262  0.00  0.00    +0.000 C 
ATOM      2  S   UNL     1      -0.455  11.096  22.061  0.00  0.00    +0.000 S 
ATOM      3  C   UNL     1      -1.107  12.731  22.374  0.00  0.00    +0.000 C 
ATOM      4  C   UNL     1      -0.405  13.933  21.815  0.00  0.00    +0.000 C 
ATOM      5  O   UNL     1      -0.687  15.052  22.231  0.00  0.00    +0.000 OA
ATOM      6  N   UNL     1       0.613  13.983  20.820  0.00  0.00    +0.000 N 
ATOM      7  C   UNL     1       1.158  13.020  19.988  0.00  0.00    +0.000 A 
ATOM      8  C   UNL     1       0.681  11.744  19.718  0.00  0.00    +0.000 A 
ATOM      9  C   UNL     1       1.557  11.244  18.701  0.00  0.00    +0.000 A 
ATOM     10  C   UNL     1       1.595   9.911  18.043  0.00  0.00    +0.000 C 
ATOM     11  N   UNL     1       2.386  12.193  18.262  0.00  0.00    +0.000 NA
ATOM     12  N   UNL     1       2.224  13.226  19.112  0.00  0.00    +0.000 N 
ATOM     13  H   UNL     1       0.942  14.937  20.696  0.00  0.00    +0.000 HD
ENDROOT
BRANCH   1  16
ATOM     14  C   UNL     1      -3.440  11.129  17.745  0.00  0.00    +0.000 A 
ATOM     15  C   UNL     1      -2.137  11.013  18.260  0.00  0.00    +0.000 A 
ATOM     16  C   UNL     1      -1.767  11.512  19.522  0.00  0.00    +0.000 A 
ATOM     17  C   UNL     1      -2.734  12.284  20.181  0.00  0.00    +0.000 A 
ATOM     18  C   UNL     1      -4.026  12.473  19.652  0.00  0.00    +0.000 A 
ATOM     19  C   UNL     1      -4.407  11.877  18.434  0.00  0.00    +0.000 A 
BRANCH  14  21
ATOM     20  C   UNL     1      -2.799  10.734  15.491  0.00  0.00    +0.000 C 
ATOM     21  O   UNL     1      -3.747  10.544  16.543  0.00  0.00    +0.000 OA
ENDBRANCH  14  21
BRANCH  18  22
ATOM     22  O   UNL     1      -4.811  13.283  20.438  0.00  0.00    +0.000 OA
ATOM     23  C   UNL     1      -5.295  12.696  21.642  0.00  0.00    +0.000 C 
ENDBRANCH  18  22
BRANCH  19  24
ATOM     24  O   UNL     1      -5.683  12.123  18.000  0.00  0.00    +0.000 OA
ATOM     25  C   UNL     1      -6.712  11.201  18.342  0.00  0.00    +0.000 C 
ENDBRANCH  19  24
ENDBRANCH   1  16
BRANCH  12  26
ATOM     26  C   UNL     1       3.045  14.377  18.997  0.00  0.00    +0.000 A 
ATOM     27  C   UNL     1       4.088  14.565  19.916  0.00  0.00    +0.000 A 
ATOM     28  C   UNL     1       4.924  15.676  19.798  0.00  0.00    +0.000 A 
ATOM     29  C   UNL     1       4.698  16.616  18.794  0.00  0.00    +0.000 A 
ATOM     30  C   UNL     1       3.640  16.448  17.901  0.00  0.00    +0.000 A 
ATOM     31  C   UNL     1       2.813  15.323  17.993  0.00  0.00    +0.000 A 
ENDBRANCH  12  26
TORSDOF 5
ENDMDL
MODEL 8
REMARK VINA RESULT:      -6.3      3.442      4.907
REMARK  Name = 
REMARK  9 active torsions:
REMARK  status: ('A' for Active; 'I' for Inactive)
REMARK    1  A    between atoms: C_1  and  O_2
REMARK    2  A    between atoms: O_2  and  C_3
REMARK    3  A    between atoms: C_5  and  C_6
REMARK    4  A    between atoms: C_14  and  C_15
REMARK    5  A    between atoms: N_17  and  C_18
REMARK    6  A    between atoms: C_25  and  O_26
REMARK    7  A    between atoms: O_26  and  C_27
REMARK    8  A    between atoms: C_28  and  O_29
REMARK    9  A    between atoms: O_29  and  C_30
REMARK                            x       y       z     vdW  Elec       q    Type
REMARK                         _______ _______ _______ _____ _____    ______ ____
ROOT
ATOM      1  C   UNL     1      -2.323  12.720  22.344  0.00  0.00    +0.000 C 
ATOM      2  S   UNL     1      -2.489  14.033  23.564  0.00  0.00    +0.000 S 
ATOM      3  C   UNL     1      -2.617  15.468  22.505  0.00  0.00    +0.000 C 
ATOM      4  C   UNL     1      -1.499  15.800  21.561  0.00  0.00    +0.000 C 
ATOM      5  O   UNL     1      -1.459  16.904  21.028  0.00  0.00    +0.000 OA
ATOM      6  N   UNL     1      -0.398  14.986  21.170  0.00  0.00    +0.000 N 
ATOM      7  C   UNL     1      -0.087  13.656  21.399  0.00  0.00    +0.000 A 
ATOM      8  C   UNL     1      -0.909  12.651  21.893  0.00  0.00    +0.000 A 
ATOM      9  C   UNL     1      -0.114  11.463  21.799  0.00  0.00    +0.000 A 
ATOM     10  C   UNL     1      -0.420  10.073  22.227  0.00  0.00    +0.000 C 
ATOM     11  N   UNL     1       1.025  11.689  21.143  0.00  0.00    +0.000 NA
ATOM     12  N   UNL     1       1.093  13.028  21.002  0.00  0.00    +0.000 N 
ATOM     13  H   UNL     1       0.233  15.508  20.568  0.00  0.00    +0.000 HD
ENDROOT
BRANCH   1  16
ATOM     14  C   UNL     1      -3.680  11.928  18.815  0.00  0.00    +0.000 A 
ATOM     15  C   UNL     1      -2.809  12.334  19.840  0.00  0.00    +0.000 A 
ATOM     16  C   UNL     1      -3.254  12.684  21.128  0.00  0.00    +0.000 A 
ATOM     17  C   UNL     1      -4.643  12.765  21.292  0.00  0.00    +0.000 A 
ATOM     18  C   UNL     1      -5.539  12.429  20.258  0.00  0.00    +0.000 A 
ATOM     19  C   UNL     1      -5.070  11.982  19.007  0.00  0.00    +0.000 A 
BRANCH  14  21
ATOM     20  C   UNL     1      -2.020  10.671  17.671  0.00  0.00    +0.000 C 
ATOM     21  O   UNL     1      -3.166  11.521  17.610  0.00  0.00    +0.000 OA
ENDBRANCH  14  21
BRANCH  18  22
ATOM     22  O   UNL     1      -6.855  12.602  20.614  0.00  0.00    +0.000 OA
ATOM     23  C   UNL     1      -7.477  11.486  21.246  0.00  0.00    +0.000 C 
ENDBRANCH  18  22
BRANCH  19  24
ATOM     24  O   UNL     1      -6.017  11.684  18.064  0.00  0.00    +0.000 OA
ATOM     25  C   UNL     1      -6.457  12.714  17.186  0.00  0.00    +0.000 C 
ENDBRANCH  19  24
ENDBRANCH   1  16
BRANCH  12  26
ATOM     26  C   UNL     1       2.248  13.625  20.435  0.00  0.00    +0.000 A 
ATOM     27  C   UNL     1       2.415  13.598  19.042  0.00  0.00    +0.000 A 
ATOM     28  C   UNL     1       3.529  14.208  18.465  0.00  0.00    +0.000 A 
ATOM     29  C   UNL     1       4.493  14.808  19.273  0.00  0.00    +0.000 A 
ATOM     30  C   UNL     1       4.345  14.806  20.661  0.00  0.00    +0.000 A 
ATOM     31  C   UNL     1       3.218  14.221  21.248  0.00  0.00    +0.000 A 
ENDBRANCH  12  26
TORSDOF 5
ENDMDL
MODEL 9
REMARK VINA RESULT:      -6.3      3.763      4.974
REMARK  Name = 
REMARK  9 active torsions:
REMARK  status: ('A' for Active; 'I' for Inactive)
REMARK    1  A    between atoms: C_1  and  O_2
REMARK    2  A    between atoms: O_2  and  C_3
REMARK    3  A    between atoms: C_5  and  C_6
REMARK    4  A    between atoms: C_14  and  C_15
REMARK    5  A    between atoms: N_17  and  C_18
REMARK    6  A    between atoms: C_25  and  O_26
REMARK    7  A    between atoms: O_26  and  C_27
REMARK    8  A    between atoms: C_28  and  O_29
REMARK    9  A    between atoms: O_29  and  C_30
REMARK                            x       y       z     vdW  Elec       q    Type
REMARK                         _______ _______ _______ _____ _____    ______ ____
ROOT
ATOM      1  C   UNL     1      -2.653  13.050  22.517  0.00  0.00    +0.000 C 
ATOM      2  S   UNL     1      -2.777  14.510  23.564  0.00  0.00    +0.000 S 
ATOM      3  C   UNL     1      -2.903  15.802  22.334  0.00  0.00    +0.000 C 
ATOM      4  C   UNL     1      -1.799  15.993  21.337  0.00  0.00    +0.000 C 
ATOM      5  O   UNL     1      -1.752  17.020  20.668  0.00  0.00    +0.000 OA
ATOM      6  N   UNL     1      -0.717  15.118  21.033  0.00  0.00    +0.000 N 
ATOM      7  C   UNL     1      -0.422  13.823  21.424  0.00  0.00    +0.000 A 
ATOM      8  C   UNL     1      -1.249  12.902  22.054  0.00  0.00    +0.000 A 
ATOM      9  C   UNL     1      -0.473  11.698  22.098  0.00  0.00    +0.000 A 
ATOM     10  C   UNL     1      -0.792  10.378  22.704  0.00  0.00    +0.000 C 
ATOM     11  N   UNL     1       0.657  11.820  21.400  0.00  0.00    +0.000 NA
ATOM     12  N   UNL     1       0.742  13.129  21.090  0.00  0.00    +0.000 N 
ATOM     13  H   UNL     1      -0.090  15.548  20.360  0.00  0.00    +0.000 HD
ENDROOT
BRANCH   1  16
ATOM     14  C   UNL     1      -4.034  11.950  19.081  0.00  0.00    +0.000 A 
ATOM     15  C   UNL     1      -3.168  12.476  20.055  0.00  0.00    +0.000 A 
ATOM     16  C   UNL     1      -3.607  12.878  21.330  0.00  0.00    +0.000 A 
ATOM     17  C   UNL     1      -4.994  12.878  21.527  0.00  0.00    +0.000 A 
ATOM     18  C   UNL     1      -5.889  12.420  20.540  0.00  0.00    +0.000 A 
ATOM     19  C   UNL     1      -5.419  11.925  19.307  0.00  0.00    +0.000 A 
BRANCH  14  21
ATOM     20  C   UNL     1      -2.097  11.506  17.778  0.00  0.00    +0.000 C 
ATOM     21  O   UNL     1      -3.521  11.502  17.890  0.00  0.00    +0.000 OA
ENDBRANCH  14  21
BRANCH  18  22
ATOM     22  O   UNL     1      -7.205  12.529  20.919  0.00  0.00    +0.000 OA
ATOM     23  C   UNL     1      -7.693  11.491  21.766  0.00  0.00    +0.000 C 
ENDBRANCH  18  22
BRANCH  19  24
ATOM     24  O   UNL     1      -6.366  11.507  18.410  0.00  0.00    +0.000 OA
ATOM     25  C   UNL     1      -6.855  12.436  17.448  0.00  0.00    +0.000 C 
ENDBRANCH  19  24
ENDBRANCH   1  16
BRANCH  12  26
ATOM     26  C   UNL     1       1.895  13.631  20.433  0.00  0.00    +0.000 A 
ATOM     27  C   UNL     1       2.931  14.185  21.200  0.00  0.00    +0.000 A 
ATOM     28  C   UNL     1       4.084  14.654  20.572  0.00  0.00    +0.000 A 
ATOM     29  C   UNL     1       4.190  14.609  19.182  0.00  0.00    +0.000 A 
ATOM     30  C   UNL     1       3.146  14.089  18.416  0.00  0.00    +0.000 A 
ATOM     31  C   UNL     1       1.997  13.590  19.038  0.00  0.00    +0.000 A 
ENDBRANCH  12  26
TORSDOF 5
ENDMDL
