MODEL 1
REMARK VINA RESULT:      -9.0      0.000      0.000
REMARK  Name = 
REMARK  11 active torsions:
REMARK  status: ('A' for Active; 'I' for Inactive)
REMARK    1  A    between atoms: C_1  and  C_2
REMARK    2  A    between atoms: C_2  and  C_3
REMARK    3  A    between atoms: C_3  and  C_4
REMARK    4  A    between atoms: C_4  and  C_5
REMARK    5  A    between atoms: C_5  and  C_6
REMARK    6  A    between atoms: C_9  and  C_10
REMARK    7  A    between atoms: N_12  and  C_13
REMARK    8  A    between atoms: C_13  and  C_14
REMARK    9  A    between atoms: N_16  and  C_17
REMARK   10  A    between atoms: C_18  and  C_19
REMARK   11  A    between atoms: C_25  and  C_26
REMARK                            x       y       z     vdW  Elec       q    Type
REMARK                         _______ _______ _______ _____ _____    ______ ____
ROOT
ATOM      1  C   UNL     1       3.145   6.259  18.648  0.00  0.00    +0.000 C 
ATOM      2  O   UNL     1       4.048   6.101  19.470  0.00  0.00    +0.000 OA
ATOM      3  N   UNL     1       2.493   5.219  17.993  0.00  0.00    +0.000 N 
ATOM      4  H   UNL     1       2.284   5.447  17.018  0.00  0.00    +0.000 HD
ENDROOT
BRANCH   3   5
ATOM      5  C   UNL     1       2.959   3.928  18.212  0.00  0.00    +0.000 A 
ATOM      6  C   UNL     1       2.412   2.916  19.058  0.00  0.00    +0.000 A 
ATOM      7  N   UNL     1       3.168   1.801  19.007  0.00  0.00    +0.000 NA
ATOM      8  N   UNL     1       4.142   2.101  18.135  0.00  0.00    +0.000 N 
ATOM      9  C   UNL     1       4.084   3.372  17.624  0.00  0.00    +0.000 A 
ATOM     10  H   UNL     1       4.851   1.398  17.955  0.00  0.00    +0.000 HD
BRANCH   9  11
ATOM     11  C   UNL     1       5.124   3.909  16.739  0.00  0.00    +0.000 A 
ATOM     12  C   UNL     1       6.295   4.485  17.255  0.00  0.00    +0.000 A 
ATOM     13  C   UNL     1       7.231   5.088  16.410  0.00  0.00    +0.000 A 
ATOM     14  C   UNL     1       7.016   5.114  15.034  0.00  0.00    +0.000 A 
ATOM     15  C   UNL     1       5.877   4.518  14.502  0.00  0.00    +0.000 A 
ATOM     16  C   UNL     1       4.938   3.923  15.349  0.00  0.00    +0.000 A 
ENDBRANCH   9  11
BRANCH   6  17
ATOM     17  C   UNL     1       1.154   2.996  19.872  0.00  0.00    +0.000 C 
ATOM     18  F   UNL     1       1.256   2.292  21.036  0.00  0.00    +0.000 F 
ATOM     19  F   UNL     1       0.835   4.270  20.226  0.00  0.00    +0.000 F 
ATOM     20  F   UNL     1       0.079   2.485  19.215  0.00  0.00    +0.000 F 
ENDBRANCH   6  17
ENDBRANCH   3   5
BRANCH   1  21
ATOM     21  C   UNL     1       2.630   7.644  18.331  0.00  0.00    +0.000 C 
BRANCH  21  24
ATOM     22  C   UNL     1       0.550   9.360  20.674  0.00  0.00    +0.000 A 
ATOM     23  C   UNL     1       1.174   9.374  19.448  0.00  0.00    +0.000 A 
ATOM     24  N   UNL     1       1.839   8.189  19.408  0.00  0.00    +0.000 N 
ATOM     25  N   UNL     1       1.640   7.469  20.526  0.00  0.00    +0.000 NA
ATOM     26  N   UNL     1       0.847   8.183  21.316  0.00  0.00    +0.000 NA
BRANCH  22  30
ATOM     27  C   UNL     1      -2.113  12.313  22.231  0.00  0.00    +0.000 A 
ATOM     28  C   UNL     1      -1.517  11.368  23.075  0.00  0.00    +0.000 A 
ATOM     29  C   UNL     1      -0.625  10.420  22.567  0.00  0.00    +0.000 A 
ATOM     30  C   UNL     1      -0.334  10.382  21.199  0.00  0.00    +0.000 A 
ATOM     31  C   UNL     1      -0.930  11.328  20.354  0.00  0.00    +0.000 A 
ATOM     32  C   UNL     1      -1.810  12.285  20.866  0.00  0.00    +0.000 A 
BRANCH  27  33
ATOM     33  C   UNL     1      -3.077  13.339  22.777  0.00  0.00    +0.000 C 
BRANCH  33  34
ATOM     34  C   UNL     1      -4.535  12.895  22.641  0.00  0.00    +0.000 C 
BRANCH  34  35
ATOM     35  C   UNL     1      -5.223  12.823  24.003  0.00  0.00    +0.000 C 
BRANCH  35  37
ATOM     36  C   UNL     1      -7.637  12.354  23.469  0.00  0.00    +0.000 C 
ATOM     37  C   UNL     1      -6.636  13.400  23.933  0.00  0.00    +0.000 C 
ENDBRANCH  35  37
ENDBRANCH  34  35
ENDBRANCH  33  34
ENDBRANCH  27  33
ENDBRANCH  22  30
ENDBRANCH  21  24
ENDBRANCH   1  21
TORSDOF 10
ENDMDL
MODEL 2
REMARK VINA RESULT:      -8.9      1.146      1.259
REMARK  Name = 
REMARK  11 active torsions:
REMARK  status: ('A' for Active; 'I' for Inactive)
REMARK    1  A    between atoms: C_1  and  C_2
REMARK    2  A    between atoms: C_2  and  C_3
REMARK    3  A    between atoms: C_3  and  C_4
REMARK    4  A    between atoms: C_4  and  C_5
REMARK    5  A    between atoms: C_5  and  C_6
REMARK    6  A    between atoms: C_9  and  C_10
REMARK    7  A    between atoms: N_12  and  C_13
REMARK    8  A    between atoms: C_13  and  C_14
REMARK    9  A    between atoms: N_16  and  C_17
REMARK   10  A    between atoms: C_18  and  C_19
REMARK   11  A    between atoms: C_25  and  C_26
REMARK                            x       y       z     vdW  Elec       q    Type
REMARK                         _______ _______ _______ _____ _____    ______ ____
ROOT
ATOM      1  C   UNL     1       2.549   6.469  18.262  0.00  0.00    +0.000 C 
ATOM      2  O   UNL     1       1.784   5.823  17.546  0.00  0.00    +0.000 OA
ATOM      3  N   UNL     1       3.549   5.904  19.049  0.00  0.00    +0.000 N 
ATOM      4  H   UNL     1       3.647   6.379  19.949  0.00  0.00    +0.000 HD
ENDROOT
BRANCH   3   5
ATOM      5  C   UNL     1       3.619   4.517  19.100  0.00  0.00    +0.000 A 
ATOM      6  C   UNL     1       2.965   3.625  20.003  0.00  0.00    +0.000 A 
ATOM      7  N   UNL     1       3.305   2.349  19.734  0.00  0.00    +0.000 NA
ATOM      8  N   UNL     1       4.127   2.441  18.678  0.00  0.00    +0.000 N 
ATOM      9  C   UNL     1       4.369   3.721  18.249  0.00  0.00    +0.000 A 
ATOM     10  H   UNL     1       4.527   1.585  18.311  0.00  0.00    +0.000 HD
BRANCH   9  11
ATOM     11  C   UNL     1       5.324   4.020  17.175  0.00  0.00    +0.000 A 
ATOM     12  C   UNL     1       6.617   4.485  17.457  0.00  0.00    +0.000 A 
ATOM     13  C   UNL     1       7.483   4.867  16.428  0.00  0.00    +0.000 A 
ATOM     14  C   UNL     1       7.072   4.779  15.101  0.00  0.00    +0.000 A 
ATOM     15  C   UNL     1       5.806   4.288  14.800  0.00  0.00    +0.000 A 
ATOM     16  C   UNL     1       4.938   3.915  15.830  0.00  0.00    +0.000 A 
ENDBRANCH   9  11
BRANCH   6  17
ATOM     17  C   UNL     1       1.989   3.985  21.084  0.00  0.00    +0.000 C 
ATOM     18  F   UNL     1       1.637   2.900  21.834  0.00  0.00    +0.000 F 
ATOM     19  F   UNL     1       2.481   4.904  21.956  0.00  0.00    +0.000 F 
ATOM     20  F   UNL     1       0.828   4.489  20.587  0.00  0.00    +0.000 F 
ENDBRANCH   6  17
ENDBRANCH   3   5
BRANCH   1  21
ATOM     21  C   UNL     1       2.487   7.979  18.285  0.00  0.00    +0.000 C 
BRANCH  21  24
ATOM     22  C   UNL     1       0.455   9.553  20.766  0.00  0.00    +0.000 A 
ATOM     23  C   UNL     1       0.970   9.593  19.491  0.00  0.00    +0.000 A 
ATOM     24  N   UNL     1       1.740   8.475  19.415  0.00  0.00    +0.000 N 
ATOM     25  N   UNL     1       1.705   7.769  20.559  0.00  0.00    +0.000 NA
ATOM     26  N   UNL     1       0.916   8.426  21.401  0.00  0.00    +0.000 NA
BRANCH  22  30
ATOM     27  C   UNL     1      -2.342  12.282  22.486  0.00  0.00    +0.000 A 
ATOM     28  C   UNL     1      -1.647  11.368  23.287  0.00  0.00    +0.000 A 
ATOM     29  C   UNL     1      -0.712  10.494  22.724  0.00  0.00    +0.000 A 
ATOM     30  C   UNL     1      -0.476  10.500  21.346  0.00  0.00    +0.000 A 
ATOM     31  C   UNL     1      -1.172  11.416  20.544  0.00  0.00    +0.000 A 
ATOM     32  C   UNL     1      -2.095  12.299  21.110  0.00  0.00    +0.000 A 
BRANCH  27  33
ATOM     33  C   UNL     1      -3.352  13.228  23.090  0.00  0.00    +0.000 C 
BRANCH  33  34
ATOM     34  C   UNL     1      -3.812  14.298  22.097  0.00  0.00    +0.000 C 
BRANCH  34  35
ATOM     35  C   UNL     1      -5.324  14.244  21.883  0.00  0.00    +0.000 C 
BRANCH  35  37
ATOM     36  C   UNL     1      -7.301  12.700  21.700  0.00  0.00    +0.000 C 
ATOM     37  C   UNL     1      -5.788  12.814  21.617  0.00  0.00    +0.000 C 
ENDBRANCH  35  37
ENDBRANCH  34  35
ENDBRANCH  33  34
ENDBRANCH  27  33
ENDBRANCH  22  30
ENDBRANCH  21  24
ENDBRANCH   1  21
TORSDOF 10
ENDMDL
MODEL 3
REMARK VINA RESULT:      -8.9      0.975      1.499
REMARK  Name = 
REMARK  11 active torsions:
REMARK  status: ('A' for Active; 'I' for Inactive)
REMARK    1  A    between atoms: C_1  and  C_2
REMARK    2  A    between atoms: C_2  and  C_3
REMARK    3  A    between atoms: C_3  and  C_4
REMARK    4  A    between atoms: C_4  and  C_5
REMARK    5  A    between atoms: C_5  and  C_6
REMARK    6  A    between atoms: C_9  and  C_10
REMARK    7  A    between atoms: N_12  and  C_13
REMARK    8  A    between atoms: C_13  and  C_14
REMARK    9  A    between atoms: N_16  and  C_17
REMARK   10  A    between atoms: C_18  and  C_19
REMARK   11  A    between atoms: C_25  and  C_26
REMARK                            x       y       z     vdW  Elec       q    Type
REMARK                         _______ _______ _______ _____ _____    ______ ____
ROOT
ATOM      1  C   UNL     1       2.492   6.465  18.285  0.00  0.00    +0.000 C 
ATOM      2  O   UNL     1       1.696   5.808  17.615  0.00  0.00    +0.000 OA
ATOM      3  N   UNL     1       3.534   5.914  19.024  0.00  0.00    +0.000 N 
ATOM      4  H   UNL     1       3.674   6.398  19.915  0.00  0.00    +0.000 HD
ENDROOT
BRANCH   3   5
ATOM      5  C   UNL     1       3.618   4.528  19.084  0.00  0.00    +0.000 A 
ATOM      6  C   UNL     1       2.974   3.636  19.994  0.00  0.00    +0.000 A 
ATOM      7  N   UNL     1       3.324   2.361  19.732  0.00  0.00    +0.000 NA
ATOM      8  N   UNL     1       4.143   2.455  18.673  0.00  0.00    +0.000 N 
ATOM      9  C   UNL     1       4.373   3.734  18.236  0.00  0.00    +0.000 A 
ATOM     10  H   UNL     1       4.549   1.599  18.310  0.00  0.00    +0.000 HD
BRANCH   9  11
ATOM     11  C   UNL     1       5.322   4.035  17.157  0.00  0.00    +0.000 A 
ATOM     12  C   UNL     1       6.620   4.489  17.435  0.00  0.00    +0.000 A 
ATOM     13  C   UNL     1       7.481   4.873  16.403  0.00  0.00    +0.000 A 
ATOM     14  C   UNL     1       7.061   4.799  15.077  0.00  0.00    +0.000 A 
ATOM     15  C   UNL     1       5.789   4.319  14.782  0.00  0.00    +0.000 A 
ATOM     16  C   UNL     1       4.926   3.943  15.815  0.00  0.00    +0.000 A 
ENDBRANCH   9  11
BRANCH   6  17
ATOM     17  C   UNL     1       1.996   3.993  21.076  0.00  0.00    +0.000 C 
ATOM     18  F   UNL     1       0.827   4.477  20.565  0.00  0.00    +0.000 F 
ATOM     19  F   UNL     1       1.660   2.931  21.854  0.00  0.00    +0.000 F 
ATOM     20  F   UNL     1       2.472   4.959  21.905  0.00  0.00    +0.000 F 
ENDBRANCH   6  17
ENDBRANCH   3   5
BRANCH   1  21
ATOM     21  C   UNL     1       2.420   7.975  18.298  0.00  0.00    +0.000 C 
BRANCH  21  24
ATOM     22  C   UNL     1       0.410   9.552  20.794  0.00  0.00    +0.000 A 
ATOM     23  C   UNL     1       0.906   9.586  19.512  0.00  0.00    +0.000 A 
ATOM     24  N   UNL     1       1.685   8.474  19.434  0.00  0.00    +0.000 N 
ATOM     25  N   UNL     1       1.672   7.778  20.585  0.00  0.00    +0.000 NA
ATOM     26  N   UNL     1       0.890   8.434  21.433  0.00  0.00    +0.000 NA
BRANCH  22  30
ATOM     27  C   UNL     1      -2.275  12.393  22.513  0.00  0.00    +0.000 A 
ATOM     28  C   UNL     1      -1.961  12.437  21.149  0.00  0.00    +0.000 A 
ATOM     29  C   UNL     1      -1.103  11.489  20.584  0.00  0.00    +0.000 A 
ATOM     30  C   UNL     1      -0.521  10.496  21.379  0.00  0.00    +0.000 A 
ATOM     31  C   UNL     1      -0.836  10.452  22.744  0.00  0.00    +0.000 A 
ATOM     32  C   UNL     1      -1.706  11.391  23.305  0.00  0.00    +0.000 A 
BRANCH  27  33
ATOM     33  C   UNL     1      -3.203  13.414  23.126  0.00  0.00    +0.000 C 
BRANCH  33  34
ATOM     34  C   UNL     1      -4.664  12.961  23.099  0.00  0.00    +0.000 C 
BRANCH  34  35
ATOM     35  C   UNL     1      -5.585  14.021  23.702  0.00  0.00    +0.000 C 
BRANCH  35  37
ATOM     36  C   UNL     1      -7.358  12.405  22.944  0.00  0.00    +0.000 C 
ATOM     37  C   UNL     1      -7.012  13.866  23.180  0.00  0.00    +0.000 C 
ENDBRANCH  35  37
ENDBRANCH  34  35
ENDBRANCH  33  34
ENDBRANCH  27  33
ENDBRANCH  22  30
ENDBRANCH  21  24
ENDBRANCH   1  21
TORSDOF 10
ENDMDL
MODEL 4
REMARK VINA RESULT:      -8.9      1.403      2.543
REMARK  Name = 
REMARK  11 active torsions:
REMARK  status: ('A' for Active; 'I' for Inactive)
REMARK    1  A    between atoms: C_1  and  C_2
REMARK    2  A    between atoms: C_2  and  C_3
REMARK    3  A    between atoms: C_3  and  C_4
REMARK    4  A    between atoms: C_4  and  C_5
REMARK    5  A    between atoms: C_5  and  C_6
REMARK    6  A    between atoms: C_9  and  C_10
REMARK    7  A    between atoms: N_12  and  C_13
REMARK    8  A    between atoms: C_13  and  C_14
REMARK    9  A    between atoms: N_16  and  C_17
REMARK   10  A    between atoms: C_18  and  C_19
REMARK   11  A    between atoms: C_25  and  C_26
REMARK                            x       y       z     vdW  Elec       q    Type
REMARK                         _______ _______ _______ _____ _____    ______ ____
ROOT
ATOM      1  C   UNL     1       2.535   6.554  18.305  0.00  0.00    +0.000 C 
ATOM      2  O   UNL     1       1.803   5.930  17.536  0.00  0.00    +0.000 OA
ATOM      3  N   UNL     1       3.499   5.964  19.118  0.00  0.00    +0.000 N 
ATOM      4  H   UNL     1       3.556   6.410  20.036  0.00  0.00    +0.000 HD
ENDROOT
BRANCH   3   5
ATOM      5  C   UNL     1       3.568   4.575  19.129  0.00  0.00    +0.000 A 
ATOM      6  C   UNL     1       2.924   3.659  20.015  0.00  0.00    +0.000 A 
ATOM      7  N   UNL     1       3.258   2.391  19.705  0.00  0.00    +0.000 NA
ATOM      8  N   UNL     1       4.068   2.512  18.643  0.00  0.00    +0.000 N 
ATOM      9  C   UNL     1       4.307   3.803  18.247  0.00  0.00    +0.000 A 
ATOM     10  H   UNL     1       4.462   1.666  18.247  0.00  0.00    +0.000 HD
BRANCH   9  11
ATOM     11  C   UNL     1       5.249   4.131  17.170  0.00  0.00    +0.000 A 
ATOM     12  C   UNL     1       4.888   3.999  15.821  0.00  0.00    +0.000 A 
ATOM     13  C   UNL     1       5.824   4.213  14.804  0.00  0.00    +0.000 A 
ATOM     14  C   UNL     1       7.131   4.573  15.122  0.00  0.00    +0.000 A 
ATOM     15  C   UNL     1       7.497   4.741  16.453  0.00  0.00    +0.000 A 
ATOM     16  C   UNL     1       6.563   4.520  17.469  0.00  0.00    +0.000 A 
ENDBRANCH   9  11
BRANCH   6  17
ATOM     17  C   UNL     1       1.960   3.989  21.117  0.00  0.00    +0.000 C 
ATOM     18  F   UNL     1       1.643   2.890  21.861  0.00  0.00    +0.000 F 
ATOM     19  F   UNL     1       2.451   4.909  21.989  0.00  0.00    +0.000 F 
ATOM     20  F   UNL     1       0.782   4.476  20.646  0.00  0.00    +0.000 F 
ENDBRANCH   6  17
ENDBRANCH   3   5
BRANCH   1  21
ATOM     21  C   UNL     1       2.471   8.062  18.372  0.00  0.00    +0.000 C 
BRANCH  21  24
ATOM     22  C   UNL     1       0.341   9.559  20.817  0.00  0.00    +0.000 A 
ATOM     23  C   UNL     1       0.906   9.639  19.566  0.00  0.00    +0.000 A 
ATOM     24  N   UNL     1       1.679   8.523  19.486  0.00  0.00    +0.000 N 
ATOM     25  N   UNL     1       1.598   7.782  20.605  0.00  0.00    +0.000 NA
ATOM     26  N   UNL     1       0.776   8.412  21.435  0.00  0.00    +0.000 NA
BRANCH  22  30
ATOM     27  C   UNL     1      -2.415  12.360  22.488  0.00  0.00    +0.000 A 
ATOM     28  C   UNL     1      -2.171  12.330  21.110  0.00  0.00    +0.000 A 
ATOM     29  C   UNL     1      -1.289  11.394  20.563  0.00  0.00    +0.000 A 
ATOM     30  C   UNL     1      -0.613  10.489  21.389  0.00  0.00    +0.000 A 
ATOM     31  C   UNL     1      -0.858  10.520  22.768  0.00  0.00    +0.000 A 
ATOM     32  C   UNL     1      -1.751  11.446  23.312  0.00  0.00    +0.000 A 
BRANCH  27  33
ATOM     33  C   UNL     1      -3.368  13.369  23.083  0.00  0.00    +0.000 C 
BRANCH  33  34
ATOM     34  C   UNL     1      -2.643  14.439  23.903  0.00  0.00    +0.000 C 
BRANCH  34  35
ATOM     35  C   UNL     1      -1.861  15.393  23.003  0.00  0.00    +0.000 C 
BRANCH  35  37
ATOM     36  C   UNL     1       0.394  14.844  22.031  0.00  0.00    +0.000 C 
ATOM     37  C   UNL     1      -0.361  15.292  23.272  0.00  0.00    +0.000 C 
ENDBRANCH  35  37
ENDBRANCH  34  35
ENDBRANCH  33  34
ENDBRANCH  27  33
ENDBRANCH  22  30
ENDBRANCH  21  24
ENDBRANCH   1  21
TORSDOF 10
ENDMDL
MODEL 5
REMARK VINA RESULT:      -8.9      0.985      1.883
REMARK  Name = 
REMARK  11 active torsions:
REMARK  status: ('A' for Active; 'I' for Inactive)
REMARK    1  A    between atoms: C_1  and  C_2
REMARK    2  A    between atoms: C_2  and  C_3
REMARK    3  A    between atoms: C_3  and  C_4
REMARK    4  A    between atoms: C_4  and  C_5
REMARK    5  A    between atoms: C_5  and  C_6
REMARK    6  A    between atoms: C_9  and  C_10
REMARK    7  A    between atoms: N_12  and  C_13
REMARK    8  A    between atoms: C_13  and  C_14
REMARK    9  A    between atoms: N_16  and  C_17
REMARK   10  A    between atoms: C_18  and  C_19
REMARK   11  A    between atoms: C_25  and  C_26
REMARK                            x       y       z     vdW  Elec       q    Type
REMARK                         _______ _______ _______ _____ _____    ______ ____
ROOT
ATOM      1  C   UNL     1       3.233   6.329  18.689  0.00  0.00    +0.000 C 
ATOM      2  O   UNL     1       4.203   6.220  19.438  0.00  0.00    +0.000 OA
ATOM      3  N   UNL     1       2.528   5.251  18.160  0.00  0.00    +0.000 N 
ATOM      4  H   UNL     1       2.235   5.417  17.195  0.00  0.00    +0.000 HD
ENDROOT
BRANCH   3   5
ATOM      5  C   UNL     1       3.015   3.975  18.420  0.00  0.00    +0.000 A 
ATOM      6  C   UNL     1       2.496   2.990  19.314  0.00  0.00    +0.000 A 
ATOM      7  N   UNL     1       3.264   1.883  19.292  0.00  0.00    +0.000 NA
ATOM      8  N   UNL     1       4.219   2.161  18.392  0.00  0.00    +0.000 N 
ATOM      9  C   UNL     1       4.136   3.411  17.834  0.00  0.00    +0.000 A 
ATOM     10  H   UNL     1       4.933   1.460  18.225  0.00  0.00    +0.000 HD
BRANCH   9  11
ATOM     11  C   UNL     1       5.153   3.925  16.909  0.00  0.00    +0.000 A 
ATOM     12  C   UNL     1       6.411   4.343  17.369  0.00  0.00    +0.000 A 
ATOM     13  C   UNL     1       7.334   4.930  16.498  0.00  0.00    +0.000 A 
ATOM     14  C   UNL     1       7.018   5.096  15.152  0.00  0.00    +0.000 A 
ATOM     15  C   UNL     1       5.788   4.656  14.672  0.00  0.00    +0.000 A 
ATOM     16  C   UNL     1       4.863   4.078  15.545  0.00  0.00    +0.000 A 
ENDBRANCH   9  11
BRANCH   6  17
ATOM     17  C   UNL     1       1.252   3.087  20.148  0.00  0.00    +0.000 C 
ATOM     18  F   UNL     1       1.076   4.342  20.655  0.00  0.00    +0.000 F 
ATOM     19  F   UNL     1       0.123   2.799  19.447  0.00  0.00    +0.000 F 
ATOM     20  F   UNL     1       1.280   2.250  21.219  0.00  0.00    +0.000 F 
ENDBRANCH   6  17
ENDBRANCH   3   5
BRANCH   1  21
ATOM     21  C   UNL     1       2.689   7.693  18.330  0.00  0.00    +0.000 C 
BRANCH  21  24
ATOM     22  C   UNL     1       0.562   9.432  20.612  0.00  0.00    +0.000 A 
ATOM     23  C   UNL     1       1.210   9.433  19.399  0.00  0.00    +0.000 A 
ATOM     24  N   UNL     1       1.876   8.248  19.384  0.00  0.00    +0.000 N 
ATOM     25  N   UNL     1       1.655   7.540  20.506  0.00  0.00    +0.000 NA
ATOM     26  N   UNL     1       0.846   8.261  21.273  0.00  0.00    +0.000 NA
BRANCH  22  30
ATOM     27  C   UNL     1      -2.018  12.513  22.055  0.00  0.00    +0.000 A 
ATOM     28  C   UNL     1      -1.810  12.337  20.681  0.00  0.00    +0.000 A 
ATOM     29  C   UNL     1      -0.986  11.310  20.211  0.00  0.00    +0.000 A 
ATOM     30  C   UNL     1      -0.333  10.458  21.108  0.00  0.00    +0.000 A 
ATOM     31  C   UNL     1      -0.542  10.635  22.483  0.00  0.00    +0.000 A 
ATOM     32  C   UNL     1      -1.378  11.652  22.951  0.00  0.00    +0.000 A 
BRANCH  27  33
ATOM     33  C   UNL     1      -2.908  13.621  22.566  0.00  0.00    +0.000 C 
BRANCH  33  34
ATOM     34  C   UNL     1      -3.627  13.236  23.861  0.00  0.00    +0.000 C 
BRANCH  34  35
ATOM     35  C   UNL     1      -3.406  14.284  24.951  0.00  0.00    +0.000 C 
BRANCH  35  37
ATOM     36  C   UNL     1      -1.475  15.577  25.916  0.00  0.00    +0.000 C 
ATOM     37  C   UNL     1      -2.182  15.145  24.642  0.00  0.00    +0.000 C 
ENDBRANCH  35  37
ENDBRANCH  34  35
ENDBRANCH  33  34
ENDBRANCH  27  33
ENDBRANCH  22  30
ENDBRANCH  21  24
ENDBRANCH   1  21
TORSDOF 10
ENDMDL
MODEL 6
REMARK VINA RESULT:      -8.8      0.496      1.141
REMARK  Name = 
REMARK  11 active torsions:
REMARK  status: ('A' for Active; 'I' for Inactive)
REMARK    1  A    between atoms: C_1  and  C_2
REMARK    2  A    between atoms: C_2  and  C_3
REMARK    3  A    between atoms: C_3  and  C_4
REMARK    4  A    between atoms: C_4  and  C_5
REMARK    5  A    between atoms: C_5  and  C_6
REMARK    6  A    between atoms: C_9  and  C_10
REMARK    7  A    between atoms: N_12  and  C_13
REMARK    8  A    between atoms: C_13  and  C_14
REMARK    9  A    between atoms: N_16  and  C_17
REMARK   10  A    between atoms: C_18  and  C_19
REMARK   11  A    between atoms: C_25  and  C_26
REMARK                            x       y       z     vdW  Elec       q    Type
REMARK                         _______ _______ _______ _____ _____    ______ ____
ROOT
ATOM      1  C   UNL     1       3.168   6.200  18.540  0.00  0.00    +0.000 C 
ATOM      2  O   UNL     1       4.093   5.997  19.326  0.00  0.00    +0.000 OA
ATOM      3  N   UNL     1       2.476   5.194  17.871  0.00  0.00    +0.000 N 
ATOM      4  H   UNL     1       2.241   5.460  16.912  0.00  0.00    +0.000 HD
ENDROOT
BRANCH   3   5
ATOM      5  C   UNL     1       2.926   3.888  18.030  0.00  0.00    +0.000 A 
ATOM      6  C   UNL     1       2.372   2.849  18.836  0.00  0.00    +0.000 A 
ATOM      7  N   UNL     1       3.110   1.726  18.730  0.00  0.00    +0.000 NA
ATOM      8  N   UNL     1       4.082   2.050  17.864  0.00  0.00    +0.000 N 
ATOM      9  C   UNL     1       4.038   3.343  17.409  0.00  0.00    +0.000 A 
ATOM     10  H   UNL     1       4.779   1.346  17.647  0.00  0.00    +0.000 HD
BRANCH   9  11
ATOM     11  C   UNL     1       5.078   3.903  16.538  0.00  0.00    +0.000 A 
ATOM     12  C   UNL     1       4.993   3.800  15.141  0.00  0.00    +0.000 A 
ATOM     13  C   UNL     1       6.038   4.243  14.325  0.00  0.00    +0.000 A 
ATOM     14  C   UNL     1       7.178   4.805  14.892  0.00  0.00    +0.000 A 
ATOM     15  C   UNL     1       7.265   4.947  16.273  0.00  0.00    +0.000 A 
ATOM     16  C   UNL     1       6.224   4.496  17.089  0.00  0.00    +0.000 A 
ENDBRANCH   9  11
BRANCH   6  17
ATOM     17  C   UNL     1       1.122   2.911  19.664  0.00  0.00    +0.000 C 
ATOM     18  F   UNL     1       0.067   2.310  19.040  0.00  0.00    +0.000 F 
ATOM     19  F   UNL     1       1.254   2.292  20.867  0.00  0.00    +0.000 F 
ATOM     20  F   UNL     1       0.731   4.189  19.916  0.00  0.00    +0.000 F 
ENDBRANCH   6  17
ENDBRANCH   3   5
BRANCH   1  21
ATOM     21  C   UNL     1       2.668   7.603  18.289  0.00  0.00    +0.000 C 
BRANCH  21  24
ATOM     22  C   UNL     1       0.642   9.245  20.729  0.00  0.00    +0.000 A 
ATOM     23  C   UNL     1       1.237   9.297  19.490  0.00  0.00    +0.000 A 
ATOM     24  N   UNL     1       1.901   8.114  19.399  0.00  0.00    +0.000 N 
ATOM     25  N   UNL     1       1.727   7.360  20.499  0.00  0.00    +0.000 NA
ATOM     26  N   UNL     1       0.953   8.049  21.328  0.00  0.00    +0.000 NA
BRANCH  22  30
ATOM     27  C   UNL     1      -1.988  12.148  22.430  0.00  0.00    +0.000 A 
ATOM     28  C   UNL     1      -1.435  11.132  23.219  0.00  0.00    +0.000 A 
ATOM     29  C   UNL     1      -0.553  10.199  22.665  0.00  0.00    +0.000 A 
ATOM     30  C   UNL     1      -0.230  10.250  21.305  0.00  0.00    +0.000 A 
ATOM     31  C   UNL     1      -0.785  11.267  20.515  0.00  0.00    +0.000 A 
ATOM     32  C   UNL     1      -1.654  12.207  21.074  0.00  0.00    +0.000 A 
BRANCH  27  33
ATOM     33  C   UNL     1      -2.940  13.158  23.025  0.00  0.00    +0.000 C 
BRANCH  33  34
ATOM     34  C   UNL     1      -4.402  12.832  22.710  0.00  0.00    +0.000 C 
BRANCH  34  35
ATOM     35  C   UNL     1      -5.322  13.241  23.859  0.00  0.00    +0.000 C 
BRANCH  35  37
ATOM     36  C   UNL     1      -7.331  14.510  23.034  0.00  0.00    +0.000 C 
ATOM     37  C   UNL     1      -5.929  14.620  23.610  0.00  0.00    +0.000 C 
ENDBRANCH  35  37
ENDBRANCH  34  35
ENDBRANCH  33  34
ENDBRANCH  27  33
ENDBRANCH  22  30
ENDBRANCH  21  24
ENDBRANCH   1  21
TORSDOF 10
ENDMDL
MODEL 7
REMARK VINA RESULT:      -8.8      0.761      1.131
REMARK  Name = 
REMARK  11 active torsions:
REMARK  status: ('A' for Active; 'I' for Inactive)
REMARK    1  A    between atoms: C_1  and  C_2
REMARK    2  A    between atoms: C_2  and  C_3
REMARK    3  A    between atoms: C_3  and  C_4
REMARK    4  A    between atoms: C_4  and  C_5
REMARK    5  A    between atoms: C_5  and  C_6
REMARK    6  A    between atoms: C_9  and  C_10
REMARK    7  A    between atoms: N_12  and  C_13
REMARK    8  A    between atoms: C_13  and  C_14
REMARK    9  A    between atoms: N_16  and  C_17
REMARK   10  A    between atoms: C_18  and  C_19
REMARK   11  A    between atoms: C_25  and  C_26
REMARK                            x       y       z     vdW  Elec       q    Type
REMARK                         _______ _______ _______ _____ _____    ______ ____
ROOT
ATOM      1  C   UNL     1       3.178   6.227  18.623  0.00  0.00    +0.000 C 
ATOM      2  O   UNL     1       4.061   6.038  19.461  0.00  0.00    +0.000 OA
ATOM      3  N   UNL     1       2.537   5.211  17.921  0.00  0.00    +0.000 N 
ATOM      4  H   UNL     1       2.352   5.471  16.949  0.00  0.00    +0.000 HD
ENDROOT
BRANCH   3   5
ATOM      5  C   UNL     1       2.992   3.911  18.110  0.00  0.00    +0.000 A 
ATOM      6  C   UNL     1       2.437   2.885  18.933  0.00  0.00    +0.000 A 
ATOM      7  N   UNL     1       3.183   1.765  18.856  0.00  0.00    +0.000 NA
ATOM      8  N   UNL     1       4.159   2.077  17.990  0.00  0.00    +0.000 N 
ATOM      9  C   UNL     1       4.112   3.360  17.508  0.00  0.00    +0.000 A 
ATOM     10  H   UNL     1       4.861   1.372  17.793  0.00  0.00    +0.000 HD
BRANCH   9  11
ATOM     11  C   UNL     1       5.156   3.908  16.635  0.00  0.00    +0.000 A 
ATOM     12  C   UNL     1       6.278   4.564  17.163  0.00  0.00    +0.000 A 
ATOM     13  C   UNL     1       7.213   5.175  16.322  0.00  0.00    +0.000 A 
ATOM     14  C   UNL     1       7.047   5.128  14.940  0.00  0.00    +0.000 A 
ATOM     15  C   UNL     1       5.958   4.452  14.398  0.00  0.00    +0.000 A 
ATOM     16  C   UNL     1       5.020   3.850  15.240  0.00  0.00    +0.000 A 
ENDBRANCH   9  11
BRANCH   6  17
ATOM     17  C   UNL     1       1.180   2.958  19.750  0.00  0.00    +0.000 C 
ATOM     18  F   UNL     1       0.882   4.240  20.111  0.00  0.00    +0.000 F 
ATOM     19  F   UNL     1       0.091   2.488  19.085  0.00  0.00    +0.000 F 
ATOM     20  F   UNL     1       1.275   2.253  20.908  0.00  0.00    +0.000 F 
ENDBRANCH   6  17
ENDBRANCH   3   5
BRANCH   1  21
ATOM     21  C   UNL     1       2.677   7.624  18.339  0.00  0.00    +0.000 C 
BRANCH  21  24
ATOM     22  C   UNL     1       0.608   9.301  20.719  0.00  0.00    +0.000 A 
ATOM     23  C   UNL     1       1.212   9.328  19.483  0.00  0.00    +0.000 A 
ATOM     24  N   UNL     1       1.894   8.153  19.429  0.00  0.00    +0.000 N 
ATOM     25  N   UNL     1       1.723   7.427  20.547  0.00  0.00    +0.000 NA
ATOM     26  N   UNL     1       0.932   8.126  21.352  0.00  0.00    +0.000 NA
BRANCH  22  30
ATOM     27  C   UNL     1      -2.078  12.208  22.322  0.00  0.00    +0.000 A 
ATOM     28  C   UNL     1      -1.505  11.230  23.145  0.00  0.00    +0.000 A 
ATOM     29  C   UNL     1      -0.605  10.297  22.622  0.00  0.00    +0.000 A 
ATOM     30  C   UNL     1      -0.284  10.307  21.260  0.00  0.00    +0.000 A 
ATOM     31  C   UNL     1      -0.858  11.285  20.437  0.00  0.00    +0.000 A 
ATOM     32  C   UNL     1      -1.745  12.227  20.964  0.00  0.00    +0.000 A 
BRANCH  27  33
ATOM     33  C   UNL     1      -3.050  13.218  22.883  0.00  0.00    +0.000 C 
BRANCH  33  34
ATOM     34  C   UNL     1      -4.482  12.974  22.403  0.00  0.00    +0.000 C 
BRANCH  34  35
ATOM     35  C   UNL     1      -4.873  13.957  21.300  0.00  0.00    +0.000 C 
BRANCH  35  37
ATOM     36  C   UNL     1      -6.292  11.960  20.728  0.00  0.00    +0.000 C 
ATOM     37  C   UNL     1      -6.087  13.452  20.523  0.00  0.00    +0.000 C 
ENDBRANCH  35  37
ENDBRANCH  34  35
ENDBRANCH  33  34
ENDBRANCH  27  33
ENDBRANCH  22  30
ENDBRANCH  21  24
ENDBRANCH   1  21
TORSDOF 10
ENDMDL
MODEL 8
REMARK VINA RESULT:      -8.7      0.846      1.637
REMARK  Name = 
REMARK  11 active torsions:
REMARK  status: ('A' for Active; 'I' for Inactive)
REMARK    1  A    between atoms: C_1  and  C_2
REMARK    2  A    between atoms: C_2  and  C_3
REMARK    3  A    between atoms: C_3  and  C_4
REMARK    4  A    between atoms: C_4  and  C_5
REMARK    5  A    between atoms: C_5  and  C_6
REMARK    6  A    between atoms: C_9  and  C_10
REMARK    7  A    between atoms: N_12  and  C_13
REMARK    8  A    between atoms: C_13  and  C_14
REMARK    9  A    between atoms: N_16  and  C_17
REMARK   10  A    between atoms: C_18  and  C_19
REMARK   11  A    between atoms: C_25  and  C_26
REMARK                            x       y       z     vdW  Elec       q    Type
REMARK                         _______ _______ _______ _____ _____    ______ ____
ROOT
ATOM      1  C   UNL     1       3.179   6.452  18.517  0.00  0.00    +0.000 C 
ATOM      2  O   UNL     1       4.183   6.391  19.226  0.00  0.00    +0.000 OA
ATOM      3  N   UNL     1       2.456   5.343  18.087  0.00  0.00    +0.000 N 
ATOM      4  H   UNL     1       2.118   5.450  17.128  0.00  0.00    +0.000 HD
ENDROOT
BRANCH   3   5
ATOM      5  C   UNL     1       2.959   4.086  18.401  0.00  0.00    +0.000 A 
ATOM      6  C   UNL     1       2.458   3.137  19.342  0.00  0.00    +0.000 A 
ATOM      7  N   UNL     1       3.239   2.038  19.365  0.00  0.00    +0.000 NA
ATOM      8  N   UNL     1       4.185   2.286  18.446  0.00  0.00    +0.000 N 
ATOM      9  C   UNL     1       4.083   3.509  17.833  0.00  0.00    +0.000 A 
ATOM     10  H   UNL     1       4.906   1.587  18.307  0.00  0.00    +0.000 HD
BRANCH   9  11
ATOM     11  C   UNL     1       5.088   3.993  16.879  0.00  0.00    +0.000 A 
ATOM     12  C   UNL     1       4.833   4.013  15.499  0.00  0.00    +0.000 A 
ATOM     13  C   UNL     1       5.832   4.375  14.591  0.00  0.00    +0.000 A 
ATOM     14  C   UNL     1       7.097   4.735  15.049  0.00  0.00    +0.000 A 
ATOM     15  C   UNL     1       7.357   4.754  16.415  0.00  0.00    +0.000 A 
ATOM     16  C   UNL     1       6.360   4.383  17.322  0.00  0.00    +0.000 A 
ENDBRANCH   9  11
BRANCH   6  17
ATOM     17  C   UNL     1       1.218   3.257  20.179  0.00  0.00    +0.000 C 
ATOM     18  F   UNL     1       1.073   4.511  20.697  0.00  0.00    +0.000 F 
ATOM     19  F   UNL     1       0.081   3.002  19.478  0.00  0.00    +0.000 F 
ATOM     20  F   UNL     1       1.228   2.410  21.243  0.00  0.00    +0.000 F 
ENDBRANCH   6  17
ENDBRANCH   3   5
BRANCH   1  21
ATOM     21  C   UNL     1       2.613   7.791  18.102  0.00  0.00    +0.000 C 
BRANCH  21  24
ATOM     22  C   UNL     1       0.511   9.613  20.342  0.00  0.00    +0.000 A 
ATOM     23  C   UNL     1       1.079   9.530  19.092  0.00  0.00    +0.000 A 
ATOM     24  N   UNL     1       1.830   8.398  19.150  0.00  0.00    +0.000 N 
ATOM     25  N   UNL     1       1.732   7.798  20.349  0.00  0.00    +0.000 NA
ATOM     26  N   UNL     1       0.922   8.540  21.095  0.00  0.00    +0.000 NA
BRANCH  22  30
ATOM     27  C   UNL     1      -2.296  12.530  21.700  0.00  0.00    +0.000 A 
ATOM     28  C   UNL     1      -1.524  11.799  22.611  0.00  0.00    +0.000 A 
ATOM     29  C   UNL     1      -0.586  10.864  22.162  0.00  0.00    +0.000 A 
ATOM     30  C   UNL     1      -0.424  10.624  20.794  0.00  0.00    +0.000 A 
ATOM     31  C   UNL     1      -1.198  11.355  19.882  0.00  0.00    +0.000 A 
ATOM     32  C   UNL     1      -2.124  12.300  20.332  0.00  0.00    +0.000 A 
BRANCH  27  33
ATOM     33  C   UNL     1      -3.309  13.541  22.181  0.00  0.00    +0.000 C 
BRANCH  33  34
ATOM     34  C   UNL     1      -4.163  13.004  23.332  0.00  0.00    +0.000 C 
BRANCH  34  35
ATOM     35  C   UNL     1      -4.588  14.127  24.278  0.00  0.00    +0.000 C 
BRANCH  35  37
ATOM     36  C   UNL     1      -2.588  15.074  25.475  0.00  0.00    +0.000 C 
ATOM     37  C   UNL     1      -3.546  15.242  24.307  0.00  0.00    +0.000 C 
ENDBRANCH  35  37
ENDBRANCH  34  35
ENDBRANCH  33  34
ENDBRANCH  27  33
ENDBRANCH  22  30
ENDBRANCH  21  24
ENDBRANCH   1  21
TORSDOF 10
ENDMDL
MODEL 9
REMARK VINA RESULT:      -8.6      1.377      1.862
REMARK  Name = 
REMARK  11 active torsions:
REMARK  status: ('A' for Active; 'I' for Inactive)
REMARK    1  A    between atoms: C_1  and  C_2
REMARK    2  A    between atoms: C_2  and  C_3
REMARK    3  A    between atoms: C_3  and  C_4
REMARK    4  A    between atoms: C_4  and  C_5
REMARK    5  A    between atoms: C_5  and  C_6
REMARK    6  A    between atoms: C_9  and  C_10
REMARK    7  A    between atoms: N_12  and  C_13
REMARK    8  A    between atoms: C_13  and  C_14
REMARK    9  A    between atoms: N_16  and  C_17
REMARK   10  A    between atoms: C_18  and  C_19
REMARK   11  A    between atoms: C_25  and  C_26
REMARK                            x       y       z     vdW  Elec       q    Type
REMARK                         _______ _______ _______ _____ _____    ______ ____
ROOT
ATOM      1  C   UNL     1       2.548   6.582  18.347  0.00  0.00    +0.000 C 
ATOM      2  O   UNL     1       1.767   5.957  17.628  0.00  0.00    +0.000 OA
ATOM      3  N   UNL     1       3.553   5.993  19.107  0.00  0.00    +0.000 N 
ATOM      4  H   UNL     1       3.668   6.447  20.016  0.00  0.00    +0.000 HD
ENDROOT
BRANCH   3   5
ATOM      5  C   UNL     1       3.614   4.604  19.128  0.00  0.00    +0.000 A 
ATOM      6  C   UNL     1       2.971   3.698  20.024  0.00  0.00    +0.000 A 
ATOM      7  N   UNL     1       3.295   2.425  19.722  0.00  0.00    +0.000 NA
ATOM      8  N   UNL     1       4.096   2.534  18.651  0.00  0.00    +0.000 N 
ATOM      9  C   UNL     1       4.341   3.821  18.245  0.00  0.00    +0.000 A 
ATOM     10  H   UNL     1       4.481   1.682  18.259  0.00  0.00    +0.000 HD
BRANCH   9  11
ATOM     11  C   UNL     1       5.276   4.135  17.158  0.00  0.00    +0.000 A 
ATOM     12  C   UNL     1       4.910   3.976  15.813  0.00  0.00    +0.000 A 
ATOM     13  C   UNL     1       5.840   4.177  14.789  0.00  0.00    +0.000 A 
ATOM     14  C   UNL     1       7.146   4.551  15.094  0.00  0.00    +0.000 A 
ATOM     15  C   UNL     1       7.517   4.746  16.420  0.00  0.00    +0.000 A 
ATOM     16  C   UNL     1       6.589   4.537  17.444  0.00  0.00    +0.000 A 
ENDBRANCH   9  11
BRANCH   6  17
ATOM     17  C   UNL     1       2.018   4.042  21.132  0.00  0.00    +0.000 C 
ATOM     18  F   UNL     1       2.503   5.038  21.929  0.00  0.00    +0.000 F 
ATOM     19  F   UNL     1       0.813   4.474  20.676  0.00  0.00    +0.000 F 
ATOM     20  F   UNL     1       1.778   2.986  21.954  0.00  0.00    +0.000 F 
ENDBRANCH   6  17
ENDBRANCH   3   5
BRANCH   1  21
ATOM     21  C   UNL     1       2.497   8.091  18.403  0.00  0.00    +0.000 C 
BRANCH  21  24
ATOM     22  C   UNL     1       0.360   9.649  20.803  0.00  0.00    +0.000 A 
ATOM     23  C   UNL     1       0.988   9.731  19.583  0.00  0.00    +0.000 A 
ATOM     24  N   UNL     1       1.686   8.568  19.497  0.00  0.00    +0.000 N 
ATOM     25  N   UNL     1       1.502   7.796  20.582  0.00  0.00    +0.000 NA
ATOM     26  N   UNL     1       0.686   8.453  21.397  0.00  0.00    +0.000 NA
BRANCH  22  30
ATOM     27  C   UNL     1      -2.393  12.457  22.467  0.00  0.00    +0.000 A 
ATOM     28  C   UNL     1      -1.783  11.488  23.272  0.00  0.00    +0.000 A 
ATOM     29  C   UNL     1      -0.862  10.587  22.730  0.00  0.00    +0.000 A 
ATOM     30  C   UNL     1      -0.555  10.622  21.366  0.00  0.00    +0.000 A 
ATOM     31  C   UNL     1      -1.166  11.592  20.560  0.00  0.00    +0.000 A 
ATOM     32  C   UNL     1      -2.075  12.502  21.106  0.00  0.00    +0.000 A 
BRANCH  27  33
ATOM     33  C   UNL     1      -3.388  13.433  23.049  0.00  0.00    +0.000 C 
BRANCH  33  34
ATOM     34  C   UNL     1      -3.445  14.743  22.261  0.00  0.00    +0.000 C 
BRANCH  34  35
ATOM     35  C   UNL     1      -4.622  15.609  22.707  0.00  0.00    +0.000 C 
BRANCH  35  37
ATOM     36  C   UNL     1      -4.641  16.832  24.905  0.00  0.00    +0.000 C 
ATOM     37  C   UNL     1      -4.845  15.494  24.213  0.00  0.00    +0.000 C 
ENDBRANCH  35  37
ENDBRANCH  34  35
ENDBRANCH  33  34
ENDBRANCH  27  33
ENDBRANCH  22  30
ENDBRANCH  21  24
ENDBRANCH   1  21
TORSDOF 10
ENDMDL
