MODEL 1
REMARK VINA RESULT:      -7.1      0.000      0.000
REMARK  Name = 
REMARK  6 active torsions:
REMARK  status: ('A' for Active; 'I' for Inactive)
REMARK    1  A    between atoms: C_1  and  N_2
REMARK    2  A    between atoms: N_2  and  C_3
REMARK    3  A    between atoms: N_2  and  C_4
REMARK    4  A    between atoms: C_4  and  C_5
REMARK    5  A    between atoms: C_5  and  N_6
REMARK    6  A    between atoms: N_6  and  C_7
REMARK                            x       y       z     vdW  Elec       q    Type
REMARK                         _______ _______ _______ _____ _____    ______ ____
ROOT
ATOM      1  C   UNL     1       4.752   4.321  18.892  0.00  0.00    +0.000 A 
ATOM      2  N   UNL     1       3.943   5.061  19.675  0.00  0.00    +0.000 NA
ATOM      3  C   UNL     1       3.405   6.181  19.198  0.00  0.00    +0.000 A 
ATOM      4  C   UNL     1       2.500   6.844  20.010  0.00  0.00    +0.000 A 
ATOM      5  C   UNL     1       1.808   7.973  19.573  0.00  0.00    +0.000 A 
ATOM      6  C   UNL     1       2.047   8.459  18.299  0.00  0.00    +0.000 A 
ATOM      7  C   UNL     1       2.984   7.818  17.491  0.00  0.00    +0.000 A 
ATOM      8  C   UNL     1       3.687   6.669  17.918  0.00  0.00    +0.000 A 
ATOM      9  C   UNL     1       4.643   5.962  17.136  0.00  0.00    +0.000 A 
ATOM     10  C   UNL     1       5.188   4.766  17.631  0.00  0.00    +0.000 A 
ATOM     11  C   UNL     1       6.179   3.956  16.841  0.00  0.00    +0.000 C 
ATOM     12  C   UNL     1       6.507   4.401  15.419  0.00  0.00    +0.000 C 
ATOM     13  C   UNL     1       6.173   5.827  15.044  0.00  0.00    +0.000 C 
ATOM     14  C   UNL     1       4.993   6.465  15.762  0.00  0.00    +0.000 C 
ENDROOT
BRANCH   1  15
ATOM     15  N   UNL     1       5.136   3.049  19.381  0.00  0.00    +0.000 N 
ATOM     16  H   UNL     1       5.389   2.472  18.579  0.00  0.00    +0.000 HD
BRANCH  15  17
ATOM     17  C   UNL     1       4.004   2.356  20.029  0.00  0.00    +0.000 C 
BRANCH  17  18
ATOM     18  C   UNL     1       3.007   1.814  18.965  0.00  0.00    +0.000 C 
BRANCH  18  20
ATOM     19  C   UNL     1       1.404   2.677  20.579  0.00  0.00    +0.000 C 
ATOM     20  N   UNL     1       1.595   2.215  19.204  0.00  0.00    +0.000 NA
ATOM     21  C   UNL     1       1.225   3.282  18.267  0.00  0.00    +0.000 C 
ENDBRANCH  18  20
ENDBRANCH  17  18
ENDBRANCH  15  17
ENDBRANCH   1  15
TORSDOF 4
ENDMDL
MODEL 2
REMARK VINA RESULT:      -7.0      2.355      5.856
REMARK  Name = 
REMARK  6 active torsions:
REMARK  status: ('A' for Active; 'I' for Inactive)
REMARK    1  A    between atoms: C_1  and  N_2
REMARK    2  A    between atoms: N_2  and  C_3
REMARK    3  A    between atoms: N_2  and  C_4
REMARK    4  A    between atoms: C_4  and  C_5
REMARK    5  A    between atoms: C_5  and  N_6
REMARK    6  A    between atoms: N_6  and  C_7
REMARK                            x       y       z     vdW  Elec       q    Type
REMARK                         _______ _______ _______ _____ _____    ______ ____
ROOT
ATOM      1  C   UNL     1       2.827   6.897  18.635  0.00  0.00    +0.000 A 
ATOM      2  N   UNL     1       3.722   7.126  17.654  0.00  0.00    +0.000 NA
ATOM      3  C   UNL     1       4.331   6.101  17.062  0.00  0.00    +0.000 A 
ATOM      4  C   UNL     1       5.160   6.390  15.992  0.00  0.00    +0.000 A 
ATOM      5  C   UNL     1       5.773   5.386  15.243  0.00  0.00    +0.000 A 
ATOM      6  C   UNL     1       5.564   4.062  15.592  0.00  0.00    +0.000 A 
ATOM      7  C   UNL     1       4.761   3.767  16.692  0.00  0.00    +0.000 A 
ATOM      8  C   UNL     1       4.128   4.773  17.455  0.00  0.00    +0.000 A 
ATOM      9  C   UNL     1       3.286   4.537  18.577  0.00  0.00    +0.000 A 
ATOM     10  C   UNL     1       2.623   5.617  19.181  0.00  0.00    +0.000 A 
ATOM     11  C   UNL     1       1.695   5.429  20.350  0.00  0.00    +0.000 C 
ATOM     12  C   UNL     1       1.391   4.007  20.811  0.00  0.00    +0.000 C 
ATOM     13  C   UNL     1       2.344   2.917  20.373  0.00  0.00    +0.000 C 
ATOM     14  C   UNL     1       3.059   3.125  19.047  0.00  0.00    +0.000 C 
ENDROOT
BRANCH   1  15
ATOM     15  N   UNL     1       2.070   8.005  19.089  0.00  0.00    +0.000 N 
ATOM     16  H   UNL     1       1.131   7.671  19.304  0.00  0.00    +0.000 HD
BRANCH  15  17
ATOM     17  C   UNL     1       1.900   9.015  18.025  0.00  0.00    +0.000 C 
BRANCH  17  18
ATOM     18  C   UNL     1       1.193  10.286  18.580  0.00  0.00    +0.000 C 
BRANCH  18  20
ATOM     19  C   UNL     1      -0.351  10.806  20.386  0.00  0.00    +0.000 C 
ATOM     20  N   UNL     1      -0.146  10.020  19.170  0.00  0.00    +0.000 NA
ATOM     21  C   UNL     1      -1.185  10.345  18.187  0.00  0.00    +0.000 C 
ENDBRANCH  18  20
ENDBRANCH  17  18
ENDBRANCH  15  17
ENDBRANCH   1  15
TORSDOF 4
ENDMDL
MODEL 3
REMARK VINA RESULT:      -7.0      1.778      4.634
REMARK  Name = 
REMARK  6 active torsions:
REMARK  status: ('A' for Active; 'I' for Inactive)
REMARK    1  A    between atoms: C_1  and  N_2
REMARK    2  A    between atoms: N_2  and  C_3
REMARK    3  A    between atoms: N_2  and  C_4
REMARK    4  A    between atoms: C_4  and  C_5
REMARK    5  A    between atoms: C_5  and  N_6
REMARK    6  A    between atoms: N_6  and  C_7
REMARK                            x       y       z     vdW  Elec       q    Type
REMARK                         _______ _______ _______ _____ _____    ______ ____
ROOT
ATOM      1  C   UNL     1       4.108   4.448  17.998  0.00  0.00    +0.000 A 
ATOM      2  N   UNL     1       3.851   5.633  17.409  0.00  0.00    +0.000 NA
ATOM      3  C   UNL     1       3.117   6.542  18.045  0.00  0.00    +0.000 A 
ATOM      4  C   UNL     1       2.973   7.778  17.437  0.00  0.00    +0.000 A 
ATOM      5  C   UNL     1       2.303   8.831  18.059  0.00  0.00    +0.000 A 
ATOM      6  C   UNL     1       1.748   8.632  19.311  0.00  0.00    +0.000 A 
ATOM      7  C   UNL     1       1.856   7.378  19.912  0.00  0.00    +0.000 A 
ATOM      8  C   UNL     1       2.538   6.305  19.297  0.00  0.00    +0.000 A 
ATOM      9  C   UNL     1       2.696   5.009  19.863  0.00  0.00    +0.000 A 
ATOM     10  C   UNL     1       3.495   4.061  19.203  0.00  0.00    +0.000 A 
ATOM     11  C   UNL     1       3.728   2.685  19.765  0.00  0.00    +0.000 C 
ATOM     12  C   UNL     1       3.163   2.363  21.145  0.00  0.00    +0.000 C 
ATOM     13  C   UNL     1       2.063   3.258  21.671  0.00  0.00    +0.000 C 
ATOM     14  C   UNL     1       2.071   4.703  21.197  0.00  0.00    +0.000 C 
ENDROOT
BRANCH   1  15
ATOM     15  N   UNL     1       5.051   3.604  17.363  0.00  0.00    +0.000 N 
ATOM     16  H   UNL     1       5.623   3.177  18.091  0.00  0.00    +0.000 HD
BRANCH  15  17
ATOM     17  C   UNL     1       5.987   4.376  16.521  0.00  0.00    +0.000 C 
BRANCH  17  18
ATOM     18  C   UNL     1       7.279   4.730  17.315  0.00  0.00    +0.000 C 
BRANCH  18  20
ATOM     19  C   UNL     1       7.931   5.733  19.433  0.00  0.00    +0.000 C 
ATOM     20  N   UNL     1       7.125   5.897  18.223  0.00  0.00    +0.000 NA
ATOM     21  C   UNL     1       7.529   7.119  17.520  0.00  0.00    +0.000 C 
ENDBRANCH  18  20
ENDBRANCH  17  18
ENDBRANCH  15  17
ENDBRANCH   1  15
TORSDOF 4
ENDMDL
MODEL 4
REMARK VINA RESULT:      -6.9      1.949      5.167
REMARK  Name = 
REMARK  6 active torsions:
REMARK  status: ('A' for Active; 'I' for Inactive)
REMARK    1  A    between atoms: C_1  and  N_2
REMARK    2  A    between atoms: N_2  and  C_3
REMARK    3  A    between atoms: N_2  and  C_4
REMARK    4  A    between atoms: C_4  and  C_5
REMARK    5  A    between atoms: C_5  and  N_6
REMARK    6  A    between atoms: N_6  and  C_7
REMARK                            x       y       z     vdW  Elec       q    Type
REMARK                         _______ _______ _______ _____ _____    ______ ____
ROOT
ATOM      1  C   UNL     1       4.203   5.044  17.725  0.00  0.00    +0.000 A 
ATOM      2  N   UNL     1       4.327   3.922  18.462  0.00  0.00    +0.000 NA
ATOM      3  C   UNL     1       3.604   3.776  19.569  0.00  0.00    +0.000 A 
ATOM      4  C   UNL     1       3.694   2.562  20.228  0.00  0.00    +0.000 A 
ATOM      5  C   UNL     1       2.910   2.268  21.343  0.00  0.00    +0.000 A 
ATOM      6  C   UNL     1       2.030   3.225  21.820  0.00  0.00    +0.000 A 
ATOM      7  C   UNL     1       1.962   4.464  21.183  0.00  0.00    +0.000 A 
ATOM      8  C   UNL     1       2.745   4.772  20.048  0.00  0.00    +0.000 A 
ATOM      9  C   UNL     1       2.711   6.009  19.346  0.00  0.00    +0.000 A 
ATOM     10  C   UNL     1       3.454   6.151  18.163  0.00  0.00    +0.000 A 
ATOM     11  C   UNL     1       3.435   7.421  17.358  0.00  0.00    +0.000 C 
ATOM     12  C   UNL     1       2.493   8.539  17.793  0.00  0.00    +0.000 C 
ATOM     13  C   UNL     1       1.968   8.492  19.212  0.00  0.00    +0.000 C 
ATOM     14  C   UNL     1       1.819   7.115  19.840  0.00  0.00    +0.000 C 
ENDROOT
BRANCH   1  15
ATOM     15  N   UNL     1       4.845   5.061  16.463  0.00  0.00    +0.000 N 
ATOM     16  H   UNL     1       4.429   4.325  15.894  0.00  0.00    +0.000 HD
BRANCH  15  17
ATOM     17  C   UNL     1       6.276   4.712  16.580  0.00  0.00    +0.000 C 
BRANCH  17  18
ATOM     18  C   UNL     1       7.158   5.994  16.566  0.00  0.00    +0.000 C 
BRANCH  18  20
ATOM     19  C   UNL     1       7.761   5.991  18.923  0.00  0.00    +0.000 C 
ATOM     20  N   UNL     1       7.135   6.755  17.844  0.00  0.00    +0.000 NA
ATOM     21  C   UNL     1       7.838   8.030  17.665  0.00  0.00    +0.000 C 
ENDBRANCH  18  20
ENDBRANCH  17  18
ENDBRANCH  15  17
ENDBRANCH   1  15
TORSDOF 4
ENDMDL
MODEL 5
REMARK VINA RESULT:      -6.9      1.812      5.316
REMARK  Name = 
REMARK  6 active torsions:
REMARK  status: ('A' for Active; 'I' for Inactive)
REMARK    1  A    between atoms: C_1  and  N_2
REMARK    2  A    between atoms: N_2  and  C_3
REMARK    3  A    between atoms: N_2  and  C_4
REMARK    4  A    between atoms: C_4  and  C_5
REMARK    5  A    between atoms: C_5  and  N_6
REMARK    6  A    between atoms: N_6  and  C_7
REMARK                            x       y       z     vdW  Elec       q    Type
REMARK                         _______ _______ _______ _____ _____    ______ ____
ROOT
ATOM      1  C   UNL     1       3.878   5.674  17.796  0.00  0.00    +0.000 A 
ATOM      2  N   UNL     1       4.147   4.483  18.366  0.00  0.00    +0.000 NA
ATOM      3  C   UNL     1       3.524   4.130  19.487  0.00  0.00    +0.000 A 
ATOM      4  C   UNL     1       3.762   2.855  19.969  0.00  0.00    +0.000 A 
ATOM      5  C   UNL     1       3.090   2.350  21.083  0.00  0.00    +0.000 A 
ATOM      6  C   UNL     1       2.173   3.155  21.738  0.00  0.00    +0.000 A 
ATOM      7  C   UNL     1       1.958   4.454  21.280  0.00  0.00    +0.000 A 
ATOM      8  C   UNL     1       2.626   4.974  20.150  0.00  0.00    +0.000 A 
ATOM      9  C   UNL     1       2.439   6.284  19.624  0.00  0.00    +0.000 A 
ATOM     10  C   UNL     1       3.076   6.643  18.426  0.00  0.00    +0.000 A 
ATOM     11  C   UNL     1       2.894   8.000  17.803  0.00  0.00    +0.000 C 
ATOM     12  C   UNL     1       1.900   8.963  18.443  0.00  0.00    +0.000 C 
ATOM     13  C   UNL     1       1.489   8.686  19.873  0.00  0.00    +0.000 C 
ATOM     14  C   UNL     1       1.499   7.232  20.319  0.00  0.00    +0.000 C 
ENDROOT
BRANCH   1  15
ATOM     15  N   UNL     1       4.420   5.911  16.510  0.00  0.00    +0.000 N 
ATOM     16  H   UNL     1       3.656   5.860  15.838  0.00  0.00    +0.000 HD
BRANCH  15  17
ATOM     17  C   UNL     1       5.367   4.847  16.118  0.00  0.00    +0.000 C 
BRANCH  17  18
ATOM     18  C   UNL     1       6.722   5.457  15.658  0.00  0.00    +0.000 C 
BRANCH  18  20
ATOM     19  C   UNL     1       7.392   6.960  17.450  0.00  0.00    +0.000 C 
ATOM     20  N   UNL     1       7.682   5.698  16.768  0.00  0.00    +0.000 NA
ATOM     21  C   UNL     1       7.609   4.589  17.726  0.00  0.00    +0.000 C 
ENDBRANCH  18  20
ENDBRANCH  17  18
ENDBRANCH  15  17
ENDBRANCH   1  15
TORSDOF 4
ENDMDL
MODEL 6
REMARK VINA RESULT:      -6.9      2.299      5.789
REMARK  Name = 
REMARK  6 active torsions:
REMARK  status: ('A' for Active; 'I' for Inactive)
REMARK    1  A    between atoms: C_1  and  N_2
REMARK    2  A    between atoms: N_2  and  C_3
REMARK    3  A    between atoms: N_2  and  C_4
REMARK    4  A    between atoms: C_4  and  C_5
REMARK    5  A    between atoms: C_5  and  N_6
REMARK    6  A    between atoms: N_6  and  C_7
REMARK                            x       y       z     vdW  Elec       q    Type
REMARK                         _______ _______ _______ _____ _____    ______ ____
ROOT
ATOM      1  C   UNL     1       2.714   6.447  19.345  0.00  0.00    +0.000 A 
ATOM      2  N   UNL     1       3.634   6.884  18.462  0.00  0.00    +0.000 NA
ATOM      3  C   UNL     1       4.145   6.040  17.569  0.00  0.00    +0.000 A 
ATOM      4  C   UNL     1       5.006   6.568  16.621  0.00  0.00    +0.000 A 
ATOM      5  C   UNL     1       5.525   5.792  15.585  0.00  0.00    +0.000 A 
ATOM      6  C   UNL     1       5.186   4.452  15.511  0.00  0.00    +0.000 A 
ATOM      7  C   UNL     1       4.350   3.907  16.484  0.00  0.00    +0.000 A 
ATOM      8  C   UNL     1       3.812   4.682  17.535  0.00  0.00    +0.000 A 
ATOM      9  C   UNL     1       2.942   4.189  18.548  0.00  0.00    +0.000 A 
ATOM     10  C   UNL     1       2.383   5.086  19.472  0.00  0.00    +0.000 A 
ATOM     11  C   UNL     1       1.432   4.634  20.546  0.00  0.00    +0.000 C 
ATOM     12  C   UNL     1       0.988   3.174  20.551  0.00  0.00    +0.000 C 
ATOM     13  C   UNL     1       1.834   2.189  19.775  0.00  0.00    +0.000 C 
ATOM     14  C   UNL     1       2.576   2.730  18.563  0.00  0.00    +0.000 C 
ENDROOT
BRANCH   1  15
ATOM     15  N   UNL     1       2.065   7.425  20.137  0.00  0.00    +0.000 N 
ATOM     16  H   UNL     1       1.185   7.027  20.462  0.00  0.00    +0.000 HD
BRANCH  15  17
ATOM     17  C   UNL     1       1.695   8.610  19.336  0.00  0.00    +0.000 C 
BRANCH  17  18
ATOM     18  C   UNL     1       0.818   9.588  20.171  0.00  0.00    +0.000 C 
BRANCH  18  20
ATOM     19  C   UNL     1       1.390  11.530  18.821  0.00  0.00    +0.000 C 
ATOM     20  N   UNL     1       0.297  10.743  19.393  0.00  0.00    +0.000 NA
ATOM     21  C   UNL     1      -0.576  10.254  18.320  0.00  0.00    +0.000 C 
ENDBRANCH  18  20
ENDBRANCH  17  18
ENDBRANCH  15  17
ENDBRANCH   1  15
TORSDOF 4
ENDMDL
MODEL 7
REMARK VINA RESULT:      -6.8      1.987      4.795
REMARK  Name = 
REMARK  6 active torsions:
REMARK  status: ('A' for Active; 'I' for Inactive)
REMARK    1  A    between atoms: C_1  and  N_2
REMARK    2  A    between atoms: N_2  and  C_3
REMARK    3  A    between atoms: N_2  and  C_4
REMARK    4  A    between atoms: C_4  and  C_5
REMARK    5  A    between atoms: C_5  and  N_6
REMARK    6  A    between atoms: N_6  and  C_7
REMARK                            x       y       z     vdW  Elec       q    Type
REMARK                         _______ _______ _______ _____ _____    ______ ____
ROOT
ATOM      1  C   UNL     1       3.668   5.384  17.807  0.00  0.00    +0.000 A 
ATOM      2  N   UNL     1       3.180   6.623  17.598  0.00  0.00    +0.000 NA
ATOM      3  C   UNL     1       2.476   7.226  18.553  0.00  0.00    +0.000 A 
ATOM      4  C   UNL     1       2.090   8.535  18.323  0.00  0.00    +0.000 A 
ATOM      5  C   UNL     1       1.431   9.291  19.293  0.00  0.00    +0.000 A 
ATOM      6  C   UNL     1       1.137   8.709  20.515  0.00  0.00    +0.000 A 
ATOM      7  C   UNL     1       1.490   7.380  20.738  0.00  0.00    +0.000 A 
ATOM      8  C   UNL     1       2.163   6.605  19.767  0.00  0.00    +0.000 A 
ATOM      9  C   UNL     1       2.564   5.251  19.940  0.00  0.00    +0.000 A 
ATOM     10  C   UNL     1       3.329   4.626  18.942  0.00  0.00    +0.000 A 
ATOM     11  C   UNL     1       3.810   3.207  19.079  0.00  0.00    +0.000 C 
ATOM     12  C   UNL     1       3.544   2.476  20.391  0.00  0.00    +0.000 C 
ATOM     13  C   UNL     1       2.465   3.037  21.291  0.00  0.00    +0.000 C 
ATOM     14  C   UNL     1       2.228   4.538  21.221  0.00  0.00    +0.000 C 
ENDROOT
BRANCH   1  15
ATOM     15  N   UNL     1       4.568   4.874  16.840  0.00  0.00    +0.000 N 
ATOM     16  H   UNL     1       5.172   4.198  17.306  0.00  0.00    +0.000 HD
BRANCH  15  17
ATOM     17  C   UNL     1       5.468   5.929  16.330  0.00  0.00    +0.000 C 
BRANCH  17  18
ATOM     18  C   UNL     1       6.956   5.486  16.443  0.00  0.00    +0.000 C 
BRANCH  18  20
ATOM     19  C   UNL     1       7.348   7.656  17.471  0.00  0.00    +0.000 C 
ATOM     20  N   UNL     1       7.733   6.245  17.459  0.00  0.00    +0.000 NA
ATOM     21  C   UNL     1       7.509   5.658  18.785  0.00  0.00    +0.000 C 
ENDBRANCH  18  20
ENDBRANCH  17  18
ENDBRANCH  15  17
ENDBRANCH   1  15
TORSDOF 4
ENDMDL
MODEL 8
REMARK VINA RESULT:      -6.8      1.057      4.061
REMARK  Name = 
REMARK  6 active torsions:
REMARK  status: ('A' for Active; 'I' for Inactive)
REMARK    1  A    between atoms: C_1  and  N_2
REMARK    2  A    between atoms: N_2  and  C_3
REMARK    3  A    between atoms: N_2  and  C_4
REMARK    4  A    between atoms: C_4  and  C_5
REMARK    5  A    between atoms: C_5  and  N_6
REMARK    6  A    between atoms: N_6  and  C_7
REMARK                            x       y       z     vdW  Elec       q    Type
REMARK                         _______ _______ _______ _____ _____    ______ ____
ROOT
ATOM      1  C   UNL     1       2.926   5.518  19.858  0.00  0.00    +0.000 A 
ATOM      2  N   UNL     1       3.699   4.732  19.082  0.00  0.00    +0.000 NA
ATOM      3  C   UNL     1       4.202   5.213  17.948  0.00  0.00    +0.000 A 
ATOM      4  C   UNL     1       5.072   4.397  17.246  0.00  0.00    +0.000 A 
ATOM      5  C   UNL     1       5.727   4.836  16.095  0.00  0.00    +0.000 A 
ATOM      6  C   UNL     1       5.487   6.117  15.630  0.00  0.00    +0.000 A 
ATOM      7  C   UNL     1       4.583   6.930  16.312  0.00  0.00    +0.000 A 
ATOM      8  C   UNL     1       3.917   6.501  17.482  0.00  0.00    +0.000 A 
ATOM      9  C   UNL     1       2.997   7.287  18.230  0.00  0.00    +0.000 A 
ATOM     10  C   UNL     1       2.490   6.788  19.440  0.00  0.00    +0.000 A 
ATOM     11  C   UNL     1       1.538   7.582  20.293  0.00  0.00    +0.000 C 
ATOM     12  C   UNL     1       1.211   9.011  19.873  0.00  0.00    +0.000 C 
ATOM     13  C   UNL     1       1.498   9.395  18.438  0.00  0.00    +0.000 C 
ATOM     14  C   UNL     1       2.645   8.669  17.752  0.00  0.00    +0.000 C 
ENDROOT
BRANCH   1  15
ATOM     15  N   UNL     1       2.583   5.021  21.139  0.00  0.00    +0.000 N 
ATOM     16  H   UNL     1       3.415   4.586  21.535  0.00  0.00    +0.000 HD
BRANCH  15  17
ATOM     17  C   UNL     1       1.575   3.946  21.050  0.00  0.00    +0.000 C 
BRANCH  17  18
ATOM     18  C   UNL     1       2.259   2.567  20.819  0.00  0.00    +0.000 C 
BRANCH  18  20
ATOM     19  C   UNL     1       0.796   2.657  18.877  0.00  0.00    +0.000 C 
ATOM     20  N   UNL     1       1.802   1.868  19.589  0.00  0.00    +0.000 NA
ATOM     21  C   UNL     1       2.951   1.621  18.711  0.00  0.00    +0.000 C 
ENDBRANCH  18  20
ENDBRANCH  17  18
ENDBRANCH  15  17
ENDBRANCH   1  15
TORSDOF 4
ENDMDL
MODEL 9
REMARK VINA RESULT:      -6.8      2.307      5.600
REMARK  Name = 
REMARK  6 active torsions:
REMARK  status: ('A' for Active; 'I' for Inactive)
REMARK    1  A    between atoms: C_1  and  N_2
REMARK    2  A    between atoms: N_2  and  C_3
REMARK    3  A    between atoms: N_2  and  C_4
REMARK    4  A    between atoms: C_4  and  C_5
REMARK    5  A    between atoms: C_5  and  N_6
REMARK    6  A    between atoms: N_6  and  C_7
REMARK                            x       y       z     vdW  Elec       q    Type
REMARK                         _______ _______ _______ _____ _____    ______ ____
ROOT
ATOM      1  C   UNL     1       2.608   5.984  19.668  0.00  0.00    +0.000 A 
ATOM      2  N   UNL     1       3.630   6.590  19.031  0.00  0.00    +0.000 NA
ATOM      3  C   UNL     1       4.183   6.011  17.968  0.00  0.00    +0.000 A 
ATOM      4  C   UNL     1       5.156   6.727  17.292  0.00  0.00    +0.000 A 
ATOM      5  C   UNL     1       5.733   6.254  16.114  0.00  0.00    +0.000 A 
ATOM      6  C   UNL     1       5.338   5.025  15.615  0.00  0.00    +0.000 A 
ATOM      7  C   UNL     1       4.386   4.282  16.312  0.00  0.00    +0.000 A 
ATOM      8  C   UNL     1       3.788   4.752  17.503  0.00  0.00    +0.000 A 
ATOM      9  C   UNL     1       2.802   4.050  18.251  0.00  0.00    +0.000 A 
ATOM     10  C   UNL     1       2.200   4.675  19.355  0.00  0.00    +0.000 A 
ATOM     11  C   UNL     1       1.130   3.999  20.167  0.00  0.00    +0.000 C 
ATOM     12  C   UNL     1       0.616   2.641  19.700  0.00  0.00    +0.000 C 
ATOM     13  C   UNL     1       1.484   1.866  18.732  0.00  0.00    +0.000 C 
ATOM     14  C   UNL     1       2.365   2.683  17.799  0.00  0.00    +0.000 C 
ENDROOT
BRANCH   1  15
ATOM     15  N   UNL     1       1.935   6.732  20.664  0.00  0.00    +0.000 N 
ATOM     16  H   UNL     1       1.015   6.313  20.796  0.00  0.00    +0.000 HD
BRANCH  15  17
ATOM     17  C   UNL     1       1.682   8.118  20.220  0.00  0.00    +0.000 C 
BRANCH  17  18
ATOM     18  C   UNL     1       1.076   8.965  21.376  0.00  0.00    +0.000 C 
BRANCH  18  20
ATOM     19  C   UNL     1       0.224  10.408  19.612  0.00  0.00    +0.000 C 
ATOM     20  N   UNL     1       0.729  10.357  20.984  0.00  0.00    +0.000 NA
ATOM     21  C   UNL     1      -0.283  10.886  21.905  0.00  0.00    +0.000 C 
ENDBRANCH  18  20
ENDBRANCH  17  18
ENDBRANCH  15  17
ENDBRANCH   1  15
TORSDOF 4
ENDMDL
