MODEL 1
REMARK VINA RESULT:      -9.7      0.000      0.000
REMARK  Name = 
REMARK  3 active torsions:
REMARK  status: ('A' for Active; 'I' for Inactive)
REMARK    1  A    between atoms: O_1  and  C_2
REMARK    2  A    between atoms: C_5  and  C_6
REMARK    3  A    between atoms: C_8  and  C_9
REMARK                            x       y       z     vdW  Elec       q    Type
REMARK                         _______ _______ _______ _____ _____    ______ ____
ROOT
ATOM      1  C   UNL     1       1.634   9.515  18.986  0.00  0.00    +0.000 C 
ATOM      2  C   UNL     1       2.165   8.445  18.046  0.00  0.00    +0.000 C 
ATOM      3  C   UNL     1       2.388   7.287  19.001  0.00  0.00    +0.000 C 
ATOM      4  N   UNL     1       2.058   7.556  20.231  0.00  0.00    +0.000 NA
ATOM      5  N   UNL     1       1.680   8.847  20.273  0.00  0.00    +0.000 N 
ATOM      6  H   UNL     1       0.964   9.101  20.949  0.00  0.00    +0.000 HD
ENDROOT
BRANCH   3   7
ATOM      7  C   UNL     1       2.845   5.927  18.531  0.00  0.00    +0.000 A 
ATOM      8  C   UNL     1       3.828   5.829  17.482  0.00  0.00    +0.000 A 
ATOM      9  C   UNL     1       4.594   6.894  16.941  0.00  0.00    +0.000 A 
ATOM     10  C   UNL     1       5.423   6.763  15.825  0.00  0.00    +0.000 A 
ATOM     11  C   UNL     1       5.618   5.513  15.273  0.00  0.00    +0.000 A 
ATOM     12  C   UNL     1       4.997   4.413  15.853  0.00  0.00    +0.000 A 
ATOM     13  C   UNL     1       4.110   4.554  16.943  0.00  0.00    +0.000 A 
ATOM     14  C   UNL     1       3.524   3.416  17.503  0.00  0.00    +0.000 A 
ATOM     15  C   UNL     1       2.627   3.483  18.575  0.00  0.00    +0.000 A 
ATOM     16  C   UNL     1       2.111   2.283  19.101  0.00  0.00    +0.000 A 
ATOM     17  C   UNL     1       1.200   2.285  20.152  0.00  0.00    +0.000 A 
ATOM     18  C   UNL     1       0.783   3.490  20.677  0.00  0.00    +0.000 A 
ATOM     19  C   UNL     1       1.284   4.694  20.154  0.00  0.00    +0.000 A 
ATOM     20  C   UNL     1       2.245   4.740  19.101  0.00  0.00    +0.000 A 
ENDBRANCH   3   7
BRANCH   1  24
ATOM     21  C   UNL     1      -2.079  11.201  17.627  0.00  0.00    +0.000 A 
ATOM     22  C   UNL     1      -1.693   9.951  17.150  0.00  0.00    +0.000 A 
ATOM     23  C   UNL     1      -0.508   9.375  17.611  0.00  0.00    +0.000 A 
ATOM     24  C   UNL     1       0.297  10.050  18.543  0.00  0.00    +0.000 A 
ATOM     25  C   UNL     1      -0.114  11.312  19.003  0.00  0.00    +0.000 A 
ATOM     26  C   UNL     1      -1.299  11.884  18.548  0.00  0.00    +0.000 A 
BRANCH  21  27
ATOM     27  O   UNL     1      -3.227  11.802  17.204  0.00  0.00    +0.000 OA
ATOM     28  H   UNL     1      -2.989  12.579  16.671  0.00  0.00    +0.000 HD
ENDBRANCH  21  27
ENDBRANCH   1  24
TORSDOF 3
ENDMDL
MODEL 2
REMARK VINA RESULT:      -9.7      0.188      3.634
REMARK  Name = 
REMARK  3 active torsions:
REMARK  status: ('A' for Active; 'I' for Inactive)
REMARK    1  A    between atoms: O_1  and  C_2
REMARK    2  A    between atoms: C_5  and  C_6
REMARK    3  A    between atoms: C_8  and  C_9
REMARK                            x       y       z     vdW  Elec       q    Type
REMARK                         _______ _______ _______ _____ _____    ______ ____
ROOT
ATOM      1  C   UNL     1       1.591   9.535  18.951  0.00  0.00    +0.000 C 
ATOM      2  C   UNL     1       2.110   8.467  18.002  0.00  0.00    +0.000 C 
ATOM      3  C   UNL     1       2.334   7.303  18.949  0.00  0.00    +0.000 C 
ATOM      4  N   UNL     1       2.014   7.567  20.183  0.00  0.00    +0.000 NA
ATOM      5  N   UNL     1       1.643   8.860  20.234  0.00  0.00    +0.000 N 
ATOM      6  H   UNL     1       0.932   9.113  20.917  0.00  0.00    +0.000 HD
ENDROOT
BRANCH   3   7
ATOM      7  C   UNL     1       2.780   5.943  18.468  0.00  0.00    +0.000 A 
ATOM      8  C   UNL     1       2.265   4.758  19.106  0.00  0.00    +0.000 A 
ATOM      9  C   UNL     1       1.201   4.699  20.044  0.00  0.00    +0.000 A 
ATOM     10  C   UNL     1       0.845   3.541  20.738  0.00  0.00    +0.000 A 
ATOM     11  C   UNL     1       1.466   2.349  20.427  0.00  0.00    +0.000 A 
ATOM     12  C   UNL     1       2.421   2.328  19.417  0.00  0.00    +0.000 A 
ATOM     13  C   UNL     1       2.826   3.509  18.757  0.00  0.00    +0.000 A 
ATOM     14  C   UNL     1       3.776   3.434  17.736  0.00  0.00    +0.000 A 
ATOM     15  C   UNL     1       4.231   4.564  17.048  0.00  0.00    +0.000 A 
ATOM     16  C   UNL     1       5.164   4.394  16.008  0.00  0.00    +0.000 A 
ATOM     17  C   UNL     1       5.670   5.480  15.302  0.00  0.00    +0.000 A 
ATOM     18  C   UNL     1       5.260   6.752  15.642  0.00  0.00    +0.000 A 
ATOM     19  C   UNL     1       4.336   6.935  16.685  0.00  0.00    +0.000 A 
ATOM     20  C   UNL     1       3.764   5.850  17.412  0.00  0.00    +0.000 A 
ENDBRANCH   3   7
BRANCH   1  24
ATOM     21  C   UNL     1      -2.122  11.243  17.622  0.00  0.00    +0.000 A 
ATOM     22  C   UNL     1      -1.763   9.979  17.165  0.00  0.00    +0.000 A 
ATOM     23  C   UNL     1      -0.577   9.395  17.618  0.00  0.00    +0.000 A 
ATOM     24  C   UNL     1       0.254  10.078  18.520  0.00  0.00    +0.000 A 
ATOM     25  C   UNL     1      -0.131  11.356  18.960  0.00  0.00    +0.000 A 
ATOM     26  C   UNL     1      -1.317  11.935  18.514  0.00  0.00    +0.000 A 
BRANCH  21  27
ATOM     27  O   UNL     1      -3.270  11.851  17.207  0.00  0.00    +0.000 OA
ATOM     28  H   UNL     1      -3.862  11.945  17.971  0.00  0.00    +0.000 HD
ENDBRANCH  21  27
ENDBRANCH   1  24
TORSDOF 3
ENDMDL
MODEL 3
REMARK VINA RESULT:      -8.9      1.971      2.434
REMARK  Name = 
REMARK  3 active torsions:
REMARK  status: ('A' for Active; 'I' for Inactive)
REMARK    1  A    between atoms: O_1  and  C_2
REMARK    2  A    between atoms: C_5  and  C_6
REMARK    3  A    between atoms: C_8  and  C_9
REMARK                            x       y       z     vdW  Elec       q    Type
REMARK                         _______ _______ _______ _____ _____    ______ ____
ROOT
ATOM      1  C   UNL     1       1.452   8.983  18.224  0.00  0.00    +0.000 C 
ATOM      2  C   UNL     1       1.368   7.466  18.172  0.00  0.00    +0.000 C 
ATOM      3  C   UNL     1       2.821   7.090  17.951  0.00  0.00    +0.000 C 
ATOM      4  N   UNL     1       3.622   8.115  17.898  0.00  0.00    +0.000 NA
ATOM      5  N   UNL     1       2.863   9.223  17.987  0.00  0.00    +0.000 N 
ATOM      6  H   UNL     1       3.275  10.034  18.444  0.00  0.00    +0.000 HD
ENDROOT
BRANCH   3   7
ATOM      7  C   UNL     1       3.289   5.655  17.910  0.00  0.00    +0.000 A 
ATOM      8  C   UNL     1       4.284   5.258  16.947  0.00  0.00    +0.000 A 
ATOM      9  C   UNL     1       5.053   6.121  16.122  0.00  0.00    +0.000 A 
ATOM     10  C   UNL     1       5.896   5.671  15.104  0.00  0.00    +0.000 A 
ATOM     11  C   UNL     1       6.102   4.316  14.948  0.00  0.00    +0.000 A 
ATOM     12  C   UNL     1       5.478   3.432  15.821  0.00  0.00    +0.000 A 
ATOM     13  C   UNL     1       4.578   3.882  16.812  0.00  0.00    +0.000 A 
ATOM     14  C   UNL     1       3.989   2.957  17.677  0.00  0.00    +0.000 A 
ATOM     15  C   UNL     1       3.080   3.331  18.672  0.00  0.00    +0.000 A 
ATOM     16  C   UNL     1       2.561   2.338  19.524  0.00  0.00    +0.000 A 
ATOM     17  C   UNL     1       1.638   2.644  20.518  0.00  0.00    +0.000 A 
ATOM     18  C   UNL     1       1.210   3.947  20.659  0.00  0.00    +0.000 A 
ATOM     19  C   UNL     1       1.714   4.946  19.808  0.00  0.00    +0.000 A 
ATOM     20  C   UNL     1       2.687   4.685  18.799  0.00  0.00    +0.000 A 
ENDBRANCH   3   7
BRANCH   1  24
ATOM     21  C   UNL     1      -0.018  10.580  21.933  0.00  0.00    +0.000 A 
ATOM     22  C   UNL     1      -0.118  11.355  20.781  0.00  0.00    +0.000 A 
ATOM     23  C   UNL     1       0.321  10.834  19.562  0.00  0.00    +0.000 A 
ATOM     24  C   UNL     1       0.868   9.543  19.494  0.00  0.00    +0.000 A 
ATOM     25  C   UNL     1       0.962   8.785  20.674  0.00  0.00    +0.000 A 
ATOM     26  C   UNL     1       0.518   9.302  21.889  0.00  0.00    +0.000 A 
BRANCH  21  27
ATOM     27  O   UNL     1      -0.434  11.048  23.144  0.00  0.00    +0.000 OA
ATOM     28  H   UNL     1      -1.161  10.485  23.458  0.00  0.00    +0.000 HD
ENDBRANCH  21  27
ENDBRANCH   1  24
TORSDOF 3
ENDMDL
MODEL 4
REMARK VINA RESULT:      -8.7      2.911      7.802
REMARK  Name = 
REMARK  3 active torsions:
REMARK  status: ('A' for Active; 'I' for Inactive)
REMARK    1  A    between atoms: O_1  and  C_2
REMARK    2  A    between atoms: C_5  and  C_6
REMARK    3  A    between atoms: C_8  and  C_9
REMARK                            x       y       z     vdW  Elec       q    Type
REMARK                         _______ _______ _______ _____ _____    ______ ____
ROOT
ATOM      1  C   UNL     1       2.466   7.778  19.061  0.00  0.00    +0.000 C 
ATOM      2  C   UNL     1       1.525   8.721  19.794  0.00  0.00    +0.000 C 
ATOM      3  C   UNL     1       1.192   9.723  18.704  0.00  0.00    +0.000 C 
ATOM      4  N   UNL     1       1.766   9.463  17.565  0.00  0.00    +0.000 NA
ATOM      5  N   UNL     1       2.556   8.389  17.749  0.00  0.00    +0.000 N 
ATOM      6  H   UNL     1       2.681   7.762  16.956  0.00  0.00    +0.000 HD
ENDROOT
BRANCH   3   7
ATOM      7  C   UNL     1       0.202  10.844  18.911  0.00  0.00    +0.000 A 
ATOM      8  C   UNL     1       0.602  12.022  19.639  0.00  0.00    +0.000 A 
ATOM      9  C   UNL     1       1.922  12.358  20.041  0.00  0.00    +0.000 A 
ATOM     10  C   UNL     1       2.226  13.438  20.871  0.00  0.00    +0.000 A 
ATOM     11  C   UNL     1       1.222  14.312  21.239  0.00  0.00    +0.000 A 
ATOM     12  C   UNL     1      -0.065  14.103  20.757  0.00  0.00    +0.000 A 
ATOM     13  C   UNL     1      -0.386  12.977  19.968  0.00  0.00    +0.000 A 
ATOM     14  C   UNL     1      -1.690  12.820  19.493  0.00  0.00    +0.000 A 
ATOM     15  C   UNL     1      -2.081  11.723  18.717  0.00  0.00    +0.000 A 
ATOM     16  C   UNL     1      -3.408  11.662  18.250  0.00  0.00    +0.000 A 
ATOM     17  C   UNL     1      -3.861  10.588  17.492  0.00  0.00    +0.000 A 
ATOM     18  C   UNL     1      -2.996   9.554  17.208  0.00  0.00    +0.000 A 
ATOM     19  C   UNL     1      -1.672   9.598  17.676  0.00  0.00    +0.000 A 
ATOM     20  C   UNL     1      -1.152  10.695  18.426  0.00  0.00    +0.000 A 
ENDBRANCH   3   7
BRANCH   1  24
ATOM     21  C   UNL     1       1.327   3.636  19.166  0.00  0.00    +0.000 A 
ATOM     22  C   UNL     1       1.297   4.371  20.347  0.00  0.00    +0.000 A 
ATOM     23  C   UNL     1       1.629   5.728  20.321  0.00  0.00    +0.000 A 
ATOM     24  C   UNL     1       1.999   6.348  19.117  0.00  0.00    +0.000 A 
ATOM     25  C   UNL     1       2.025   5.580  17.941  0.00  0.00    +0.000 A 
ATOM     26  C   UNL     1       1.689   4.229  17.966  0.00  0.00    +0.000 A 
BRANCH  21  27
ATOM     27  O   UNL     1       1.012   2.309  19.144  0.00  0.00    +0.000 OA
ATOM     28  H   UNL     1       1.616   1.840  19.743  0.00  0.00    +0.000 HD
ENDBRANCH  21  27
ENDBRANCH   1  24
TORSDOF 3
ENDMDL
MODEL 5
REMARK VINA RESULT:      -8.6      2.867      7.985
REMARK  Name = 
REMARK  3 active torsions:
REMARK  status: ('A' for Active; 'I' for Inactive)
REMARK    1  A    between atoms: O_1  and  C_2
REMARK    2  A    between atoms: C_5  and  C_6
REMARK    3  A    between atoms: C_8  and  C_9
REMARK                            x       y       z     vdW  Elec       q    Type
REMARK                         _______ _______ _______ _____ _____    ______ ____
ROOT
ATOM      1  C   UNL     1       2.048   8.356  19.628  0.00  0.00    +0.000 C 
ATOM      2  C   UNL     1       0.750   8.886  20.217  0.00  0.00    +0.000 C 
ATOM      3  C   UNL     1       0.335   9.901  19.168  0.00  0.00    +0.000 C 
ATOM      4  N   UNL     1       1.156   9.974  18.161  0.00  0.00    +0.000 NA
ATOM      5  N   UNL     1       2.185   9.147  18.420  0.00  0.00    +0.000 N 
ATOM      6  H   UNL     1       2.633   8.698  17.624  0.00  0.00    +0.000 HD
ENDROOT
BRANCH   3   7
ATOM      7  C   UNL     1      -0.966  10.662  19.250  0.00  0.00    +0.000 A 
ATOM      8  C   UNL     1      -1.897  10.603  18.152  0.00  0.00    +0.000 A 
ATOM      9  C   UNL     1      -1.828   9.731  17.034  0.00  0.00    +0.000 A 
ATOM     10  C   UNL     1      -2.677   9.821  15.929  0.00  0.00    +0.000 A 
ATOM     11  C   UNL     1      -3.723  10.721  15.952  0.00  0.00    +0.000 A 
ATOM     12  C   UNL     1      -3.916  11.503  17.085  0.00  0.00    +0.000 A 
ATOM     13  C   UNL     1      -3.022  11.457  18.177  0.00  0.00    +0.000 A 
ATOM     14  C   UNL     1      -3.268  12.250  19.301  0.00  0.00    +0.000 A 
ATOM     15  C   UNL     1      -2.419  12.262  20.413  0.00  0.00    +0.000 A 
ATOM     16  C   UNL     1      -2.762  13.065  21.517  0.00  0.00    +0.000 A 
ATOM     17  C   UNL     1      -1.949  13.136  22.643  0.00  0.00    +0.000 A 
ATOM     18  C   UNL     1      -0.773  12.417  22.668  0.00  0.00    +0.000 A 
ATOM     19  C   UNL     1      -0.415  11.620  21.567  0.00  0.00    +0.000 A 
ATOM     20  C   UNL     1      -1.234  11.489  20.407  0.00  0.00    +0.000 A 
ENDBRANCH   3   7
BRANCH   1  24
ATOM     21  C   UNL     1       1.786   4.087  19.202  0.00  0.00    +0.000 A 
ATOM     22  C   UNL     1       2.142   4.853  18.095  0.00  0.00    +0.000 A 
ATOM     23  C   UNL     1       2.267   6.237  18.229  0.00  0.00    +0.000 A 
ATOM     24  C   UNL     1       2.029   6.858  19.465  0.00  0.00    +0.000 A 
ATOM     25  C   UNL     1       1.666   6.062  20.564  0.00  0.00    +0.000 A 
ATOM     26  C   UNL     1       1.547   4.680  20.432  0.00  0.00    +0.000 A 
BRANCH  21  27
ATOM     27  O   UNL     1       1.651   2.733  19.118  0.00  0.00    +0.000 OA
ATOM     28  H   UNL     1       1.224   2.416  19.931  0.00  0.00    +0.000 HD
ENDBRANCH  21  27
ENDBRANCH   1  24
TORSDOF 3
ENDMDL
MODEL 6
REMARK VINA RESULT:      -8.6      1.995      4.350
REMARK  Name = 
REMARK  3 active torsions:
REMARK  status: ('A' for Active; 'I' for Inactive)
REMARK    1  A    between atoms: O_1  and  C_2
REMARK    2  A    between atoms: C_5  and  C_6
REMARK    3  A    between atoms: C_8  and  C_9
REMARK                            x       y       z     vdW  Elec       q    Type
REMARK                         _______ _______ _______ _____ _____    ______ ____
ROOT
ATOM      1  C   UNL     1       1.488   8.993  18.244  0.00  0.00    +0.000 C 
ATOM      2  C   UNL     1       1.360   7.482  18.133  0.00  0.00    +0.000 C 
ATOM      3  C   UNL     1       2.805   7.070  17.925  0.00  0.00    +0.000 C 
ATOM      4  N   UNL     1       3.637   8.071  17.926  0.00  0.00    +0.000 NA
ATOM      5  N   UNL     1       2.910   9.198  18.044  0.00  0.00    +0.000 N 
ATOM      6  H   UNL     1       3.337   9.978  18.539  0.00  0.00    +0.000 HD
ENDROOT
BRANCH   3   7
ATOM      7  C   UNL     1       3.229   5.624  17.837  0.00  0.00    +0.000 A 
ATOM      8  C   UNL     1       2.635   4.652  18.719  0.00  0.00    +0.000 A 
ATOM      9  C   UNL     1       1.516   4.856  19.569  0.00  0.00    +0.000 A 
ATOM     10  C   UNL     1       1.078   3.923  20.510  0.00  0.00    +0.000 A 
ATOM     11  C   UNL     1       1.674   2.678  20.554  0.00  0.00    +0.000 A 
ATOM     12  C   UNL     1       2.684   2.380  19.647  0.00  0.00    +0.000 A 
ATOM     13  C   UNL     1       3.170   3.345  18.737  0.00  0.00    +0.000 A 
ATOM     14  C   UNL     1       4.175   2.992  17.833  0.00  0.00    +0.000 A 
ATOM     15  C   UNL     1       4.710   3.899  16.913  0.00  0.00    +0.000 A 
ATOM     16  C   UNL     1       5.696   3.450  16.014  0.00  0.00    +0.000 A 
ATOM     17  C   UNL     1       6.282   4.309  15.090  0.00  0.00    +0.000 A 
ATOM     18  C   UNL     1       5.899   5.633  15.068  0.00  0.00    +0.000 A 
ATOM     19  C   UNL     1       4.923   6.096  15.966  0.00  0.00    +0.000 A 
ATOM     20  C   UNL     1       4.270   5.245  16.906  0.00  0.00    +0.000 A 
ENDBRANCH   3   7
BRANCH   1  24
ATOM     21  C   UNL     1      -0.005  10.508  21.979  0.00  0.00    +0.000 A 
ATOM     22  C   UNL     1      -0.142  11.288  20.834  0.00  0.00    +0.000 A 
ATOM     23  C   UNL     1       0.306  10.793  19.607  0.00  0.00    +0.000 A 
ATOM     24  C   UNL     1       0.896   9.522  19.524  0.00  0.00    +0.000 A 
ATOM     25  C   UNL     1       1.026   8.759  20.697  0.00  0.00    +0.000 A 
ATOM     26  C   UNL     1       0.574   9.250  21.920  0.00  0.00    +0.000 A 
BRANCH  21  27
ATOM     27  O   UNL     1      -0.426  10.952  23.198  0.00  0.00    +0.000 OA
ATOM     28  H   UNL     1       0.283  10.797  23.843  0.00  0.00    +0.000 HD
ENDBRANCH  21  27
ENDBRANCH   1  24
TORSDOF 3
ENDMDL
MODEL 7
REMARK VINA RESULT:      -8.6      2.894      8.128
REMARK  Name = 
REMARK  3 active torsions:
REMARK  status: ('A' for Active; 'I' for Inactive)
REMARK    1  A    between atoms: O_1  and  C_2
REMARK    2  A    between atoms: C_5  and  C_6
REMARK    3  A    between atoms: C_8  and  C_9
REMARK                            x       y       z     vdW  Elec       q    Type
REMARK                         _______ _______ _______ _____ _____    ______ ____
ROOT
ATOM      1  C   UNL     1       2.082   8.264  19.444  0.00  0.00    +0.000 C 
ATOM      2  C   UNL     1       0.838   8.902  20.040  0.00  0.00    +0.000 C 
ATOM      3  C   UNL     1       0.436   9.867  18.941  0.00  0.00    +0.000 C 
ATOM      4  N   UNL     1       1.221   9.831  17.903  0.00  0.00    +0.000 NA
ATOM      5  N   UNL     1       2.215   8.967  18.182  0.00  0.00    +0.000 N 
ATOM      6  H   UNL     1       2.609   8.444  17.402  0.00  0.00    +0.000 HD
ENDROOT
BRANCH   3   7
ATOM      7  C   UNL     1      -0.819  10.703  19.017  0.00  0.00    +0.000 A 
ATOM      8  C   UNL     1      -1.039  11.557  20.157  0.00  0.00    +0.000 A 
ATOM      9  C   UNL     1      -0.096  11.869  21.171  0.00  0.00    +0.000 A 
ATOM     10  C   UNL     1      -0.413  12.583  22.328  0.00  0.00    +0.000 A 
ATOM     11  C   UNL     1      -1.673  13.129  22.462  0.00  0.00    +0.000 A 
ATOM     12  C   UNL     1      -2.592  12.968  21.431  0.00  0.00    +0.000 A 
ATOM     13  C   UNL     1      -2.293  12.194  20.288  0.00  0.00    +0.000 A 
ATOM     14  C   UNL     1      -3.243  12.075  19.270  0.00  0.00    +0.000 A 
ATOM     15  C   UNL     1      -3.018  11.316  18.117  0.00  0.00    +0.000 A 
ATOM     16  C   UNL     1      -4.017  11.280  17.125  0.00  0.00    +0.000 A 
ATOM     17  C   UNL     1      -3.861  10.527  15.966  0.00  0.00    +0.000 A 
ATOM     18  C   UNL     1      -2.712   9.785  15.797  0.00  0.00    +0.000 A 
ATOM     19  C   UNL     1      -1.712   9.805  16.784  0.00  0.00    +0.000 A 
ATOM     20  C   UNL     1      -1.812  10.590  17.971  0.00  0.00    +0.000 A 
ENDBRANCH   3   7
BRANCH   1  24
ATOM     21  C   UNL     1       1.582   3.998  19.312  0.00  0.00    +0.000 A 
ATOM     22  C   UNL     1       1.936   4.669  18.146  0.00  0.00    +0.000 A 
ATOM     23  C   UNL     1       2.138   6.051  18.182  0.00  0.00    +0.000 A 
ATOM     24  C   UNL     1       1.979   6.763  19.381  0.00  0.00    +0.000 A 
ATOM     25  C   UNL     1       1.616   6.060  20.542  0.00  0.00    +0.000 A 
ATOM     26  C   UNL     1       1.420   4.681  20.508  0.00  0.00    +0.000 A 
BRANCH  21  27
ATOM     27  O   UNL     1       1.373   2.650  19.323  0.00  0.00    +0.000 OA
ATOM     28  H   UNL     1       1.262   2.349  18.407  0.00  0.00    +0.000 HD
ENDBRANCH  21  27
ENDBRANCH   1  24
TORSDOF 3
ENDMDL
MODEL 8
REMARK VINA RESULT:      -8.5      3.144      8.845
REMARK  Name = 
REMARK  3 active torsions:
REMARK  status: ('A' for Active; 'I' for Inactive)
REMARK    1  A    between atoms: O_1  and  C_2
REMARK    2  A    between atoms: C_5  and  C_6
REMARK    3  A    between atoms: C_8  and  C_9
REMARK                            x       y       z     vdW  Elec       q    Type
REMARK                         _______ _______ _______ _____ _____    ______ ____
ROOT
ATOM      1  C   UNL     1       0.961   9.851  20.364  0.00  0.00    +0.000 C 
ATOM      2  C   UNL     1      -0.557   9.826  20.280  0.00  0.00    +0.000 C 
ATOM      3  C   UNL     1      -0.848  11.176  19.653  0.00  0.00    +0.000 C 
ATOM      4  N   UNL     1       0.221  11.869  19.390  0.00  0.00    +0.000 NA
ATOM      5  N   UNL     1       1.277  11.167  19.842  0.00  0.00    +0.000 N 
ATOM      6  H   UNL     1       2.152  11.262  19.331  0.00  0.00    +0.000 HD
ENDROOT
BRANCH   3   7
ATOM      7  C   UNL     1      -2.245  11.610  19.279  0.00  0.00    +0.000 A 
ATOM      8  C   UNL     1      -3.051  12.323  20.238  0.00  0.00    +0.000 A 
ATOM      9  C   UNL     1      -2.611  12.859  21.477  0.00  0.00    +0.000 A 
ATOM     10  C   UNL     1      -3.470  13.409  22.430  0.00  0.00    +0.000 A 
ATOM     11  C   UNL     1      -4.808  13.562  22.126  0.00  0.00    +0.000 A 
ATOM     12  C   UNL     1      -5.263  13.179  20.869  0.00  0.00    +0.000 A 
ATOM     13  C   UNL     1      -4.407  12.566  19.928  0.00  0.00    +0.000 A 
ATOM     14  C   UNL     1      -4.907  12.214  18.672  0.00  0.00    +0.000 A 
ATOM     15  C   UNL     1      -4.120  11.593  17.696  0.00  0.00    +0.000 A 
ATOM     16  C   UNL     1      -4.696  11.306  16.444  0.00  0.00    +0.000 A 
ATOM     17  C   UNL     1      -3.971  10.671  15.441  0.00  0.00    +0.000 A 
ATOM     18  C   UNL     1      -2.667  10.300  15.687  0.00  0.00    +0.000 A 
ATOM     19  C   UNL     1      -2.084  10.572  16.937  0.00  0.00    +0.000 A 
ATOM     20  C   UNL     1      -2.776  11.252  17.982  0.00  0.00    +0.000 A 
ENDBRANCH   3   7
BRANCH   1  24
ATOM     21  C   UNL     1       2.937   6.598  18.369  0.00  0.00    +0.000 A 
ATOM     22  C   UNL     1       2.482   6.411  19.671  0.00  0.00    +0.000 A 
ATOM     23  C   UNL     1       1.805   7.447  20.318  0.00  0.00    +0.000 A 
ATOM     24  C   UNL     1       1.590   8.672  19.668  0.00  0.00    +0.000 A 
ATOM     25  C   UNL     1       2.064   8.835  18.355  0.00  0.00    +0.000 A 
ATOM     26  C   UNL     1       2.734   7.799  17.708  0.00  0.00    +0.000 A 
BRANCH  21  27
ATOM     27  O   UNL     1       3.603   5.614  17.699  0.00  0.00    +0.000 OA
ATOM     28  H   UNL     1       3.015   5.259  17.012  0.00  0.00    +0.000 HD
ENDBRANCH  21  27
ENDBRANCH   1  24
TORSDOF 3
ENDMDL
MODEL 9
REMARK VINA RESULT:      -8.3      3.102      8.406
REMARK  Name = 
REMARK  3 active torsions:
REMARK  status: ('A' for Active; 'I' for Inactive)
REMARK    1  A    between atoms: O_1  and  C_2
REMARK    2  A    between atoms: C_5  and  C_6
REMARK    3  A    between atoms: C_8  and  C_9
REMARK                            x       y       z     vdW  Elec       q    Type
REMARK                         _______ _______ _______ _____ _____    ______ ____
ROOT
ATOM      1  C   UNL     1       1.096   9.769  20.256  0.00  0.00    +0.000 C 
ATOM      2  C   UNL     1      -0.422   9.683  20.220  0.00  0.00    +0.000 C 
ATOM      3  C   UNL     1      -0.785  11.006  19.573  0.00  0.00    +0.000 C 
ATOM      4  N   UNL     1       0.249  11.734  19.261  0.00  0.00    +0.000 NA
ATOM      5  N   UNL     1       1.344  11.083  19.695  0.00  0.00    +0.000 N 
ATOM      6  H   UNL     1       2.199  11.200  19.155  0.00  0.00    +0.000 HD
ENDROOT
BRANCH   3   7
ATOM      7  C   UNL     1      -2.208  11.377  19.234  0.00  0.00    +0.000 A 
ATOM      8  C   UNL     1      -2.748  11.025  17.945  0.00  0.00    +0.000 A 
ATOM      9  C   UNL     1      -2.147  10.170  16.983  0.00  0.00    +0.000 A 
ATOM     10  C   UNL     1      -2.648   9.983  15.694  0.00  0.00    +0.000 A 
ATOM     11  C   UNL     1      -3.855  10.556  15.348  0.00  0.00    +0.000 A 
ATOM     12  C   UNL     1      -4.551  11.291  16.301  0.00  0.00    +0.000 A 
ATOM     13  C   UNL     1      -4.017  11.531  17.586  0.00  0.00    +0.000 A 
ATOM     14  C   UNL     1      -4.762  12.261  18.515  0.00  0.00    +0.000 A 
ATOM     15  C   UNL     1      -4.290  12.547  19.800  0.00  0.00    +0.000 A 
ATOM     16  C   UNL     1      -5.123  13.258  20.685  0.00  0.00    +0.000 A 
ATOM     17  C   UNL     1      -4.702  13.590  21.969  0.00  0.00    +0.000 A 
ATOM     18  C   UNL     1      -3.434  13.229  22.374  0.00  0.00    +0.000 A 
ATOM     19  C   UNL     1      -2.591  12.527  21.496  0.00  0.00    +0.000 A 
ATOM     20  C   UNL     1      -2.992  12.134  20.185  0.00  0.00    +0.000 A 
ENDBRANCH   3   7
BRANCH   1  24
ATOM     21  C   UNL     1       3.140   6.543  18.284  0.00  0.00    +0.000 A 
ATOM     22  C   UNL     1       2.665   6.347  19.577  0.00  0.00    +0.000 A 
ATOM     23  C   UNL     1       1.966   7.374  20.216  0.00  0.00    +0.000 A 
ATOM     24  C   UNL     1       1.749   8.599  19.567  0.00  0.00    +0.000 A 
ATOM     25  C   UNL     1       2.244   8.771  18.263  0.00  0.00    +0.000 A 
ATOM     26  C   UNL     1       2.935   7.745  17.623  0.00  0.00    +0.000 A 
BRANCH  21  27
ATOM     27  O   UNL     1       3.827   5.569  17.621  0.00  0.00    +0.000 OA
ATOM     28  H   UNL     1       4.545   5.988  17.119  0.00  0.00    +0.000 HD
ENDBRANCH  21  27
ENDBRANCH   1  24
TORSDOF 3
ENDMDL
