MODEL 1
REMARK VINA RESULT:      -7.5      0.000      0.000
REMARK  Name = 
REMARK  13 active torsions:
REMARK  status: ('A' for Active; 'I' for Inactive)
REMARK    1  A    between atoms: C_1  and  C_2
REMARK    2  A    between atoms: C_2  and  S_3
REMARK    3  A    between atoms: S_3  and  O_6
REMARK    4  A    between atoms: O_6  and  C_7
REMARK    5  A    between atoms: C_9  and  C_10
REMARK    6  A    between atoms: C_10  and  N_11
REMARK    7  A    between atoms: N_11  and  C_12
REMARK    8  A    between atoms: C_12  and  C_13
REMARK    9  A    between atoms: C_18  and  C_20
REMARK   10  A    between atoms: C_20  and  C_21
REMARK   11  A    between atoms: C_20  and  C_22
REMARK   12  A    between atoms: C_25  and  O_26
REMARK   13  A    between atoms: O_26  and  C_27
REMARK                            x       y       z     vdW  Elec       q    Type
REMARK                         _______ _______ _______ _____ _____    ______ ____
ROOT
ATOM      1  C   UNL     1       0.923   9.390  20.193  0.00  0.00    +0.000 A 
ATOM      2  C   UNL     1       1.725   8.251  20.377  0.00  0.00    +0.000 A 
ATOM      3  C   UNL     1       2.340   7.596  19.287  0.00  0.00    +0.000 A 
ATOM      4  C   UNL     1       2.126   8.089  17.998  0.00  0.00    +0.000 A 
ATOM      5  C   UNL     1       1.300   9.193  17.805  0.00  0.00    +0.000 A 
ATOM      6  C   UNL     1       0.690   9.850  18.883  0.00  0.00    +0.000 A 
ENDROOT
BRANCH   6   7
ATOM      7  O   UNL     1      -0.083  10.898  18.456  0.00  0.00    +0.000 OA
ATOM      8  C   UNL     1      -1.403  10.669  18.001  0.00  0.00    +0.000 C 
ENDBRANCH   6   7
BRANCH   1   9
ATOM      9  O   UNL     1       0.408  10.125  21.232  0.00  0.00    +0.000 OA
BRANCH   9  10
ATOM     10  S   UNL     1      -0.072   9.511  22.658  0.00  0.00    +0.000 S 
ATOM     11  O   UNL     1       1.022   9.529  23.608  0.00  0.00    +0.000 OA
ATOM     12  O   UNL     1      -0.862   8.313  22.425  0.00  0.00    +0.000 OA
BRANCH  10  14
ATOM     13  C   UNL     1      -1.287  11.887  21.984  0.00  0.00    +0.000 C 
ATOM     14  C   UNL     1      -1.181  10.846  23.082  0.00  0.00    +0.000 C 
ENDBRANCH  10  14
ENDBRANCH   9  10
ENDBRANCH   1   9
BRANCH   3  15
ATOM     15  C   UNL     1       3.263   6.414  19.494  0.00  0.00    +0.000 C 
BRANCH  15  16
ATOM     16  N   UNL     1       3.645   5.562  18.343  0.00  0.00    +0.000 N 
ATOM     17  C   UNL     1       4.765   5.857  17.559  0.00  0.00    +0.000 C 
ATOM     18  O   UNL     1       5.438   6.879  17.697  0.00  0.00    +0.000 OA
BRANCH  17  19
ATOM     19  C   UNL     1       5.165   4.900  16.426  0.00  0.00    +0.000 C 
ATOM     20  C   UNL     1       5.318   5.668  15.116  0.00  0.00    +0.000 C 
ATOM     21  C   UNL     1       6.500   4.232  16.788  0.00  0.00    +0.000 C 
ENDBRANCH  17  19
BRANCH  16  22
ATOM     22  C   UNL     1       2.910   4.294  18.162  0.00  0.00    +0.000 C 
BRANCH  22  23
ATOM     23  C   UNL     1       2.354   3.681  19.403  0.00  0.00    +0.000 A 
ATOM     24  C   UNL     1       1.073   3.548  19.905  0.00  0.00    +0.000 A 
ATOM     25  C   UNL     1       1.193   2.843  21.128  0.00  0.00    +0.000 A 
ATOM     26  C   UNL     1       2.537   2.619  21.311  0.00  0.00    +0.000 A 
ATOM     27  O   UNL     1       3.250   3.129  20.274  0.00  0.00    +0.000 OA
ENDBRANCH  22  23
ENDBRANCH  16  22
ENDBRANCH  15  16
ENDBRANCH   3  15
TORSDOF 9
ENDMDL
MODEL 2
REMARK VINA RESULT:      -7.1      1.222      1.443
REMARK  Name = 
REMARK  13 active torsions:
REMARK  status: ('A' for Active; 'I' for Inactive)
REMARK    1  A    between atoms: C_1  and  C_2
REMARK    2  A    between atoms: C_2  and  S_3
REMARK    3  A    between atoms: S_3  and  O_6
REMARK    4  A    between atoms: O_6  and  C_7
REMARK    5  A    between atoms: C_9  and  C_10
REMARK    6  A    between atoms: C_10  and  N_11
REMARK    7  A    between atoms: N_11  and  C_12
REMARK    8  A    between atoms: C_12  and  C_13
REMARK    9  A    between atoms: C_18  and  C_20
REMARK   10  A    between atoms: C_20  and  C_21
REMARK   11  A    between atoms: C_20  and  C_22
REMARK   12  A    between atoms: C_25  and  O_26
REMARK   13  A    between atoms: O_26  and  C_27
REMARK                            x       y       z     vdW  Elec       q    Type
REMARK                         _______ _______ _______ _____ _____    ______ ____
ROOT
ATOM      1  C   UNL     1       1.471   9.294  20.341  0.00  0.00    +0.000 A 
ATOM      2  C   UNL     1       1.830   7.995  19.940  0.00  0.00    +0.000 A 
ATOM      3  C   UNL     1       2.068   7.681  18.583  0.00  0.00    +0.000 A 
ATOM      4  C   UNL     1       1.924   8.687  17.624  0.00  0.00    +0.000 A 
ATOM      5  C   UNL     1       1.530   9.965  18.012  0.00  0.00    +0.000 A 
ATOM      6  C   UNL     1       1.296  10.283  19.357  0.00  0.00    +0.000 A 
ENDROOT
BRANCH   6   7
ATOM      7  O   UNL     1       0.910  11.591  19.499  0.00  0.00    +0.000 OA
ATOM      8  C   UNL     1      -0.093  12.132  18.660  0.00  0.00    +0.000 C 
ENDBRANCH   6   7
BRANCH   1   9
ATOM      9  O   UNL     1       1.350   9.668  21.657  0.00  0.00    +0.000 OA
BRANCH   9  10
ATOM     10  S   UNL     1       0.025   9.442  22.571  0.00  0.00    +0.000 S 
ATOM     11  O   UNL     1       0.368   9.506  23.978  0.00  0.00    +0.000 OA
ATOM     12  O   UNL     1      -0.757   8.345  22.024  0.00  0.00    +0.000 OA
BRANCH  10  14
ATOM     13  C   UNL     1      -1.774  11.432  23.187  0.00  0.00    +0.000 C 
ATOM     14  C   UNL     1      -0.777  10.978  22.138  0.00  0.00    +0.000 C 
ENDBRANCH  10  14
ENDBRANCH   9  10
ENDBRANCH   1   9
BRANCH   3  15
ATOM     15  C   UNL     1       2.526   6.301  18.161  0.00  0.00    +0.000 C 
BRANCH  15  16
ATOM     16  N   UNL     1       3.924   5.877  18.410  0.00  0.00    +0.000 N 
ATOM     17  C   UNL     1       4.970   6.290  17.580  0.00  0.00    +0.000 C 
ATOM     18  O   UNL     1       4.798   6.934  16.544  0.00  0.00    +0.000 OA
BRANCH  17  19
ATOM     19  C   UNL     1       6.411   5.888  17.925  0.00  0.00    +0.000 C 
ATOM     20  C   UNL     1       6.825   4.660  17.118  0.00  0.00    +0.000 C 
ATOM     21  C   UNL     1       7.347   7.060  17.593  0.00  0.00    +0.000 C 
ENDBRANCH  17  19
BRANCH  16  22
ATOM     22  C   UNL     1       4.200   5.152  19.667  0.00  0.00    +0.000 C 
BRANCH  22  23
ATOM     23  C   UNL     1       3.180   4.143  20.074  0.00  0.00    +0.000 A 
ATOM     24  C   UNL     1       2.800   2.916  19.564  0.00  0.00    +0.000 A 
ATOM     25  C   UNL     1       1.780   2.425  20.416  0.00  0.00    +0.000 A 
ATOM     26  C   UNL     1       1.580   3.394  21.371  0.00  0.00    +0.000 A 
ATOM     27  O   UNL     1       2.419   4.442  21.169  0.00  0.00    +0.000 OA
ENDBRANCH  22  23
ENDBRANCH  16  22
ENDBRANCH  15  16
ENDBRANCH   3  15
TORSDOF 9
ENDMDL
MODEL 3
REMARK VINA RESULT:      -7.1      1.889      4.276
REMARK  Name = 
REMARK  13 active torsions:
REMARK  status: ('A' for Active; 'I' for Inactive)
REMARK    1  A    between atoms: C_1  and  C_2
REMARK    2  A    between atoms: C_2  and  S_3
REMARK    3  A    between atoms: S_3  and  O_6
REMARK    4  A    between atoms: O_6  and  C_7
REMARK    5  A    between atoms: C_9  and  C_10
REMARK    6  A    between atoms: C_10  and  N_11
REMARK    7  A    between atoms: N_11  and  C_12
REMARK    8  A    between atoms: C_12  and  C_13
REMARK    9  A    between atoms: C_18  and  C_20
REMARK   10  A    between atoms: C_20  and  C_21
REMARK   11  A    between atoms: C_20  and  C_22
REMARK   12  A    between atoms: C_25  and  O_26
REMARK   13  A    between atoms: O_26  and  C_27
REMARK                            x       y       z     vdW  Elec       q    Type
REMARK                         _______ _______ _______ _____ _____    ______ ____
ROOT
ATOM      1  C   UNL     1       1.072   9.958  19.411  0.00  0.00    +0.000 A 
ATOM      2  C   UNL     1       1.744   9.056  18.568  0.00  0.00    +0.000 A 
ATOM      3  C   UNL     1       2.129   7.773  19.018  0.00  0.00    +0.000 A 
ATOM      4  C   UNL     1       1.846   7.408  20.336  0.00  0.00    +0.000 A 
ATOM      5  C   UNL     1       1.216   8.314  21.187  0.00  0.00    +0.000 A 
ATOM      6  C   UNL     1       0.828   9.587  20.745  0.00  0.00    +0.000 A 
ENDROOT
BRANCH   6   7
ATOM      7  O   UNL     1       0.239  10.305  21.753  0.00  0.00    +0.000 OA
ATOM      8  C   UNL     1      -0.129   9.667  22.961  0.00  0.00    +0.000 C 
ENDBRANCH   6   7
BRANCH   1   9
ATOM      9  O   UNL     1       0.574  11.163  18.979  0.00  0.00    +0.000 OA
BRANCH   9  10
ATOM     10  S   UNL     1      -0.979  11.442  18.588  0.00  0.00    +0.000 S 
ATOM     11  O   UNL     1      -1.075  12.569  17.681  0.00  0.00    +0.000 OA
ATOM     12  O   UNL     1      -1.801  11.352  19.784  0.00  0.00    +0.000 OA
BRANCH  10  14
ATOM     13  C   UNL     1      -2.496   9.971  16.825  0.00  0.00    +0.000 C 
ATOM     14  C   UNL     1      -1.210   9.953  17.630  0.00  0.00    +0.000 C 
ENDBRANCH  10  14
ENDBRANCH   9  10
ENDBRANCH   1   9
BRANCH   3  15
ATOM     15  C   UNL     1       2.786   6.775  18.088  0.00  0.00    +0.000 C 
BRANCH  15  16
ATOM     16  N   UNL     1       2.985   5.374  18.528  0.00  0.00    +0.000 N 
ATOM     17  C   UNL     1       2.115   4.354  18.128  0.00  0.00    +0.000 C 
ATOM     18  O   UNL     1       1.085   4.557  17.484  0.00  0.00    +0.000 OA
BRANCH  17  19
ATOM     19  C   UNL     1       2.409   2.906  18.545  0.00  0.00    +0.000 C 
ATOM     20  C   UNL     1       1.122   2.212  18.985  0.00  0.00    +0.000 C 
ATOM     21  C   UNL     1       3.012   2.156  17.348  0.00  0.00    +0.000 C 
ENDBRANCH  17  19
BRANCH  16  22
ATOM     22  C   UNL     1       4.233   5.059  19.253  0.00  0.00    +0.000 C 
BRANCH  22  23
ATOM     23  C   UNL     1       5.451   4.891  18.410  0.00  0.00    +0.000 A 
ATOM     24  C   UNL     1       5.651   4.705  17.056  0.00  0.00    +0.000 A 
ATOM     25  C   UNL     1       7.053   4.637  16.863  0.00  0.00    +0.000 A 
ATOM     26  C   UNL     1       7.617   4.752  18.111  0.00  0.00    +0.000 A 
ATOM     27  O   UNL     1       6.655   4.900  19.057  0.00  0.00    +0.000 OA
ENDBRANCH  22  23
ENDBRANCH  16  22
ENDBRANCH  15  16
ENDBRANCH   3  15
TORSDOF 9
ENDMDL
MODEL 4
REMARK VINA RESULT:      -7.0      0.961      1.400
REMARK  Name = 
REMARK  13 active torsions:
REMARK  status: ('A' for Active; 'I' for Inactive)
REMARK    1  A    between atoms: C_1  and  C_2
REMARK    2  A    between atoms: C_2  and  S_3
REMARK    3  A    between atoms: S_3  and  O_6
REMARK    4  A    between atoms: O_6  and  C_7
REMARK    5  A    between atoms: C_9  and  C_10
REMARK    6  A    between atoms: C_10  and  N_11
REMARK    7  A    between atoms: N_11  and  C_12
REMARK    8  A    between atoms: C_12  and  C_13
REMARK    9  A    between atoms: C_18  and  C_20
REMARK   10  A    between atoms: C_20  and  C_21
REMARK   11  A    between atoms: C_20  and  C_22
REMARK   12  A    between atoms: C_25  and  O_26
REMARK   13  A    between atoms: O_26  and  C_27
REMARK                            x       y       z     vdW  Elec       q    Type
REMARK                         _______ _______ _______ _____ _____    ______ ____
ROOT
ATOM      1  C   UNL     1       0.593   9.016  19.802  0.00  0.00    +0.000 A 
ATOM      2  C   UNL     1       1.519   7.993  20.070  0.00  0.00    +0.000 A 
ATOM      3  C   UNL     1       2.427   7.543  19.086  0.00  0.00    +0.000 A 
ATOM      4  C   UNL     1       2.386   8.123  17.816  0.00  0.00    +0.000 A 
ATOM      5  C   UNL     1       1.444   9.109  17.533  0.00  0.00    +0.000 A 
ATOM      6  C   UNL     1       0.542   9.562  18.506  0.00  0.00    +0.000 A 
ENDROOT
BRANCH   6   7
ATOM      7  O   UNL     1      -0.294  10.523  18.001  0.00  0.00    +0.000 OA
ATOM      8  C   UNL     1      -1.580  10.170  17.526  0.00  0.00    +0.000 C 
ENDBRANCH   6   7
BRANCH   1   9
ATOM      9  O   UNL     1      -0.222   9.564  20.762  0.00  0.00    +0.000 OA
BRANCH   9  10
ATOM     10  S   UNL     1      -0.082  11.072  21.352  0.00  0.00    +0.000 S 
ATOM     11  O   UNL     1      -1.057  11.947  20.732  0.00  0.00    +0.000 OA
ATOM     12  O   UNL     1       1.325  11.430  21.431  0.00  0.00    +0.000 OA
BRANCH  10  14
ATOM     13  C   UNL     1      -0.051   9.420  23.554  0.00  0.00    +0.000 C 
ATOM     14  C   UNL     1      -0.662  10.692  22.998  0.00  0.00    +0.000 C 
ENDBRANCH  10  14
ENDBRANCH   9  10
ENDBRANCH   1   9
BRANCH   3  15
ATOM     15  C   UNL     1       3.473   6.493  19.398  0.00  0.00    +0.000 C 
BRANCH  15  16
ATOM     16  N   UNL     1       3.947   5.581  18.330  0.00  0.00    +0.000 N 
ATOM     17  C   UNL     1       5.107   5.856  17.600  0.00  0.00    +0.000 C 
ATOM     18  O   UNL     1       5.747   6.903  17.713  0.00  0.00    +0.000 OA
BRANCH  17  19
ATOM     19  C   UNL     1       5.601   4.841  16.558  0.00  0.00    +0.000 C 
ATOM     20  C   UNL     1       5.443   5.410  15.150  0.00  0.00    +0.000 C 
ATOM     21  C   UNL     1       7.083   4.537  16.825  0.00  0.00    +0.000 C 
ENDBRANCH  17  19
BRANCH  16  22
ATOM     22  C   UNL     1       3.255   4.285  18.186  0.00  0.00    +0.000 C 
BRANCH  22  23
ATOM     23  C   UNL     1       2.557   3.780  19.404  0.00  0.00    +0.000 A 
ATOM     24  C   UNL     1       1.243   3.816  19.829  0.00  0.00    +0.000 A 
ATOM     25  C   UNL     1       1.205   3.139  21.073  0.00  0.00    +0.000 A 
ATOM     26  C   UNL     1       2.499   2.763  21.344  0.00  0.00    +0.000 A 
ATOM     27  O   UNL     1       3.328   3.153  20.342  0.00  0.00    +0.000 OA
ENDBRANCH  22  23
ENDBRANCH  16  22
ENDBRANCH  15  16
ENDBRANCH   3  15
TORSDOF 9
ENDMDL
MODEL 5
REMARK VINA RESULT:      -7.0      1.984      4.124
REMARK  Name = 
REMARK  13 active torsions:
REMARK  status: ('A' for Active; 'I' for Inactive)
REMARK    1  A    between atoms: C_1  and  C_2
REMARK    2  A    between atoms: C_2  and  S_3
REMARK    3  A    between atoms: S_3  and  O_6
REMARK    4  A    between atoms: O_6  and  C_7
REMARK    5  A    between atoms: C_9  and  C_10
REMARK    6  A    between atoms: C_10  and  N_11
REMARK    7  A    between atoms: N_11  and  C_12
REMARK    8  A    between atoms: C_12  and  C_13
REMARK    9  A    between atoms: C_18  and  C_20
REMARK   10  A    between atoms: C_20  and  C_21
REMARK   11  A    between atoms: C_20  and  C_22
REMARK   12  A    between atoms: C_25  and  O_26
REMARK   13  A    between atoms: O_26  and  C_27
REMARK                            x       y       z     vdW  Elec       q    Type
REMARK                         _______ _______ _______ _____ _____    ______ ____
ROOT
ATOM      1  C   UNL     1       0.921   9.848  19.432  0.00  0.00    +0.000 A 
ATOM      2  C   UNL     1       1.764   8.984  18.711  0.00  0.00    +0.000 A 
ATOM      3  C   UNL     1       2.164   7.735  19.234  0.00  0.00    +0.000 A 
ATOM      4  C   UNL     1       1.721   7.365  20.506  0.00  0.00    +0.000 A 
ATOM      5  C   UNL     1       0.919   8.233  21.242  0.00  0.00    +0.000 A 
ATOM      6  C   UNL     1       0.516   9.473  20.727  0.00  0.00    +0.000 A 
ENDROOT
BRANCH   6   7
ATOM      7  O   UNL     1      -0.257  10.160  21.627  0.00  0.00    +0.000 OA
ATOM      8  C   UNL     1      -0.393   9.687  22.954  0.00  0.00    +0.000 C 
ENDBRANCH   6   7
BRANCH   1   9
ATOM      9  O   UNL     1       0.412  11.012  18.912  0.00  0.00    +0.000 OA
BRANCH   9  10
ATOM     10  S   UNL     1       0.956  12.503  19.261  0.00  0.00    +0.000 S 
ATOM     11  O   UNL     1       1.311  13.207  18.044  0.00  0.00    +0.000 OA
ATOM     12  O   UNL     1       1.863  12.433  20.395  0.00  0.00    +0.000 OA
BRANCH  10  14
ATOM     13  C   UNL     1      -1.794  12.393  19.266  0.00  0.00    +0.000 C 
ATOM     14  C   UNL     1      -0.608  13.154  19.827  0.00  0.00    +0.000 C 
ENDBRANCH  10  14
ENDBRANCH   9  10
ENDBRANCH   1   9
BRANCH   3  15
ATOM     15  C   UNL     1       3.011   6.775  18.426  0.00  0.00    +0.000 C 
BRANCH  15  16
ATOM     16  N   UNL     1       3.077   5.344  18.808  0.00  0.00    +0.000 N 
ATOM     17  C   UNL     1       2.195   4.404  18.267  0.00  0.00    +0.000 C 
ATOM     18  O   UNL     1       1.253   4.704  17.532  0.00  0.00    +0.000 OA
BRANCH  17  19
ATOM     19  C   UNL     1       2.355   2.922  18.634  0.00  0.00    +0.000 C 
ATOM     20  C   UNL     1       0.988   2.290  18.886  0.00  0.00    +0.000 C 
ATOM     21  C   UNL     1       3.049   2.194  17.473  0.00  0.00    +0.000 C 
ENDBRANCH  17  19
BRANCH  16  22
ATOM     22  C   UNL     1       4.219   4.916  19.640  0.00  0.00    +0.000 C 
BRANCH  22  23
ATOM     23  C   UNL     1       5.559   4.976  18.989  0.00  0.00    +0.000 A 
ATOM     24  C   UNL     1       6.023   4.622  17.736  0.00  0.00    +0.000 A 
ATOM     25  C   UNL     1       7.402   4.947  17.713  0.00  0.00    +0.000 A 
ATOM     26  C   UNL     1       7.699   5.447  18.959  0.00  0.00    +0.000 A 
ATOM     27  O   UNL     1       6.590   5.463  19.742  0.00  0.00    +0.000 OA
ENDBRANCH  22  23
ENDBRANCH  16  22
ENDBRANCH  15  16
ENDBRANCH   3  15
TORSDOF 9
ENDMDL
MODEL 6
REMARK VINA RESULT:      -7.0      0.873      1.054
REMARK  Name = 
REMARK  13 active torsions:
REMARK  status: ('A' for Active; 'I' for Inactive)
REMARK    1  A    between atoms: C_1  and  C_2
REMARK    2  A    between atoms: C_2  and  S_3
REMARK    3  A    between atoms: S_3  and  O_6
REMARK    4  A    between atoms: O_6  and  C_7
REMARK    5  A    between atoms: C_9  and  C_10
REMARK    6  A    between atoms: C_10  and  N_11
REMARK    7  A    between atoms: N_11  and  C_12
REMARK    8  A    between atoms: C_12  and  C_13
REMARK    9  A    between atoms: C_18  and  C_20
REMARK   10  A    between atoms: C_20  and  C_21
REMARK   11  A    between atoms: C_20  and  C_22
REMARK   12  A    between atoms: C_25  and  O_26
REMARK   13  A    between atoms: O_26  and  C_27
REMARK                            x       y       z     vdW  Elec       q    Type
REMARK                         _______ _______ _______ _____ _____    ______ ____
ROOT
ATOM      1  C   UNL     1       0.140   9.590  20.014  0.00  0.00    +0.000 A 
ATOM      2  C   UNL     1       0.998   8.489  20.184  0.00  0.00    +0.000 A 
ATOM      3  C   UNL     1       1.925   8.114  19.187  0.00  0.00    +0.000 A 
ATOM      4  C   UNL     1       1.973   8.849  18.001  0.00  0.00    +0.000 A 
ATOM      5  C   UNL     1       1.098   9.916  17.809  0.00  0.00    +0.000 A 
ATOM      6  C   UNL     1       0.178  10.295  18.797  0.00  0.00    +0.000 A 
ENDROOT
BRANCH   6   7
ATOM      7  O   UNL     1      -0.583  11.359  18.387  0.00  0.00    +0.000 OA
ATOM      8  C   UNL     1      -1.848  11.142  17.791  0.00  0.00    +0.000 C 
ENDBRANCH   6   7
BRANCH   1   9
ATOM      9  O   UNL     1      -0.688  10.060  21.003  0.00  0.00    +0.000 OA
BRANCH   9  10
ATOM     10  S   UNL     1      -0.210  10.972  22.260  0.00  0.00    +0.000 S 
ATOM     11  O   UNL     1       0.705  12.005  21.814  0.00  0.00    +0.000 OA
ATOM     12  O   UNL     1       0.102  10.112  23.390  0.00  0.00    +0.000 OA
BRANCH  10  14
ATOM     13  C   UNL     1      -2.304  12.510  21.350  0.00  0.00    +0.000 C 
ATOM     14  C   UNL     1      -1.794  11.742  22.556  0.00  0.00    +0.000 C 
ENDBRANCH  10  14
ENDBRANCH   9  10
ENDBRANCH   1   9
BRANCH   3  15
ATOM     15  C   UNL     1       2.899   6.974  19.403  0.00  0.00    +0.000 C 
BRANCH  15  16
ATOM     16  N   UNL     1       3.177   6.021  18.302  0.00  0.00    +0.000 N 
ATOM     17  C   UNL     1       4.339   6.119  17.530  0.00  0.00    +0.000 C 
ATOM     18  O   UNL     1       5.145   7.045  17.634  0.00  0.00    +0.000 OA
BRANCH  17  19
ATOM     19  C   UNL     1       4.621   5.061  16.454  0.00  0.00    +0.000 C 
ATOM     20  C   UNL     1       5.351   5.692  15.271  0.00  0.00    +0.000 C 
ATOM     21  C   UNL     1       5.492   3.953  17.063  0.00  0.00    +0.000 C 
ENDBRANCH  17  19
BRANCH  16  22
ATOM     22  C   UNL     1       2.277   4.858  18.167  0.00  0.00    +0.000 C 
BRANCH  22  23
ATOM     23  C   UNL     1       2.046   4.065  19.408  0.00  0.00    +0.000 A 
ATOM     24  C   UNL     1       0.931   3.829  20.190  0.00  0.00    +0.000 A 
ATOM     25  C   UNL     1       1.348   2.966  21.234  0.00  0.00    +0.000 A 
ATOM     26  C   UNL     1       2.694   2.757  21.042  0.00  0.00    +0.000 A 
ATOM     27  O   UNL     1       3.127   3.425  19.943  0.00  0.00    +0.000 OA
ENDBRANCH  22  23
ENDBRANCH  16  22
ENDBRANCH  15  16
ENDBRANCH   3  15
TORSDOF 9
ENDMDL
MODEL 7
REMARK VINA RESULT:      -6.9      1.185      3.509
REMARK  Name = 
REMARK  13 active torsions:
REMARK  status: ('A' for Active; 'I' for Inactive)
REMARK    1  A    between atoms: C_1  and  C_2
REMARK    2  A    between atoms: C_2  and  S_3
REMARK    3  A    between atoms: S_3  and  O_6
REMARK    4  A    between atoms: O_6  and  C_7
REMARK    5  A    between atoms: C_9  and  C_10
REMARK    6  A    between atoms: C_10  and  N_11
REMARK    7  A    between atoms: N_11  and  C_12
REMARK    8  A    between atoms: C_12  and  C_13
REMARK    9  A    between atoms: C_18  and  C_20
REMARK   10  A    between atoms: C_20  and  C_21
REMARK   11  A    between atoms: C_20  and  C_22
REMARK   12  A    between atoms: C_25  and  O_26
REMARK   13  A    between atoms: O_26  and  C_27
REMARK                            x       y       z     vdW  Elec       q    Type
REMARK                         _______ _______ _______ _____ _____    ______ ____
ROOT
ATOM      1  C   UNL     1       0.677   8.821  20.145  0.00  0.00    +0.000 A 
ATOM      2  C   UNL     1       1.575   7.742  20.215  0.00  0.00    +0.000 A 
ATOM      3  C   UNL     1       2.440   7.430  19.142  0.00  0.00    +0.000 A 
ATOM      4  C   UNL     1       2.382   8.207  17.983  0.00  0.00    +0.000 A 
ATOM      5  C   UNL     1       1.466   9.253  17.893  0.00  0.00    +0.000 A 
ATOM      6  C   UNL     1       0.608   9.569  18.955  0.00  0.00    +0.000 A 
ENDROOT
BRANCH   6   7
ATOM      7  O   UNL     1      -0.209  10.623  18.639  0.00  0.00    +0.000 OA
ATOM      8  C   UNL     1      -1.225  10.469  17.666  0.00  0.00    +0.000 C 
ENDBRANCH   6   7
BRANCH   1   9
ATOM      9  O   UNL     1      -0.091   9.231  21.207  0.00  0.00    +0.000 OA
BRANCH   9  10
ATOM     10  S   UNL     1       0.342  10.368  22.284  0.00  0.00    +0.000 S 
ATOM     11  O   UNL     1       1.226  11.337  21.665  0.00  0.00    +0.000 OA
ATOM     12  O   UNL     1       0.670   9.734  23.550  0.00  0.00    +0.000 OA
BRANCH  10  14
ATOM     13  C   UNL     1      -1.207  12.532  22.988  0.00  0.00    +0.000 C 
ATOM     14  C   UNL     1      -1.271  11.123  22.430  0.00  0.00    +0.000 C 
ENDBRANCH  10  14
ENDBRANCH   9  10
ENDBRANCH   1   9
BRANCH   3  15
ATOM     15  C   UNL     1       3.457   6.314  19.247  0.00  0.00    +0.000 C 
BRANCH  15  16
ATOM     16  N   UNL     1       3.209   5.020  18.567  0.00  0.00    +0.000 N 
ATOM     17  C   UNL     1       2.439   4.018  19.165  0.00  0.00    +0.000 C 
ATOM     18  O   UNL     1       2.008   4.093  20.317  0.00  0.00    +0.000 OA
BRANCH  17  19
ATOM     19  C   UNL     1       2.145   2.727  18.388  0.00  0.00    +0.000 C 
ATOM     20  C   UNL     1       3.198   1.669  18.704  0.00  0.00    +0.000 C 
ATOM     21  C   UNL     1       0.758   2.208  18.793  0.00  0.00    +0.000 C 
ENDBRANCH  17  19
BRANCH  16  22
ATOM     22  C   UNL     1       3.652   4.894  17.163  0.00  0.00    +0.000 C 
BRANCH  22  23
ATOM     23  C   UNL     1       5.116   5.044  16.926  0.00  0.00    +0.000 A 
ATOM     24  C   UNL     1       5.862   5.768  16.016  0.00  0.00    +0.000 A 
ATOM     25  C   UNL     1       7.222   5.511  16.316  0.00  0.00    +0.000 A 
ATOM     26  C   UNL     1       7.221   4.623  17.367  0.00  0.00    +0.000 A 
ATOM     27  O   UNL     1       5.949   4.329  17.739  0.00  0.00    +0.000 OA
ENDBRANCH  22  23
ENDBRANCH  16  22
ENDBRANCH  15  16
ENDBRANCH   3  15
TORSDOF 9
ENDMDL
MODEL 8
REMARK VINA RESULT:      -6.9      2.109      4.335
REMARK  Name = 
REMARK  13 active torsions:
REMARK  status: ('A' for Active; 'I' for Inactive)
REMARK    1  A    between atoms: C_1  and  C_2
REMARK    2  A    between atoms: C_2  and  S_3
REMARK    3  A    between atoms: S_3  and  O_6
REMARK    4  A    between atoms: O_6  and  C_7
REMARK    5  A    between atoms: C_9  and  C_10
REMARK    6  A    between atoms: C_10  and  N_11
REMARK    7  A    between atoms: N_11  and  C_12
REMARK    8  A    between atoms: C_12  and  C_13
REMARK    9  A    between atoms: C_18  and  C_20
REMARK   10  A    between atoms: C_20  and  C_21
REMARK   11  A    between atoms: C_20  and  C_22
REMARK   12  A    between atoms: C_25  and  O_26
REMARK   13  A    between atoms: O_26  and  C_27
REMARK                            x       y       z     vdW  Elec       q    Type
REMARK                         _______ _______ _______ _____ _____    ______ ____
ROOT
ATOM      1  C   UNL     1       1.053   9.906  19.497  0.00  0.00    +0.000 A 
ATOM      2  C   UNL     1       1.821   9.047  18.692  0.00  0.00    +0.000 A 
ATOM      3  C   UNL     1       2.181   7.752  19.128  0.00  0.00    +0.000 A 
ATOM      4  C   UNL     1       1.775   7.332  20.397  0.00  0.00    +0.000 A 
ATOM      5  C   UNL     1       1.048   8.194  21.215  0.00  0.00    +0.000 A 
ATOM      6  C   UNL     1       0.685   9.478  20.786  0.00  0.00    +0.000 A 
ENDROOT
BRANCH   6   7
ATOM      7  O   UNL     1      -0.014  10.148  21.756  0.00  0.00    +0.000 OA
ATOM      8  C   UNL     1      -0.320   9.509  22.982  0.00  0.00    +0.000 C 
ENDBRANCH   6   7
BRANCH   1   9
ATOM      9  O   UNL     1       0.580  11.121  19.065  0.00  0.00    +0.000 OA
BRANCH   9  10
ATOM     10  S   UNL     1       1.190  12.564  19.498  0.00  0.00    +0.000 S 
ATOM     11  O   UNL     1       1.846  12.467  20.787  0.00  0.00    +0.000 OA
ATOM     12  O   UNL     1       0.215  13.604  19.213  0.00  0.00    +0.000 OA
BRANCH  10  14
ATOM     13  C   UNL     1       2.956  14.032  17.980  0.00  0.00    +0.000 C 
ATOM     14  C   UNL     1       2.462  12.622  18.245  0.00  0.00    +0.000 C 
ENDBRANCH  10  14
ENDBRANCH   9  10
ENDBRANCH   1   9
BRANCH   3  15
ATOM     15  C   UNL     1       2.944   6.801  18.231  0.00  0.00    +0.000 C 
BRANCH  15  16
ATOM     16  N   UNL     1       3.166   5.399  18.658  0.00  0.00    +0.000 N 
ATOM     17  C   UNL     1       2.262   4.385  18.327  0.00  0.00    +0.000 C 
ATOM     18  O   UNL     1       1.187   4.593  17.762  0.00  0.00    +0.000 OA
BRANCH  17  19
ATOM     19  C   UNL     1       2.577   2.935  18.724  0.00  0.00    +0.000 C 
ATOM     20  C   UNL     1       1.372   2.304  19.417  0.00  0.00    +0.000 C 
ATOM     21  C   UNL     1       2.916   2.136  17.457  0.00  0.00    +0.000 C 
ENDBRANCH  17  19
BRANCH  16  22
ATOM     22  C   UNL     1       4.462   5.078  19.288  0.00  0.00    +0.000 C 
BRANCH  22  23
ATOM     23  C   UNL     1       5.606   4.864  18.354  0.00  0.00    +0.000 A 
ATOM     24  C   UNL     1       5.696   4.694  16.986  0.00  0.00    +0.000 A 
ATOM     25  C   UNL     1       7.074   4.560  16.688  0.00  0.00    +0.000 A 
ATOM     26  C   UNL     1       7.734   4.624  17.893  0.00  0.00    +0.000 A 
ATOM     27  O   UNL     1       6.852   4.801  18.910  0.00  0.00    +0.000 OA
ENDBRANCH  22  23
ENDBRANCH  16  22
ENDBRANCH  15  16
ENDBRANCH   3  15
TORSDOF 9
ENDMDL
MODEL 9
REMARK VINA RESULT:      -6.8      1.977      4.347
REMARK  Name = 
REMARK  13 active torsions:
REMARK  status: ('A' for Active; 'I' for Inactive)
REMARK    1  A    between atoms: C_1  and  C_2
REMARK    2  A    between atoms: C_2  and  S_3
REMARK    3  A    between atoms: S_3  and  O_6
REMARK    4  A    between atoms: O_6  and  C_7
REMARK    5  A    between atoms: C_9  and  C_10
REMARK    6  A    between atoms: C_10  and  N_11
REMARK    7  A    between atoms: N_11  and  C_12
REMARK    8  A    between atoms: C_12  and  C_13
REMARK    9  A    between atoms: C_18  and  C_20
REMARK   10  A    between atoms: C_20  and  C_21
REMARK   11  A    between atoms: C_20  and  C_22
REMARK   12  A    between atoms: C_25  and  O_26
REMARK   13  A    between atoms: O_26  and  C_27
REMARK                            x       y       z     vdW  Elec       q    Type
REMARK                         _______ _______ _______ _____ _____    ______ ____
ROOT
ATOM      1  C   UNL     1       1.172   9.783  19.351  0.00  0.00    +0.000 A 
ATOM      2  C   UNL     1       1.912   8.878  18.571  0.00  0.00    +0.000 A 
ATOM      3  C   UNL     1       2.263   7.599  19.058  0.00  0.00    +0.000 A 
ATOM      4  C   UNL     1       1.875   7.242  20.352  0.00  0.00    +0.000 A 
ATOM      5  C   UNL     1       1.176   8.150  21.143  0.00  0.00    +0.000 A 
ATOM      6  C   UNL     1       0.823   9.419  20.664  0.00  0.00    +0.000 A 
ENDROOT
BRANCH   6   7
ATOM      7  O   UNL     1       0.151  10.142  21.616  0.00  0.00    +0.000 OA
ATOM      8  C   UNL     1      -0.412   9.490  22.738  0.00  0.00    +0.000 C 
ENDBRANCH   6   7
BRANCH   1   9
ATOM      9  O   UNL     1       0.708  10.984  18.873  0.00  0.00    +0.000 OA
BRANCH   9  10
ATOM     10  S   UNL     1       1.516  12.392  18.951  0.00  0.00    +0.000 S 
ATOM     11  O   UNL     1       2.538  12.444  17.924  0.00  0.00    +0.000 OA
ATOM     12  O   UNL     1       1.812  12.701  20.340  0.00  0.00    +0.000 OA
BRANCH  10  14
ATOM     13  C   UNL     1      -1.178  12.713  18.483  0.00  0.00    +0.000 C 
ATOM     14  C   UNL     1       0.160  13.426  18.418  0.00  0.00    +0.000 C 
ENDBRANCH  10  14
ENDBRANCH   9  10
ENDBRANCH   1   9
BRANCH   3  15
ATOM     15  C   UNL     1       2.996   6.597  18.192  0.00  0.00    +0.000 C 
BRANCH  15  16
ATOM     16  N   UNL     1       3.290   5.242  18.714  0.00  0.00    +0.000 N 
ATOM     17  C   UNL     1       2.394   4.182  18.535  0.00  0.00    +0.000 C 
ATOM     18  O   UNL     1       1.275   4.318  18.036  0.00  0.00    +0.000 OA
BRANCH  17  19
ATOM     19  C   UNL     1       2.779   2.779  19.024  0.00  0.00    +0.000 C 
ATOM     20  C   UNL     1       1.645   2.178  19.851  0.00  0.00    +0.000 C 
ATOM     21  C   UNL     1       3.054   1.886  17.806  0.00  0.00    +0.000 C 
ENDBRANCH  17  19
BRANCH  16  22
ATOM     22  C   UNL     1       4.637   5.005  19.269  0.00  0.00    +0.000 C 
BRANCH  22  23
ATOM     23  C   UNL     1       5.732   4.831  18.272  0.00  0.00    +0.000 A 
ATOM     24  C   UNL     1       7.097   5.040  18.314  0.00  0.00    +0.000 A 
ATOM     25  C   UNL     1       7.600   4.665  17.043  0.00  0.00    +0.000 A 
ATOM     26  C   UNL     1       6.509   4.284  16.298  0.00  0.00    +0.000 A 
ATOM     27  O   UNL     1       5.371   4.387  17.031  0.00  0.00    +0.000 OA
ENDBRANCH  22  23
ENDBRANCH  16  22
ENDBRANCH  15  16
ENDBRANCH   3  15
TORSDOF 9
ENDMDL
