MODEL 1
REMARK VINA RESULT:      -6.2      0.000      0.000
REMARK  Name = 
REMARK  5 active torsions:
REMARK  status: ('A' for Active; 'I' for Inactive)
REMARK    1  A    between atoms: C_1  and  C_2
REMARK    2  A    between atoms: C_2  and  O_3
REMARK    3  A    between atoms: O_3  and  C_4
REMARK    4  A    between atoms: C_7  and  C_8
REMARK    5  A    between atoms: N_16  and  C_17
REMARK                            x       y       z     vdW  Elec       q    Type
REMARK                         _______ _______ _______ _____ _____    ______ ____
ROOT
ATOM      1  C   UNL     1      -1.638  12.204  18.885  0.00  0.00    +0.000 C 
ATOM      2  N   UNL     1      -0.874  13.249  18.267  0.00  0.00    +0.000 N 
ATOM      3  C   UNL     1      -0.256  14.232  18.990  0.00  0.00    +0.000 C 
ATOM      4  O   UNL     1       0.642  14.904  18.500  0.00  0.00    +0.000 OA
ATOM      5  C   UNL     1      -0.778  14.442  20.360  0.00  0.00    +0.000 A 
ATOM      6  S   UNL     1      -0.153  15.573  21.460  0.00  0.00    +0.000 S 
ATOM      7  C   UNL     1      -1.356  15.071  22.673  0.00  0.00    +0.000 A 
ATOM      8  S   UNL     1      -1.189  15.595  24.257  0.00  0.00    +0.000 S 
ATOM      9  N   UNL     1      -2.263  14.143  22.079  0.00  0.00    +0.000 N 
ATOM     10  C   UNL     1      -1.863  13.765  20.781  0.00  0.00    +0.000 A 
ATOM     11  N   UNL     1      -2.418  12.838  19.924  0.00  0.00    +0.000 N 
ATOM     12  H   UNL     1      -0.450  13.081  17.368  0.00  0.00    +0.000 HD
ATOM     13  H   UNL     1      -3.243  12.338  20.226  0.00  0.00    +0.000 HD
ENDROOT
BRANCH   1  17
ATOM     14  C   UNL     1       1.037   9.020  20.191  0.00  0.00    +0.000 A 
ATOM     15  C   UNL     1       0.138   9.580  21.093  0.00  0.00    +0.000 A 
ATOM     16  C   UNL     1      -0.739  10.589  20.690  0.00  0.00    +0.000 A 
ATOM     17  C   UNL     1      -0.733  11.076  19.372  0.00  0.00    +0.000 A 
ATOM     18  C   UNL     1       0.193  10.507  18.478  0.00  0.00    +0.000 A 
ATOM     19  C   UNL     1       1.076   9.500  18.884  0.00  0.00    +0.000 A 
BRANCH  14  20
ATOM     20  O   UNL     1       1.827   8.028  20.700  0.00  0.00    +0.000 OA
BRANCH  20  22
ATOM     21  C   UNL     1       1.891   5.669  20.392  0.00  0.00    +0.000 C 
ATOM     22  C   UNL     1       2.237   7.016  19.784  0.00  0.00    +0.000 C 
ENDBRANCH  20  22
ENDBRANCH  14  20
ENDBRANCH   1  17
BRANCH   9  23
ATOM     23  C   UNL     1      -3.455  13.670  22.749  0.00  0.00    +0.000 A 
ATOM     24  C   UNL     1      -3.383  12.716  23.777  0.00  0.00    +0.000 A 
ATOM     25  C   UNL     1      -4.523  12.284  24.467  0.00  0.00    +0.000 A 
ATOM     26  C   UNL     1      -5.764  12.833  24.176  0.00  0.00    +0.000 A 
ATOM     27  C   UNL     1      -5.867  13.783  23.168  0.00  0.00    +0.000 A 
ATOM     28  C   UNL     1      -4.730  14.175  22.448  0.00  0.00    +0.000 A 
ENDBRANCH   9  23
TORSDOF 4
ENDMDL
MODEL 2
REMARK VINA RESULT:      -6.1      3.301      7.213
REMARK  Name = 
REMARK  5 active torsions:
REMARK  status: ('A' for Active; 'I' for Inactive)
REMARK    1  A    between atoms: C_1  and  C_2
REMARK    2  A    between atoms: C_2  and  O_3
REMARK    3  A    between atoms: O_3  and  C_4
REMARK    4  A    between atoms: C_7  and  C_8
REMARK    5  A    between atoms: N_16  and  C_17
REMARK                            x       y       z     vdW  Elec       q    Type
REMARK                         _______ _______ _______ _____ _____    ______ ____
ROOT
ATOM      1  C   UNL     1      -4.711  12.740  23.936  0.00  0.00    +0.000 C 
ATOM      2  N   UNL     1      -4.501  13.881  24.778  0.00  0.00    +0.000 N 
ATOM      3  C   UNL     1      -3.484  14.772  24.566  0.00  0.00    +0.000 C 
ATOM      4  O   UNL     1      -3.512  15.888  25.066  0.00  0.00    +0.000 OA
ATOM      5  C   UNL     1      -2.359  14.273  23.742  0.00  0.00    +0.000 A 
ATOM      6  S   UNL     1      -1.004  15.199  23.311  0.00  0.00    +0.000 S 
ATOM      7  C   UNL     1      -0.331  13.815  22.417  0.00  0.00    +0.000 A 
ATOM      8  S   UNL     1       0.981  14.055  21.401  0.00  0.00    +0.000 S 
ATOM      9  N   UNL     1      -1.153  12.669  22.637  0.00  0.00    +0.000 N 
ATOM     10  C   UNL     1      -2.329  12.987  23.347  0.00  0.00    +0.000 A 
ATOM     11  N   UNL     1      -3.401  12.185  23.677  0.00  0.00    +0.000 N 
ATOM     12  H   UNL     1      -5.283  14.273  25.279  0.00  0.00    +0.000 HD
ATOM     13  H   UNL     1      -3.379  11.213  23.399  0.00  0.00    +0.000 HD
ENDROOT
BRANCH   1  17
ATOM     14  C   UNL     1      -6.987  13.931  20.414  0.00  0.00    +0.000 A 
ATOM     15  C   UNL     1      -5.885  13.094  20.273  0.00  0.00    +0.000 A 
ATOM     16  C   UNL     1      -5.152  12.686  21.391  0.00  0.00    +0.000 A 
ATOM     17  C   UNL     1      -5.497  13.117  22.683  0.00  0.00    +0.000 A 
ATOM     18  C   UNL     1      -6.606  13.974  22.804  0.00  0.00    +0.000 A 
ATOM     19  C   UNL     1      -7.336  14.387  21.683  0.00  0.00    +0.000 A 
BRANCH  14  20
ATOM     20  O   UNL     1      -7.632  14.241  19.250  0.00  0.00    +0.000 OA
BRANCH  20  22
ATOM     21  C   UNL     1      -6.651  16.173  18.269  0.00  0.00    +0.000 C 
ATOM     22  C   UNL     1      -7.859  15.627  19.005  0.00  0.00    +0.000 C 
ENDBRANCH  20  22
ENDBRANCH  14  20
ENDBRANCH   1  17
BRANCH   9  23
ATOM     23  C   UNL     1      -0.791  11.343  22.186  0.00  0.00    +0.000 A 
ATOM     24  C   UNL     1      -0.695  11.041  20.817  0.00  0.00    +0.000 A 
ATOM     25  C   UNL     1      -0.299   9.775  20.365  0.00  0.00    +0.000 A 
ATOM     26  C   UNL     1       0.057   8.789  21.275  0.00  0.00    +0.000 A 
ATOM     27  C   UNL     1      -0.023   9.060  22.635  0.00  0.00    +0.000 A 
ATOM     28  C   UNL     1      -0.467  10.312  23.082  0.00  0.00    +0.000 A 
ENDBRANCH   9  23
TORSDOF 4
ENDMDL
MODEL 3
REMARK VINA RESULT:      -6.0      3.516      5.909
REMARK  Name = 
REMARK  5 active torsions:
REMARK  status: ('A' for Active; 'I' for Inactive)
REMARK    1  A    between atoms: C_1  and  C_2
REMARK    2  A    between atoms: C_2  and  O_3
REMARK    3  A    between atoms: O_3  and  C_4
REMARK    4  A    between atoms: C_7  and  C_8
REMARK    5  A    between atoms: N_16  and  C_17
REMARK                            x       y       z     vdW  Elec       q    Type
REMARK                         _______ _______ _______ _____ _____    ______ ____
ROOT
ATOM      1  C   UNL     1       0.075  11.570  18.898  0.00  0.00    +0.000 C 
ATOM      2  N   UNL     1       0.380  10.991  20.174  0.00  0.00    +0.000 N 
ATOM      3  C   UNL     1       0.119  11.635  21.353  0.00  0.00    +0.000 C 
ATOM      4  O   UNL     1       0.072  11.019  22.409  0.00  0.00    +0.000 OA
ATOM      5  C   UNL     1      -0.051  13.103  21.254  0.00  0.00    +0.000 A 
ATOM      6  S   UNL     1      -0.418  14.114  22.567  0.00  0.00    +0.000 S 
ATOM      7  C   UNL     1      -0.409  15.531  21.490  0.00  0.00    +0.000 A 
ATOM      8  S   UNL     1      -1.002  16.994  22.056  0.00  0.00    +0.000 S 
ATOM      9  N   UNL     1       0.023  15.131  20.190  0.00  0.00    +0.000 N 
ATOM     10  C   UNL     1       0.158  13.731  20.083  0.00  0.00    +0.000 A 
ATOM     11  N   UNL     1       0.467  12.959  18.983  0.00  0.00    +0.000 N 
ATOM     12  H   UNL     1       0.419   9.988  20.262  0.00  0.00    +0.000 HD
ATOM     13  H   UNL     1       0.642  13.424  18.102  0.00  0.00    +0.000 HD
ENDROOT
BRANCH   1  17
ATOM     14  C   UNL     1      -4.083  10.803  17.839  0.00  0.00    +0.000 A 
ATOM     15  C   UNL     1      -3.760  11.916  18.609  0.00  0.00    +0.000 A 
ATOM     16  C   UNL     1      -2.432  12.189  18.945  0.00  0.00    +0.000 A 
ATOM     17  C   UNL     1      -1.388  11.347  18.528  0.00  0.00    +0.000 A 
ATOM     18  C   UNL     1      -1.736  10.218  17.763  0.00  0.00    +0.000 A 
ATOM     19  C   UNL     1      -3.067   9.942  17.431  0.00  0.00    +0.000 A 
BRANCH  14  20
ATOM     20  O   UNL     1      -5.412  10.657  17.561  0.00  0.00    +0.000 OA
BRANCH  20  22
ATOM     21  C   UNL     1      -6.891   9.876  19.254  0.00  0.00    +0.000 C 
ATOM     22  C   UNL     1      -6.320  11.102  18.567  0.00  0.00    +0.000 C 
ENDBRANCH  20  22
ENDBRANCH  14  20
ENDBRANCH   1  17
BRANCH   9  23
ATOM     23  C   UNL     1       0.298  16.073  19.127  0.00  0.00    +0.000 A 
ATOM     24  C   UNL     1      -0.741  16.763  18.480  0.00  0.00    +0.000 A 
ATOM     25  C   UNL     1      -0.489  17.714  17.482  0.00  0.00    +0.000 A 
ATOM     26  C   UNL     1       0.818  18.033  17.139  0.00  0.00    +0.000 A 
ATOM     27  C   UNL     1       1.867  17.371  17.765  0.00  0.00    +0.000 A 
ATOM     28  C   UNL     1       1.606  16.386  18.727  0.00  0.00    +0.000 A 
ENDBRANCH   9  23
TORSDOF 4
ENDMDL
MODEL 4
REMARK VINA RESULT:      -5.9      3.272      6.130
REMARK  Name = 
REMARK  5 active torsions:
REMARK  status: ('A' for Active; 'I' for Inactive)
REMARK    1  A    between atoms: C_1  and  C_2
REMARK    2  A    between atoms: C_2  and  O_3
REMARK    3  A    between atoms: O_3  and  C_4
REMARK    4  A    between atoms: C_7  and  C_8
REMARK    5  A    between atoms: N_16  and  C_17
REMARK                            x       y       z     vdW  Elec       q    Type
REMARK                         _______ _______ _______ _____ _____    ______ ____
ROOT
ATOM      1  C   UNL     1      -1.770  11.767  17.430  0.00  0.00    +0.000 C 
ATOM      2  N   UNL     1      -1.037  10.662  17.974  0.00  0.00    +0.000 N 
ATOM      3  C   UNL     1      -0.453  10.707  19.210  0.00  0.00    +0.000 C 
ATOM      4  O   UNL     1      -0.127   9.679  19.789  0.00  0.00    +0.000 OA
ATOM      5  C   UNL     1      -0.212  12.063  19.754  0.00  0.00    +0.000 A 
ATOM      6  S   UNL     1       0.465  12.376  21.278  0.00  0.00    +0.000 S 
ATOM      7  C   UNL     1       0.332  14.127  20.987  0.00  0.00    +0.000 A 
ATOM      8  S   UNL     1       0.573  15.191  22.261  0.00  0.00    +0.000 S 
ATOM      9  N   UNL     1      -0.106  14.349  19.647  0.00  0.00    +0.000 N 
ATOM     10  C   UNL     1      -0.462  13.149  18.999  0.00  0.00    +0.000 A 
ATOM     11  N   UNL     1      -1.005  12.952  17.747  0.00  0.00    +0.000 N 
ATOM     12  H   UNL     1      -1.254   9.728  17.663  0.00  0.00    +0.000 HD
ATOM     13  H   UNL     1      -1.181  13.761  17.166  0.00  0.00    +0.000 HD
ENDROOT
BRANCH   1  17
ATOM     14  C   UNL     1      -5.895  11.710  18.837  0.00  0.00    +0.000 A 
ATOM     15  C   UNL     1      -4.891  12.207  19.662  0.00  0.00    +0.000 A 
ATOM     16  C   UNL     1      -3.566  12.251  19.223  0.00  0.00    +0.000 A 
ATOM     17  C   UNL     1      -3.205  11.785  17.948  0.00  0.00    +0.000 A 
ATOM     18  C   UNL     1      -4.233  11.272  17.134  0.00  0.00    +0.000 A 
ATOM     19  C   UNL     1      -5.560  11.223  17.576  0.00  0.00    +0.000 A 
BRANCH  14  20
ATOM     20  O   UNL     1      -7.152  11.740  19.372  0.00  0.00    +0.000 OA
BRANCH  20  22
ATOM     21  C   UNL     1      -7.399   9.537  20.237  0.00  0.00    +0.000 C 
ATOM     22  C   UNL     1      -7.339  11.013  20.584  0.00  0.00    +0.000 C 
ENDBRANCH  20  22
ENDBRANCH  14  20
ENDBRANCH   1  17
BRANCH   9  23
ATOM     23  C   UNL     1      -0.156  15.663  19.043  0.00  0.00    +0.000 A 
ATOM     24  C   UNL     1      -1.310  16.459  19.128  0.00  0.00    +0.000 A 
ATOM     25  C   UNL     1      -1.358  17.752  18.590  0.00  0.00    +0.000 A 
ATOM     26  C   UNL     1      -0.231  18.300  17.992  0.00  0.00    +0.000 A 
ATOM     27  C   UNL     1       0.926  17.538  17.897  0.00  0.00    +0.000 A 
ATOM     28  C   UNL     1       0.952  16.228  18.393  0.00  0.00    +0.000 A 
ENDBRANCH   9  23
TORSDOF 4
ENDMDL
MODEL 5
REMARK VINA RESULT:      -5.9      2.935      6.337
REMARK  Name = 
REMARK  5 active torsions:
REMARK  status: ('A' for Active; 'I' for Inactive)
REMARK    1  A    between atoms: C_1  and  C_2
REMARK    2  A    between atoms: C_2  and  O_3
REMARK    3  A    between atoms: O_3  and  C_4
REMARK    4  A    between atoms: C_7  and  C_8
REMARK    5  A    between atoms: N_16  and  C_17
REMARK                            x       y       z     vdW  Elec       q    Type
REMARK                         _______ _______ _______ _____ _____    ______ ____
ROOT
ATOM      1  C   UNL     1      -1.708  11.894  17.594  0.00  0.00    +0.000 C 
ATOM      2  N   UNL     1      -0.935  10.740  17.951  0.00  0.00    +0.000 N 
ATOM      3  C   UNL     1      -0.086  10.729  19.024  0.00  0.00    +0.000 C 
ATOM      4  O   UNL     1       0.303   9.675  19.508  0.00  0.00    +0.000 OA
ATOM      5  C   UNL     1       0.347  12.060  19.509  0.00  0.00    +0.000 A 
ATOM      6  S   UNL     1       1.365  12.307  20.845  0.00  0.00    +0.000 S 
ATOM      7  C   UNL     1       1.269  14.068  20.603  0.00  0.00    +0.000 A 
ATOM      8  S   UNL     1       1.850  15.092  21.798  0.00  0.00    +0.000 S 
ATOM      9  N   UNL     1       0.555  14.339  19.398  0.00  0.00    +0.000 N 
ATOM     10  C   UNL     1      -0.005  13.172  18.839  0.00  0.00    +0.000 A 
ATOM     11  N   UNL     1      -0.825  13.030  17.739  0.00  0.00    +0.000 N 
ATOM     12  H   UNL     1      -1.268   9.825  17.691  0.00  0.00    +0.000 HD
ATOM     13  H   UNL     1      -1.081  13.858  17.219  0.00  0.00    +0.000 HD
ENDROOT
BRANCH   1  17
ATOM     14  C   UNL     1      -5.401  12.019  19.906  0.00  0.00    +0.000 A 
ATOM     15  C   UNL     1      -4.241  12.581  20.428  0.00  0.00    +0.000 A 
ATOM     16  C   UNL     1      -3.051  12.567  19.696  0.00  0.00    +0.000 A 
ATOM     17  C   UNL     1      -2.987  11.977  18.423  0.00  0.00    +0.000 A 
ATOM     18  C   UNL     1      -4.167  11.401  17.918  0.00  0.00    +0.000 A 
ATOM     19  C   UNL     1      -5.358  11.409  18.654  0.00  0.00    +0.000 A 
BRANCH  14  20
ATOM     20  O   UNL     1      -6.503  12.114  20.709  0.00  0.00    +0.000 OA
BRANCH  20  22
ATOM     21  C   UNL     1      -7.484  12.391  22.859  0.00  0.00    +0.000 C 
ATOM     22  C   UNL     1      -6.313  12.758  21.967  0.00  0.00    +0.000 C 
ENDBRANCH  20  22
ENDBRANCH  14  20
ENDBRANCH   1  17
BRANCH   9  23
ATOM     23  C   UNL     1       0.444  15.665  18.830  0.00  0.00    +0.000 A 
ATOM     24  C   UNL     1       1.552  16.303  18.250  0.00  0.00    +0.000 A 
ATOM     25  C   UNL     1       1.450  17.567  17.654  0.00  0.00    +0.000 A 
ATOM     26  C   UNL     1       0.220  18.206  17.581  0.00  0.00    +0.000 A 
ATOM     27  C   UNL     1      -0.896  17.597  18.141  0.00  0.00    +0.000 A 
ATOM     28  C   UNL     1      -0.777  16.355  18.780  0.00  0.00    +0.000 A 
ENDBRANCH   9  23
TORSDOF 4
ENDMDL
MODEL 6
REMARK VINA RESULT:      -5.9      2.436      3.545
REMARK  Name = 
REMARK  5 active torsions:
REMARK  status: ('A' for Active; 'I' for Inactive)
REMARK    1  A    between atoms: C_1  and  C_2
REMARK    2  A    between atoms: C_2  and  O_3
REMARK    3  A    between atoms: O_3  and  C_4
REMARK    4  A    between atoms: C_7  and  C_8
REMARK    5  A    between atoms: N_16  and  C_17
REMARK                            x       y       z     vdW  Elec       q    Type
REMARK                         _______ _______ _______ _____ _____    ______ ____
ROOT
ATOM      1  C   UNL     1       1.300  11.277  18.374  0.00  0.00    +0.000 C 
ATOM      2  N   UNL     1       2.090  12.221  19.109  0.00  0.00    +0.000 N 
ATOM      3  C   UNL     1       1.690  12.733  20.313  0.00  0.00    +0.000 C 
ATOM      4  O   UNL     1       2.494  13.261  21.070  0.00  0.00    +0.000 OA
ATOM      5  C   UNL     1       0.240  12.638  20.597  0.00  0.00    +0.000 A 
ATOM      6  S   UNL     1      -0.490  13.167  22.035  0.00  0.00    +0.000 S 
ATOM      7  C   UNL     1      -2.082  12.651  21.427  0.00  0.00    +0.000 A 
ATOM      8  S   UNL     1      -3.383  12.595  22.483  0.00  0.00    +0.000 S 
ATOM      9  N   UNL     1      -1.952  12.225  20.071  0.00  0.00    +0.000 N 
ATOM     10  C   UNL     1      -0.605  12.176  19.657  0.00  0.00    +0.000 A 
ATOM     11  N   UNL     1      -0.067  11.740  18.464  0.00  0.00    +0.000 N 
ATOM     12  H   UNL     1       3.090  12.234  18.976  0.00  0.00    +0.000 HD
ATOM     13  H   UNL     1      -0.695  11.407  17.746  0.00  0.00    +0.000 HD
ENDROOT
BRANCH   1  17
ATOM     14  C   UNL     1       2.040   7.213  19.765  0.00  0.00    +0.000 A 
ATOM     15  C   UNL     1       1.400   8.122  20.600  0.00  0.00    +0.000 A 
ATOM     16  C   UNL     1       1.138   9.424  20.167  0.00  0.00    +0.000 A 
ATOM     17  C   UNL     1       1.521   9.857  18.887  0.00  0.00    +0.000 A 
ATOM     18  C   UNL     1       2.180   8.927  18.062  0.00  0.00    +0.000 A 
ATOM     19  C   UNL     1       2.448   7.624  18.498  0.00  0.00    +0.000 A 
BRANCH  14  20
ATOM     20  O   UNL     1       2.220   5.967  20.296  0.00  0.00    +0.000 OA
BRANCH  20  22
ATOM     21  C   UNL     1       0.957   3.953  20.193  0.00  0.00    +0.000 C 
ATOM     22  C   UNL     1       1.908   4.867  19.443  0.00  0.00    +0.000 C 
ENDBRANCH  20  22
ENDBRANCH  14  20
ENDBRANCH   1  17
BRANCH   9  23
ATOM     23  C   UNL     1      -3.087  11.900  19.236  0.00  0.00    +0.000 A 
ATOM     24  C   UNL     1      -3.001  10.911  18.243  0.00  0.00    +0.000 A 
ATOM     25  C   UNL     1      -4.105  10.551  17.459  0.00  0.00    +0.000 A 
ATOM     26  C   UNL     1      -5.341  11.143  17.682  0.00  0.00    +0.000 A 
ATOM     27  C   UNL     1      -5.459  12.122  18.661  0.00  0.00    +0.000 A 
ATOM     28  C   UNL     1      -4.339  12.512  19.408  0.00  0.00    +0.000 A 
ENDBRANCH   9  23
TORSDOF 4
ENDMDL
MODEL 7
REMARK VINA RESULT:      -5.8      3.227      4.205
REMARK  Name = 
REMARK  5 active torsions:
REMARK  status: ('A' for Active; 'I' for Inactive)
REMARK    1  A    between atoms: C_1  and  C_2
REMARK    2  A    between atoms: C_2  and  O_3
REMARK    3  A    between atoms: O_3  and  C_4
REMARK    4  A    between atoms: C_7  and  C_8
REMARK    5  A    between atoms: N_16  and  C_17
REMARK                            x       y       z     vdW  Elec       q    Type
REMARK                         _______ _______ _______ _____ _____    ______ ____
ROOT
ATOM      1  C   UNL     1      -1.451  13.623  21.042  0.00  0.00    +0.000 C 
ATOM      2  N   UNL     1      -1.433  14.254  22.330  0.00  0.00    +0.000 N 
ATOM      3  C   UNL     1      -2.459  14.122  23.226  0.00  0.00    +0.000 C 
ATOM      4  O   UNL     1      -2.294  14.376  24.412  0.00  0.00    +0.000 OA
ATOM      5  C   UNL     1      -3.758  13.703  22.653  0.00  0.00    +0.000 A 
ATOM      6  S   UNL     1      -5.165  13.436  23.563  0.00  0.00    +0.000 S 
ATOM      7  C   UNL     1      -6.055  13.013  22.081  0.00  0.00    +0.000 A 
ATOM      8  S   UNL     1      -7.573  12.312  22.208  0.00  0.00    +0.000 S 
ATOM      9  N   UNL     1      -5.220  13.249  20.948  0.00  0.00    +0.000 N 
ATOM     10  C   UNL     1      -3.902  13.582  21.320  0.00  0.00    +0.000 A 
ATOM     11  N   UNL     1      -2.792  13.797  20.529  0.00  0.00    +0.000 N 
ATOM     12  H   UNL     1      -0.547  14.468  22.760  0.00  0.00    +0.000 HD
ATOM     13  H   UNL     1      -2.895  13.724  19.526  0.00  0.00    +0.000 HD
ENDROOT
BRANCH   1  17
ATOM     14  C   UNL     1      -0.090   9.485  21.183  0.00  0.00    +0.000 A 
ATOM     15  C   UNL     1      -0.165  10.227  22.357  0.00  0.00    +0.000 A 
ATOM     16  C   UNL     1      -0.615  11.549  22.336  0.00  0.00    +0.000 A 
ATOM     17  C   UNL     1      -0.992  12.171  21.134  0.00  0.00    +0.000 A 
ATOM     18  C   UNL     1      -0.895  11.408  19.955  0.00  0.00    +0.000 A 
ATOM     19  C   UNL     1      -0.438  10.085  19.976  0.00  0.00    +0.000 A 
BRANCH  14  20
ATOM     20  O   UNL     1       0.345   8.199  21.338  0.00  0.00    +0.000 OA
BRANCH  20  22
ATOM     21  C   UNL     1       1.643   6.359  20.568  0.00  0.00    +0.000 C 
ATOM     22  C   UNL     1       1.577   7.869  20.699  0.00  0.00    +0.000 C 
ENDBRANCH  20  22
ENDBRANCH  14  20
ENDBRANCH   1  17
BRANCH   9  23
ATOM     23  C   UNL     1      -5.699  13.162  19.585  0.00  0.00    +0.000 A 
ATOM     24  C   UNL     1      -5.441  12.030  18.794  0.00  0.00    +0.000 A 
ATOM     25  C   UNL     1      -5.939  11.910  17.490  0.00  0.00    +0.000 A 
ATOM     26  C   UNL     1      -6.751  12.904  16.959  0.00  0.00    +0.000 A 
ATOM     27  C   UNL     1      -7.028  14.033  17.720  0.00  0.00    +0.000 A 
ATOM     28  C   UNL     1      -6.486  14.169  19.005  0.00  0.00    +0.000 A 
ENDBRANCH   9  23
TORSDOF 4
ENDMDL
MODEL 8
REMARK VINA RESULT:      -5.8      3.513      5.923
REMARK  Name = 
REMARK  5 active torsions:
REMARK  status: ('A' for Active; 'I' for Inactive)
REMARK    1  A    between atoms: C_1  and  C_2
REMARK    2  A    between atoms: C_2  and  O_3
REMARK    3  A    between atoms: O_3  and  C_4
REMARK    4  A    between atoms: C_7  and  C_8
REMARK    5  A    between atoms: N_16  and  C_17
REMARK                            x       y       z     vdW  Elec       q    Type
REMARK                         _______ _______ _______ _____ _____    ______ ____
ROOT
ATOM      1  C   UNL     1       0.101  15.960  18.709  0.00  0.00    +0.000 C 
ATOM      2  N   UNL     1      -0.148  16.812  19.836  0.00  0.00    +0.000 N 
ATOM      3  C   UNL     1      -0.257  16.328  21.111  0.00  0.00    +0.000 C 
ATOM      4  O   UNL     1      -0.137  17.069  22.078  0.00  0.00    +0.000 OA
ATOM      5  C   UNL     1      -0.569  14.885  21.222  0.00  0.00    +0.000 A 
ATOM      6  S   UNL     1      -0.717  14.048  22.691  0.00  0.00    +0.000 S 
ATOM      7  C   UNL     1      -1.063  12.541  21.808  0.00  0.00    +0.000 A 
ATOM      8  S   UNL     1      -1.058  11.084  22.639  0.00  0.00    +0.000 S 
ATOM      9  N   UNL     1      -1.179  12.829  20.415  0.00  0.00    +0.000 N 
ATOM     10  C   UNL     1      -0.831  14.162  20.118  0.00  0.00    +0.000 A 
ATOM     11  N   UNL     1      -0.734  14.794  18.895  0.00  0.00    +0.000 N 
ATOM     12  H   UNL     1       0.136  17.778  19.794  0.00  0.00    +0.000 HD
ATOM     13  H   UNL     1      -0.946  14.264  18.061  0.00  0.00    +0.000 HD
ENDROOT
BRANCH   1  17
ATOM     14  C   UNL     1       4.322  14.983  18.235  0.00  0.00    +0.000 A 
ATOM     15  C   UNL     1       3.927  16.314  18.323  0.00  0.00    +0.000 A 
ATOM     16  C   UNL     1       2.581  16.647  18.493  0.00  0.00    +0.000 A 
ATOM     17  C   UNL     1       1.589  15.656  18.567  0.00  0.00    +0.000 A 
ATOM     18  C   UNL     1       2.006  14.316  18.461  0.00  0.00    +0.000 A 
ATOM     19  C   UNL     1       3.354  13.982  18.285  0.00  0.00    +0.000 A 
BRANCH  14  20
ATOM     20  O   UNL     1       5.666  14.785  18.091  0.00  0.00    +0.000 OA
BRANCH  20  22
ATOM     21  C   UNL     1       7.848  15.712  17.887  0.00  0.00    +0.000 C 
ATOM     22  C   UNL     1       6.513  15.814  18.600  0.00  0.00    +0.000 C 
ENDBRANCH  20  22
ENDBRANCH  14  20
ENDBRANCH   1  17
BRANCH   9  23
ATOM     23  C   UNL     1      -1.619  11.851  19.444  0.00  0.00    +0.000 A 
ATOM     24  C   UNL     1      -2.945  11.831  18.980  0.00  0.00    +0.000 A 
ATOM     25  C   UNL     1      -3.374  10.921  18.005  0.00  0.00    +0.000 A 
ATOM     26  C   UNL     1      -2.471  10.036  17.432  0.00  0.00    +0.000 A 
ATOM     27  C   UNL     1      -1.151  10.036  17.866  0.00  0.00    +0.000 A 
ATOM     28  C   UNL     1      -0.740  10.915  18.877  0.00  0.00    +0.000 A 
ENDBRANCH   9  23
TORSDOF 4
ENDMDL
MODEL 9
REMARK VINA RESULT:      -5.8      0.477      1.399
REMARK  Name = 
REMARK  5 active torsions:
REMARK  status: ('A' for Active; 'I' for Inactive)
REMARK    1  A    between atoms: C_1  and  C_2
REMARK    2  A    between atoms: C_2  and  O_3
REMARK    3  A    between atoms: O_3  and  C_4
REMARK    4  A    between atoms: C_7  and  C_8
REMARK    5  A    between atoms: N_16  and  C_17
REMARK                            x       y       z     vdW  Elec       q    Type
REMARK                         _______ _______ _______ _____ _____    ______ ____
ROOT
ATOM      1  C   UNL     1      -1.621  12.635  19.156  0.00  0.00    +0.000 C 
ATOM      2  N   UNL     1      -0.818  13.684  18.598  0.00  0.00    +0.000 N 
ATOM      3  C   UNL     1      -0.169  14.603  19.376  0.00  0.00    +0.000 C 
ATOM      4  O   UNL     1       0.755  15.268  18.926  0.00  0.00    +0.000 OA
ATOM      5  C   UNL     1      -0.690  14.756  20.753  0.00  0.00    +0.000 A 
ATOM      6  S   UNL     1      -0.032  15.803  21.916  0.00  0.00    +0.000 S 
ATOM      7  C   UNL     1      -1.257  15.279  23.095  0.00  0.00    +0.000 A 
ATOM      8  S   UNL     1      -1.081  15.709  24.707  0.00  0.00    +0.000 S 
ATOM      9  N   UNL     1      -2.194  14.418  22.449  0.00  0.00    +0.000 N 
ATOM     10  C   UNL     1      -1.800  14.097  21.134  0.00  0.00    +0.000 A 
ATOM     11  N   UNL     1      -2.384  13.239  20.225  0.00  0.00    +0.000 N 
ATOM     12  H   UNL     1      -0.395  13.551  17.693  0.00  0.00    +0.000 HD
ATOM     13  H   UNL     1      -3.227  12.752  20.496  0.00  0.00    +0.000 HD
ENDROOT
BRANCH   1  17
ATOM     14  C   UNL     1       0.756   9.228  20.475  0.00  0.00    +0.000 A 
ATOM     15  C   UNL     1       0.738   9.577  19.129  0.00  0.00    +0.000 A 
ATOM     16  C   UNL     1      -0.003  10.676  18.688  0.00  0.00    +0.000 A 
ATOM     17  C   UNL     1      -0.760  11.451  19.583  0.00  0.00    +0.000 A 
ATOM     18  C   UNL     1      -0.740  11.073  20.939  0.00  0.00    +0.000 A 
ATOM     19  C   UNL     1      -0.002   9.968  21.380  0.00  0.00    +0.000 A 
BRANCH  14  20
ATOM     20  O   UNL     1       1.533   8.148  20.784  0.00  0.00    +0.000 OA
BRANCH  20  22
ATOM     21  C   UNL     1       2.249   6.032  19.961  0.00  0.00    +0.000 C 
ATOM     22  C   UNL     1       2.209   7.526  19.693  0.00  0.00    +0.000 C 
ENDBRANCH  20  22
ENDBRANCH  14  20
ENDBRANCH   1  17
BRANCH   9  23
ATOM     23  C   UNL     1      -3.405  13.952  23.088  0.00  0.00    +0.000 A 
ATOM     24  C   UNL     1      -4.622  14.636  22.928  0.00  0.00    +0.000 A 
ATOM     25  C   UNL     1      -5.813  14.171  23.500  0.00  0.00    +0.000 A 
ATOM     26  C   UNL     1      -5.826  12.978  24.211  0.00  0.00    +0.000 A 
ATOM     27  C   UNL     1      -4.639  12.277  24.382  0.00  0.00    +0.000 A 
ATOM     28  C   UNL     1      -3.442  12.773  23.849  0.00  0.00    +0.000 A 
ENDBRANCH   9  23
TORSDOF 4
ENDMDL
