MODEL 1
REMARK VINA RESULT:      -9.0      0.000      0.000
REMARK  Name = 
REMARK  11 active torsions:
REMARK  status: ('A' for Active; 'I' for Inactive)
REMARK    1  A    between atoms: C_1  and  O_2
REMARK    2  A    between atoms: O_2  and  C_3
REMARK    3  A    between atoms: C_6  and  C_7
REMARK    4  A    between atoms: C_7  and  C_8
REMARK    5  A    between atoms: C_8  and  N_9
REMARK    6  A    between atoms: C_10  and  C_12
REMARK    7  A    between atoms: C_12  and  C_13
REMARK    8  A    between atoms: C_13  and  C_14
REMARK    9  A    between atoms: C_14  and  C_15
REMARK   10  A    between atoms: C_32  and  O_33
REMARK   11  A    between atoms: O_33  and  C_34
REMARK                            x       y       z     vdW  Elec       q    Type
REMARK                         _______ _______ _______ _____ _____    ______ ____
ROOT
ATOM      1  C   UNL     1       2.798   4.196  19.130  0.00  0.00    +0.000 C 
ATOM      2  C   UNL     1       3.322   2.834  19.574  0.00  0.00    +0.000 C 
ATOM      3  C   UNL     1       2.394   1.875  18.840  0.00  0.00    +0.000 C 
ATOM      4  C   UNL     1       1.053   2.619  18.699  0.00  0.00    +0.000 C 
ATOM      5  C   UNL     1       1.291   4.026  19.216  0.00  0.00    +0.000 C 
ENDROOT
BRANCH   1   6
ATOM      6  C   UNL     1       3.258   5.344  20.130  0.00  0.00    +0.000 C 
BRANCH   6   8
ATOM      7  N   UNL     1       1.865   7.203  21.053  0.00  0.00    +0.000 N 
ATOM      8  C   UNL     1       2.475   6.654  19.945  0.00  0.00    +0.000 C 
ATOM      9  O   UNL     1       2.375   7.212  18.855  0.00  0.00    +0.000 OA
ATOM     10  H   UNL     1       1.908   6.773  21.964  0.00  0.00    +0.000 HD
BRANCH   7  11
ATOM     11  C   UNL     1       1.121   8.438  20.878  0.00  0.00    +0.000 C 
BRANCH  11  12
ATOM     12  C   UNL     1       0.570   9.039  22.172  0.00  0.00    +0.000 C 
BRANCH  12  16
ATOM     13  C   UNL     1      -2.160  12.374  21.420  0.00  0.00    +0.000 A 
ATOM     14  C   UNL     1      -1.948  11.853  22.722  0.00  0.00    +0.000 A 
ATOM     15  C   UNL     1      -0.980  10.862  22.987  0.00  0.00    +0.000 A 
ATOM     16  C   UNL     1      -0.301  10.254  21.935  0.00  0.00    +0.000 A 
ATOM     17  C   UNL     1      -0.506  10.774  20.655  0.00  0.00    +0.000 A 
ATOM     18  C   UNL     1      -1.398  11.817  20.373  0.00  0.00    +0.000 A 
BRANCH  13  20
ATOM     19  C   UNL     1      -2.347  14.775  21.054  0.00  0.00    +0.000 C 
ATOM     20  O   UNL     1      -2.936  13.520  21.392  0.00  0.00    +0.000 OA
ENDBRANCH  13  20
BRANCH  18  21
ATOM     21  O   UNL     1      -1.295  12.108  19.027  0.00  0.00    +0.000 OA
ATOM     22  C   UNL     1      -2.365  11.643  18.281  0.00  0.00    +0.000 C 
ENDBRANCH  18  21
ENDBRANCH  12  16
ENDBRANCH  11  12
ENDBRANCH   7  11
ENDBRANCH   6   8
ENDBRANCH   1   6
BRANCH   1  23
ATOM     23  C   UNL     1       3.216   4.408  17.666  0.00  0.00    +0.000 C 
BRANCH  23  24
ATOM     24  C   UNL     1       4.703   4.736  16.840  0.00  0.00    +0.000 C 
ATOM     25  N   UNL     1       4.145   4.317  15.699  0.00  0.00    +0.000 NA
ATOM     26  S   UNL     1       5.424   4.669  15.127  0.00  0.00    +0.000 S 
ATOM     27  O   UNL     1       5.466   6.182  15.132  0.00  0.00    +0.000 OA
ATOM     28  O   UNL     1       6.216   3.507  15.844  0.00  0.00    +0.000 OA
ATOM     29  C   UNL     1       6.541   4.365  14.162  0.00  0.00    +0.000 A 
ATOM     30  C   UNL     1       5.589   3.511  13.178  0.00  0.00    +0.000 A 
ATOM     31  C   UNL     1       6.128   3.279  12.017  0.00  0.00    +0.000 A 
ATOM     32  C   UNL     1       7.136   4.204  11.982  0.00  0.00    +0.000 A 
ATOM     33  C   UNL     1       7.682   5.035  13.476  0.00  0.00    +0.000 A 
ATOM     34  C   UNL     1       7.496   5.223  15.157  0.00  0.00    +0.000 A 
ATOM     35  N   UNL     1       6.452   5.288  16.800  0.00  0.00    +0.000 N 
ATOM     36  H   UNL     1       6.760   5.598  17.745  0.00  0.00    +0.000 HD
ENDBRANCH  23  24
ENDBRANCH   1  23
TORSDOF 9
ENDMDL
MODEL 2
REMARK VINA RESULT:      -8.7      1.898      2.111
REMARK  Name = 
REMARK  11 active torsions:
REMARK  status: ('A' for Active; 'I' for Inactive)
REMARK    1  A    between atoms: C_1  and  O_2
REMARK    2  A    between atoms: O_2  and  C_3
REMARK    3  A    between atoms: C_6  and  C_7
REMARK    4  A    between atoms: C_7  and  C_8
REMARK    5  A    between atoms: C_8  and  N_9
REMARK    6  A    between atoms: C_10  and  C_12
REMARK    7  A    between atoms: C_12  and  C_13
REMARK    8  A    between atoms: C_13  and  C_14
REMARK    9  A    between atoms: C_14  and  C_15
REMARK   10  A    between atoms: C_32  and  O_33
REMARK   11  A    between atoms: O_33  and  C_34
REMARK                            x       y       z     vdW  Elec       q    Type
REMARK                         _______ _______ _______ _____ _____    ______ ____
ROOT
ATOM      1  C   UNL     1       3.036   3.709  19.151  0.00  0.00    +0.000 C 
ATOM      2  C   UNL     1       4.055   2.581  19.260  0.00  0.00    +0.000 C 
ATOM      3  C   UNL     1       3.654   1.669  18.109  0.00  0.00    +0.000 C 
ATOM      4  C   UNL     1       2.135   1.854  17.941  0.00  0.00    +0.000 C 
ATOM      5  C   UNL     1       1.735   2.969  18.889  0.00  0.00    +0.000 C 
ENDROOT
BRANCH   1   6
ATOM      6  C   UNL     1       2.919   4.515  20.517  0.00  0.00    +0.000 C 
BRANCH   6   8
ATOM      7  N   UNL     1       2.679   6.953  20.019  0.00  0.00    +0.000 N 
ATOM      8  C   UNL     1       2.056   5.782  20.398  0.00  0.00    +0.000 C 
ATOM      9  O   UNL     1       0.851   5.782  20.635  0.00  0.00    +0.000 OA
ATOM     10  H   UNL     1       3.668   7.004  19.830  0.00  0.00    +0.000 HD
BRANCH   7  11
ATOM     11  C   UNL     1       1.867   8.153  19.912  0.00  0.00    +0.000 C 
BRANCH  11  12
ATOM     12  C   UNL     1       1.682   8.672  18.486  0.00  0.00    +0.000 C 
BRANCH  12  16
ATOM     13  C   UNL     1      -0.175  12.631  18.620  0.00  0.00    +0.000 A 
ATOM     14  C   UNL     1       1.232  12.458  18.652  0.00  0.00    +0.000 A 
ATOM     15  C   UNL     1       1.838  11.195  18.486  0.00  0.00    +0.000 A 
ATOM     16  C   UNL     1       1.052  10.048  18.435  0.00  0.00    +0.000 A 
ATOM     17  C   UNL     1      -0.333  10.222  18.396  0.00  0.00    +0.000 A 
ATOM     18  C   UNL     1      -0.963  11.471  18.472  0.00  0.00    +0.000 A 
BRANCH  13  20
ATOM     19  C   UNL     1      -0.287  14.871  19.569  0.00  0.00    +0.000 C 
ATOM     20  O   UNL     1      -0.578  13.952  18.518  0.00  0.00    +0.000 OA
ENDBRANCH  13  20
BRANCH  18  21
ATOM     21  O   UNL     1      -2.322  11.267  18.341  0.00  0.00    +0.000 OA
ATOM     22  C   UNL     1      -2.640  10.082  17.699  0.00  0.00    +0.000 C 
ENDBRANCH  18  21
ENDBRANCH  12  16
ENDBRANCH  11  12
ENDBRANCH   7  11
ENDBRANCH   6   8
ENDBRANCH   1   6
BRANCH   1  23
ATOM     23  C   UNL     1       3.404   4.562  17.927  0.00  0.00    +0.000 C 
BRANCH  23  24
ATOM     24  C   UNL     1       4.845   4.850  17.009  0.00  0.00    +0.000 C 
ATOM     25  N   UNL     1       4.217   4.411  15.913  0.00  0.00    +0.000 NA
ATOM     26  S   UNL     1       5.465   4.732  15.259  0.00  0.00    +0.000 S 
ATOM     27  O   UNL     1       5.525   6.243  15.224  0.00  0.00    +0.000 OA
ATOM     28  O   UNL     1       6.283   3.577  15.958  0.00  0.00    +0.000 OA
ATOM     29  C   UNL     1       6.521   4.389  14.240  0.00  0.00    +0.000 A 
ATOM     30  C   UNL     1       5.503   3.525  13.333  0.00  0.00    +0.000 A 
ATOM     31  C   UNL     1       5.972   3.257  12.150  0.00  0.00    +0.000 A 
ATOM     32  C   UNL     1       6.988   4.167  12.034  0.00  0.00    +0.000 A 
ATOM     33  C   UNL     1       7.628   5.027  13.473  0.00  0.00    +0.000 A 
ATOM     34  C   UNL     1       7.542   5.258  15.156  0.00  0.00    +0.000 A 
ATOM     35  N   UNL     1       6.596   5.377  16.855  0.00  0.00    +0.000 N 
ATOM     36  H   UNL     1       6.962   5.705  17.772  0.00  0.00    +0.000 HD
ENDBRANCH  23  24
ENDBRANCH   1  23
TORSDOF 9
ENDMDL
MODEL 3
REMARK VINA RESULT:      -8.4      0.845      1.655
REMARK  Name = 
REMARK  11 active torsions:
REMARK  status: ('A' for Active; 'I' for Inactive)
REMARK    1  A    between atoms: C_1  and  O_2
REMARK    2  A    between atoms: O_2  and  C_3
REMARK    3  A    between atoms: C_6  and  C_7
REMARK    4  A    between atoms: C_7  and  C_8
REMARK    5  A    between atoms: C_8  and  N_9
REMARK    6  A    between atoms: C_10  and  C_12
REMARK    7  A    between atoms: C_12  and  C_13
REMARK    8  A    between atoms: C_13  and  C_14
REMARK    9  A    between atoms: C_14  and  C_15
REMARK   10  A    between atoms: C_32  and  O_33
REMARK   11  A    between atoms: O_33  and  C_34
REMARK                            x       y       z     vdW  Elec       q    Type
REMARK                         _______ _______ _______ _____ _____    ______ ____
ROOT
ATOM      1  C   UNL     1       2.872   4.035  19.144  0.00  0.00    +0.000 C 
ATOM      2  C   UNL     1       3.833   2.875  19.386  0.00  0.00    +0.000 C 
ATOM      3  C   UNL     1       3.372   1.853  18.355  0.00  0.00    +0.000 C 
ATOM      4  C   UNL     1       1.863   2.097  18.172  0.00  0.00    +0.000 C 
ATOM      5  C   UNL     1       1.532   3.338  18.980  0.00  0.00    +0.000 C 
ENDROOT
BRANCH   1   6
ATOM      6  C   UNL     1       2.812   5.005  20.403  0.00  0.00    +0.000 C 
BRANCH   6   8
ATOM      7  N   UNL     1       1.658   7.147  20.979  0.00  0.00    +0.000 N 
ATOM      8  C   UNL     1       2.379   6.435  20.043  0.00  0.00    +0.000 C 
ATOM      9  O   UNL     1       2.647   6.950  18.960  0.00  0.00    +0.000 OA
ATOM     10  H   UNL     1       1.403   6.759  21.874  0.00  0.00    +0.000 HD
BRANCH   7  11
ATOM     11  C   UNL     1       1.244   8.496  20.637  0.00  0.00    +0.000 C 
BRANCH  11  12
ATOM     12  C   UNL     1       0.865   9.369  21.834  0.00  0.00    +0.000 C 
BRANCH  12  16
ATOM     13  C   UNL     1      -2.068  12.478  20.900  0.00  0.00    +0.000 A 
ATOM     14  C   UNL     1      -1.487  11.664  19.893  0.00  0.00    +0.000 A 
ATOM     15  C   UNL     1      -0.636  10.582  20.201  0.00  0.00    +0.000 A 
ATOM     16  C   UNL     1      -0.219  10.375  21.512  0.00  0.00    +0.000 A 
ATOM     17  C   UNL     1      -0.799  11.173  22.501  0.00  0.00    +0.000 A 
ATOM     18  C   UNL     1      -1.714  12.200  22.235  0.00  0.00    +0.000 A 
BRANCH  13  20
ATOM     19  C   UNL     1      -4.434  13.054  20.827  0.00  0.00    +0.000 C 
ATOM     20  O   UNL     1      -3.083  13.301  20.441  0.00  0.00    +0.000 OA
ENDBRANCH  13  20
BRANCH  18  21
ATOM     21  O   UNL     1      -2.120  12.728  23.445  0.00  0.00    +0.000 OA
ATOM     22  C   UNL     1      -1.622  13.998  23.684  0.00  0.00    +0.000 C 
ENDBRANCH  18  21
ENDBRANCH  12  16
ENDBRANCH  11  12
ENDBRANCH   7  11
ENDBRANCH   6   8
ENDBRANCH   1   6
BRANCH   1  23
ATOM     23  C   UNL     1       3.272   4.713  17.825  0.00  0.00    +0.000 C 
BRANCH  23  24
ATOM     24  C   UNL     1       4.749   4.934  16.946  0.00  0.00    +0.000 C 
ATOM     25  N   UNL     1       4.138   4.500  15.838  0.00  0.00    +0.000 NA
ATOM     26  S   UNL     1       5.415   4.766  15.218  0.00  0.00    +0.000 S 
ATOM     27  O   UNL     1       5.531   6.274  15.161  0.00  0.00    +0.000 OA
ATOM     28  O   UNL     1       6.171   3.595  15.959  0.00  0.00    +0.000 OA
ATOM     29  C   UNL     1       6.488   4.370  14.237  0.00  0.00    +0.000 A 
ATOM     30  C   UNL     1       5.468   3.527  13.313  0.00  0.00    +0.000 A 
ATOM     31  C   UNL     1       5.962   3.223  12.148  0.00  0.00    +0.000 A 
ATOM     32  C   UNL     1       7.012   4.095  12.049  0.00  0.00    +0.000 A 
ATOM     33  C   UNL     1       7.640   4.955  13.494  0.00  0.00    +0.000 A 
ATOM     34  C   UNL     1       7.512   5.218  15.170  0.00  0.00    +0.000 A 
ATOM     35  N   UNL     1       6.520   5.397  16.837  0.00  0.00    +0.000 N 
ATOM     36  H   UNL     1       6.870   5.727  17.760  0.00  0.00    +0.000 HD
ENDBRANCH  23  24
ENDBRANCH   1  23
TORSDOF 9
ENDMDL
MODEL 4
REMARK VINA RESULT:      -8.4      1.015      1.861
REMARK  Name = 
REMARK  11 active torsions:
REMARK  status: ('A' for Active; 'I' for Inactive)
REMARK    1  A    between atoms: C_1  and  O_2
REMARK    2  A    between atoms: O_2  and  C_3
REMARK    3  A    between atoms: C_6  and  C_7
REMARK    4  A    between atoms: C_7  and  C_8
REMARK    5  A    between atoms: C_8  and  N_9
REMARK    6  A    between atoms: C_10  and  C_12
REMARK    7  A    between atoms: C_12  and  C_13
REMARK    8  A    between atoms: C_13  and  C_14
REMARK    9  A    between atoms: C_14  and  C_15
REMARK   10  A    between atoms: C_32  and  O_33
REMARK   11  A    between atoms: O_33  and  C_34
REMARK                            x       y       z     vdW  Elec       q    Type
REMARK                         _______ _______ _______ _____ _____    ______ ____
ROOT
ATOM      1  C   UNL     1       2.840   4.417  19.165  0.00  0.00    +0.000 C 
ATOM      2  C   UNL     1       3.235   3.202  19.997  0.00  0.00    +0.000 C 
ATOM      3  C   UNL     1       2.290   2.129  19.473  0.00  0.00    +0.000 C 
ATOM      4  C   UNL     1       1.018   2.875  19.030  0.00  0.00    +0.000 C 
ATOM      5  C   UNL     1       1.322   4.355  19.170  0.00  0.00    +0.000 C 
ENDROOT
BRANCH   1   6
ATOM      6  C   UNL     1       3.315   5.769  19.856  0.00  0.00    +0.000 C 
BRANCH   6   8
ATOM      7  N   UNL     1       1.883   7.809  20.053  0.00  0.00    +0.000 N 
ATOM      8  C   UNL     1       2.671   7.021  19.239  0.00  0.00    +0.000 C 
ATOM      9  O   UNL     1       2.829   7.329  18.061  0.00  0.00    +0.000 OA
ATOM     10  H   UNL     1       1.714   7.586  21.022  0.00  0.00    +0.000 HD
BRANCH   7  11
ATOM     11  C   UNL     1       1.269   8.989  19.470  0.00  0.00    +0.000 C 
BRANCH  11  12
ATOM     12  C   UNL     1       0.929  10.091  20.473  0.00  0.00    +0.000 C 
BRANCH  12  16
ATOM     13  C   UNL     1      -2.829  12.177  19.658  0.00  0.00    +0.000 A 
ATOM     14  C   UNL     1      -2.193  11.365  18.685  0.00  0.00    +0.000 A 
ATOM     15  C   UNL     1      -1.049  10.594  18.982  0.00  0.00    +0.000 A 
ATOM     16  C   UNL     1      -0.419  10.730  20.215  0.00  0.00    +0.000 A 
ATOM     17  C   UNL     1      -1.052  11.525  21.173  0.00  0.00    +0.000 A 
ATOM     18  C   UNL     1      -2.237  12.235  20.936  0.00  0.00    +0.000 A 
BRANCH  13  20
ATOM     19  C   UNL     1      -5.016  11.741  18.677  0.00  0.00    +0.000 C 
ATOM     20  O   UNL     1      -4.080  12.634  19.279  0.00  0.00    +0.000 OA
ENDBRANCH  13  20
BRANCH  18  21
ATOM     21  O   UNL     1      -2.602  12.853  22.116  0.00  0.00    +0.000 OA
ATOM     22  C   UNL     1      -2.436  12.049  23.230  0.00  0.00    +0.000 C 
ENDBRANCH  18  21
ENDBRANCH  12  16
ENDBRANCH  11  12
ENDBRANCH   7  11
ENDBRANCH   6   8
ENDBRANCH   1   6
BRANCH   1  23
ATOM     23  C   UNL     1       3.365   4.203  17.737  0.00  0.00    +0.000 C 
BRANCH  23  24
ATOM     24  C   UNL     1       4.813   4.613  16.877  0.00  0.00    +0.000 C 
ATOM     25  N   UNL     1       4.243   4.189  15.744  0.00  0.00    +0.000 NA
ATOM     26  S   UNL     1       5.488   4.609  15.145  0.00  0.00    +0.000 S 
ATOM     27  O   UNL     1       5.461   6.122  15.177  0.00  0.00    +0.000 OA
ATOM     28  O   UNL     1       6.352   3.472  15.818  0.00  0.00    +0.000 OA
ATOM     29  C   UNL     1       6.591   4.374  14.145  0.00  0.00    +0.000 A 
ATOM     30  C   UNL     1       5.652   3.494  13.170  0.00  0.00    +0.000 A 
ATOM     31  C   UNL     1       6.169   3.307  11.991  0.00  0.00    +0.000 A 
ATOM     32  C   UNL     1       7.133   4.278  11.947  0.00  0.00    +0.000 A 
ATOM     33  C   UNL     1       7.681   5.107  13.441  0.00  0.00    +0.000 A 
ATOM     34  C   UNL     1       7.533   5.257  15.129  0.00  0.00    +0.000 A 
ATOM     35  N   UNL     1       6.533   5.246  16.801  0.00  0.00    +0.000 N 
ATOM     36  H   UNL     1       6.853   5.552  17.742  0.00  0.00    +0.000 HD
ENDBRANCH  23  24
ENDBRANCH   1  23
TORSDOF 9
ENDMDL
MODEL 5
REMARK VINA RESULT:      -8.3      1.653      2.284
REMARK  Name = 
REMARK  11 active torsions:
REMARK  status: ('A' for Active; 'I' for Inactive)
REMARK    1  A    between atoms: C_1  and  O_2
REMARK    2  A    between atoms: O_2  and  C_3
REMARK    3  A    between atoms: C_6  and  C_7
REMARK    4  A    between atoms: C_7  and  C_8
REMARK    5  A    between atoms: C_8  and  N_9
REMARK    6  A    between atoms: C_10  and  C_12
REMARK    7  A    between atoms: C_12  and  C_13
REMARK    8  A    between atoms: C_13  and  C_14
REMARK    9  A    between atoms: C_14  and  C_15
REMARK   10  A    between atoms: C_32  and  O_33
REMARK   11  A    between atoms: O_33  and  C_34
REMARK                            x       y       z     vdW  Elec       q    Type
REMARK                         _______ _______ _______ _____ _____    ______ ____
ROOT
ATOM      1  C   UNL     1       2.831   4.306  18.985  0.00  0.00    +0.000 C 
ATOM      2  C   UNL     1       3.076   3.163  19.964  0.00  0.00    +0.000 C 
ATOM      3  C   UNL     1       2.154   2.075  19.429  0.00  0.00    +0.000 C 
ATOM      4  C   UNL     1       0.974   2.815  18.774  0.00  0.00    +0.000 C 
ATOM      5  C   UNL     1       1.321   4.292  18.815  0.00  0.00    +0.000 C 
ENDROOT
BRANCH   1   6
ATOM      6  C   UNL     1       3.278   5.702  19.604  0.00  0.00    +0.000 C 
BRANCH   6   8
ATOM      7  N   UNL     1       2.061   7.710  18.746  0.00  0.00    +0.000 N 
ATOM      8  C   UNL     1       3.148   6.871  18.614  0.00  0.00    +0.000 C 
ATOM      9  O   UNL     1       3.967   7.070  17.721  0.00  0.00    +0.000 OA
ATOM     10  H   UNL     1       1.357   7.576  19.455  0.00  0.00    +0.000 HD
BRANCH   7  11
ATOM     11  C   UNL     1       1.934   8.811  17.808  0.00  0.00    +0.000 C 
BRANCH  11  12
ATOM     12  C   UNL     1       0.583   9.527  17.845  0.00  0.00    +0.000 C 
BRANCH  12  16
ATOM     13  C   UNL     1       0.551  12.407  21.138  0.00  0.00    +0.000 A 
ATOM     14  C   UNL     1       0.498  12.815  19.781  0.00  0.00    +0.000 A 
ATOM     15  C   UNL     1       0.385  11.890  18.722  0.00  0.00    +0.000 A 
ATOM     16  C   UNL     1       0.474  10.525  18.978  0.00  0.00    +0.000 A 
ATOM     17  C   UNL     1       0.519  10.126  20.316  0.00  0.00    +0.000 A 
ATOM     18  C   UNL     1       0.545  11.021  21.394  0.00  0.00    +0.000 A 
BRANCH  13  20
ATOM     19  C   UNL     1      -0.057  14.722  21.592  0.00  0.00    +0.000 C 
ATOM     20  O   UNL     1       0.380  13.441  22.043  0.00  0.00    +0.000 OA
ENDBRANCH  13  20
BRANCH  18  21
ATOM     21  O   UNL     1       0.524  10.279  22.559  0.00  0.00    +0.000 OA
ATOM     22  C   UNL     1       1.270   9.115  22.481  0.00  0.00    +0.000 C 
ENDBRANCH  18  21
ENDBRANCH  12  16
ENDBRANCH  11  12
ENDBRANCH   7  11
ENDBRANCH   6   8
ENDBRANCH   1   6
BRANCH   1  23
ATOM     23  C   UNL     1       3.508   3.943  17.655  0.00  0.00    +0.000 C 
BRANCH  23  24
ATOM     24  C   UNL     1       4.923   4.469  16.803  0.00  0.00    +0.000 C 
ATOM     25  N   UNL     1       4.379   4.034  15.661  0.00  0.00    +0.000 NA
ATOM     26  S   UNL     1       5.592   4.551  15.070  0.00  0.00    +0.000 S 
ATOM     27  O   UNL     1       5.464   6.057  15.137  0.00  0.00    +0.000 OA
ATOM     28  O   UNL     1       6.532   3.459  15.716  0.00  0.00    +0.000 OA
ATOM     29  C   UNL     1       6.705   4.412  14.064  0.00  0.00    +0.000 A 
ATOM     30  C   UNL     1       5.825   3.495  13.070  0.00  0.00    +0.000 A 
ATOM     31  C   UNL     1       6.350   3.370  11.887  0.00  0.00    +0.000 A 
ATOM     32  C   UNL     1       7.246   4.404  11.863  0.00  0.00    +0.000 A 
ATOM     33  C   UNL     1       7.742   5.233  13.376  0.00  0.00    +0.000 A 
ATOM     34  C   UNL     1       7.589   5.334  15.067  0.00  0.00    +0.000 A 
ATOM     35  N   UNL     1       6.597   5.217  16.740  0.00  0.00    +0.000 N 
ATOM     36  H   UNL     1       6.898   5.522  17.688  0.00  0.00    +0.000 HD
ENDBRANCH  23  24
ENDBRANCH   1  23
TORSDOF 9
ENDMDL
MODEL 6
REMARK VINA RESULT:      -8.3      5.603      8.588
REMARK  Name = 
REMARK  11 active torsions:
REMARK  status: ('A' for Active; 'I' for Inactive)
REMARK    1  A    between atoms: C_1  and  O_2
REMARK    2  A    between atoms: O_2  and  C_3
REMARK    3  A    between atoms: C_6  and  C_7
REMARK    4  A    between atoms: C_7  and  C_8
REMARK    5  A    between atoms: C_8  and  N_9
REMARK    6  A    between atoms: C_10  and  C_12
REMARK    7  A    between atoms: C_12  and  C_13
REMARK    8  A    between atoms: C_13  and  C_14
REMARK    9  A    between atoms: C_14  and  C_15
REMARK   10  A    between atoms: C_32  and  O_33
REMARK   11  A    between atoms: O_33  and  C_34
REMARK                            x       y       z     vdW  Elec       q    Type
REMARK                         _______ _______ _______ _____ _____    ______ ____
ROOT
ATOM      1  C   UNL     1       6.531   4.695  16.046  0.00  0.00    +0.000 C 
ATOM      2  C   UNL     1       5.729   5.958  15.747  0.00  0.00    +0.000 C 
ATOM      3  C   UNL     1       5.166   5.664  14.363  0.00  0.00    +0.000 C 
ATOM      4  C   UNL     1       6.199   4.749  13.679  0.00  0.00    +0.000 C 
ATOM      5  C   UNL     1       7.242   4.423  14.731  0.00  0.00    +0.000 C 
ENDROOT
BRANCH   1   6
ATOM      6  C   UNL     1       7.609   4.954  17.186  0.00  0.00    +0.000 C 
BRANCH   6   8
ATOM      7  N   UNL     1       8.061   7.412  17.192  0.00  0.00    +0.000 N 
ATOM      8  C   UNL     1       7.480   6.341  17.836  0.00  0.00    +0.000 C 
ATOM      9  O   UNL     1       6.889   6.516  18.899  0.00  0.00    +0.000 OA
ATOM     10  H   UNL     1       8.568   7.313  16.326  0.00  0.00    +0.000 HD
BRANCH   7  11
ATOM     11  C   UNL     1       7.944   8.723  17.808  0.00  0.00    +0.000 C 
BRANCH  11  12
ATOM     12  C   UNL     1       8.883   8.957  18.991  0.00  0.00    +0.000 C 
BRANCH  12  16
ATOM     13  C   UNL     1       9.874  13.208  19.289  0.00  0.00    +0.000 A 
ATOM     14  C   UNL     1       9.419  12.460  20.406  0.00  0.00    +0.000 A 
ATOM     15  C   UNL     1       9.217  11.066  20.345  0.00  0.00    +0.000 A 
ATOM     16  C   UNL     1       9.315  10.401  19.126  0.00  0.00    +0.000 A 
ATOM     17  C   UNL     1       9.770  11.138  18.030  0.00  0.00    +0.000 A 
ATOM     18  C   UNL     1      10.063  12.508  18.080  0.00  0.00    +0.000 A 
BRANCH  13  20
ATOM     19  C   UNL     1       9.409  15.598  19.367  0.00  0.00    +0.000 C 
ATOM     20  O   UNL     1      10.282  14.494  19.601  0.00  0.00    +0.000 OA
ENDBRANCH  13  20
BRANCH  18  21
ATOM     21  O   UNL     1      10.542  12.883  16.841  0.00  0.00    +0.000 OA
ATOM     22  C   UNL     1      11.856  13.316  16.868  0.00  0.00    +0.000 C 
ENDBRANCH  18  21
ENDBRANCH  12  16
ENDBRANCH  11  12
ENDBRANCH   7  11
ENDBRANCH   6   8
ENDBRANCH   1   6
BRANCH   1  23
ATOM     23  C   UNL     1       5.535   3.563  16.343  0.00  0.00    +0.000 C 
BRANCH  23  24
ATOM     24  C   UNL     1       3.939   3.464  17.012  0.00  0.00    +0.000 C 
ATOM     25  N   UNL     1       4.469   3.474  18.240  0.00  0.00    +0.000 NA
ATOM     26  S   UNL     1       3.089   3.430  18.665  0.00  0.00    +0.000 S 
ATOM     27  O   UNL     1       2.527   4.801  18.357  0.00  0.00    +0.000 OA
ATOM     28  O   UNL     1       2.839   1.957  18.156  0.00  0.00    +0.000 OA
ATOM     29  C   UNL     1       2.040   2.909  19.614  0.00  0.00    +0.000 A 
ATOM     30  C   UNL     1       3.106   2.637  20.796  0.00  0.00    +0.000 A 
ATOM     31  C   UNL     1       2.546   2.424  21.951  0.00  0.00    +0.000 A 
ATOM     32  C   UNL     1       1.284   2.912  21.750  0.00  0.00    +0.000 A 
ATOM     33  C   UNL     1       0.665   3.225  20.094  0.00  0.00    +0.000 A 
ATOM     34  C   UNL     1       0.972   3.182  18.422  0.00  0.00    +0.000 A 
ATOM     35  N   UNL     1       2.116   3.343  16.853  0.00  0.00    +0.000 N 
ATOM     36  H   UNL     1       1.834   3.356  15.851  0.00  0.00    +0.000 HD
ENDBRANCH  23  24
ENDBRANCH   1  23
TORSDOF 9
ENDMDL
MODEL 7
REMARK VINA RESULT:      -8.2      1.732      2.058
REMARK  Name = 
REMARK  11 active torsions:
REMARK  status: ('A' for Active; 'I' for Inactive)
REMARK    1  A    between atoms: C_1  and  O_2
REMARK    2  A    between atoms: O_2  and  C_3
REMARK    3  A    between atoms: C_6  and  C_7
REMARK    4  A    between atoms: C_7  and  C_8
REMARK    5  A    between atoms: C_8  and  N_9
REMARK    6  A    between atoms: C_10  and  C_12
REMARK    7  A    between atoms: C_12  and  C_13
REMARK    8  A    between atoms: C_13  and  C_14
REMARK    9  A    between atoms: C_14  and  C_15
REMARK   10  A    between atoms: C_32  and  O_33
REMARK   11  A    between atoms: O_33  and  C_34
REMARK                            x       y       z     vdW  Elec       q    Type
REMARK                         _______ _______ _______ _____ _____    ______ ____
ROOT
ATOM      1  C   UNL     1       2.794   4.479  19.149  0.00  0.00    +0.000 C 
ATOM      2  C   UNL     1       2.432   3.577  20.324  0.00  0.00    +0.000 C 
ATOM      3  C   UNL     1       1.731   2.414  19.635  0.00  0.00    +0.000 C 
ATOM      4  C   UNL     1       1.073   3.010  18.377  0.00  0.00    +0.000 C 
ATOM      5  C   UNL     1       1.536   4.453  18.298  0.00  0.00    +0.000 C 
ENDROOT
BRANCH   1   6
ATOM      6  C   UNL     1       3.074   5.969  19.631  0.00  0.00    +0.000 C 
BRANCH   6   8
ATOM      7  N   UNL     1       2.148   8.203  18.996  0.00  0.00    +0.000 N 
ATOM      8  C   UNL     1       2.721   7.023  18.569  0.00  0.00    +0.000 C 
ATOM      9  O   UNL     1       2.926   6.844  17.371  0.00  0.00    +0.000 OA
ATOM     10  H   UNL     1       1.948   8.387  19.967  0.00  0.00    +0.000 HD
BRANCH   7  11
ATOM     11  C   UNL     1       1.809   9.197  17.994  0.00  0.00    +0.000 C 
BRANCH  11  12
ATOM     12  C   UNL     1       0.434   9.839  18.172  0.00  0.00    +0.000 C 
BRANCH  12  16
ATOM     13  C   UNL     1      -0.094  12.219  21.805  0.00  0.00    +0.000 A 
ATOM     14  C   UNL     1      -0.988  11.176  21.452  0.00  0.00    +0.000 A 
ATOM     15  C   UNL     1      -0.754  10.327  20.350  0.00  0.00    +0.000 A 
ATOM     16  C   UNL     1       0.298  10.592  19.479  0.00  0.00    +0.000 A 
ATOM     17  C   UNL     1       1.180  11.615  19.833  0.00  0.00    +0.000 A 
ATOM     18  C   UNL     1       1.023  12.420  20.969  0.00  0.00    +0.000 A 
BRANCH  13  20
ATOM     19  C   UNL     1      -1.334  13.759  23.229  0.00  0.00    +0.000 C 
ATOM     20  O   UNL     1      -0.328  12.761  23.058  0.00  0.00    +0.000 OA
ENDBRANCH  13  20
BRANCH  18  21
ATOM     21  O   UNL     1       2.106  13.275  21.035  0.00  0.00    +0.000 OA
ATOM     22  C   UNL     1       1.772  14.600  20.812  0.00  0.00    +0.000 C 
ENDBRANCH  18  21
ENDBRANCH  12  16
ENDBRANCH  11  12
ENDBRANCH   7  11
ENDBRANCH   6   8
ENDBRANCH   1   6
BRANCH   1  23
ATOM     23  C   UNL     1       3.953   3.819  18.386  0.00  0.00    +0.000 C 
BRANCH  23  24
ATOM     24  C   UNL     1       5.232   4.374  17.358  0.00  0.00    +0.000 C 
ATOM     25  N   UNL     1       4.549   3.936  16.295  0.00  0.00    +0.000 NA
ATOM     26  S   UNL     1       5.663   4.477  15.552  0.00  0.00    +0.000 S 
ATOM     27  O   UNL     1       5.520   5.981  15.647  0.00  0.00    +0.000 OA
ATOM     28  O   UNL     1       6.698   3.398  16.058  0.00  0.00    +0.000 OA
ATOM     29  C   UNL     1       6.635   4.364  14.405  0.00  0.00    +0.000 A 
ATOM     30  C   UNL     1       5.644   3.437  13.530  0.00  0.00    +0.000 A 
ATOM     31  C   UNL     1       6.009   3.328  12.286  0.00  0.00    +0.000 A 
ATOM     32  C   UNL     1       6.877   4.377  12.152  0.00  0.00    +0.000 A 
ATOM     33  C   UNL     1       7.556   5.207  13.592  0.00  0.00    +0.000 A 
ATOM     34  C   UNL     1       7.628   5.296  15.289  0.00  0.00    +0.000 A 
ATOM     35  N   UNL     1       6.870   5.151  17.078  0.00  0.00    +0.000 N 
ATOM     36  H   UNL     1       7.290   5.457  17.980  0.00  0.00    +0.000 HD
ENDBRANCH  23  24
ENDBRANCH   1  23
TORSDOF 9
ENDMDL
MODEL 8
REMARK VINA RESULT:      -8.1      3.202      5.910
REMARK  Name = 
REMARK  11 active torsions:
REMARK  status: ('A' for Active; 'I' for Inactive)
REMARK    1  A    between atoms: C_1  and  O_2
REMARK    2  A    between atoms: O_2  and  C_3
REMARK    3  A    between atoms: C_6  and  C_7
REMARK    4  A    between atoms: C_7  and  C_8
REMARK    5  A    between atoms: C_8  and  N_9
REMARK    6  A    between atoms: C_10  and  C_12
REMARK    7  A    between atoms: C_12  and  C_13
REMARK    8  A    between atoms: C_13  and  C_14
REMARK    9  A    between atoms: C_14  and  C_15
REMARK   10  A    between atoms: C_32  and  O_33
REMARK   11  A    between atoms: O_33  and  C_34
REMARK                            x       y       z     vdW  Elec       q    Type
REMARK                         _______ _______ _______ _____ _____    ______ ____
ROOT
ATOM      1  C   UNL     1       0.907   9.405  20.470  0.00  0.00    +0.000 C 
ATOM      2  C   UNL     1       1.185  10.228  21.724  0.00  0.00    +0.000 C 
ATOM      3  C   UNL     1       0.517   9.398  22.811  0.00  0.00    +0.000 C 
ATOM      4  C   UNL     1      -0.661   8.683  22.124  0.00  0.00    +0.000 C 
ATOM      5  C   UNL     1      -0.546   8.999  20.644  0.00  0.00    +0.000 C 
ENDROOT
BRANCH   1   6
ATOM      6  C   UNL     1       1.055  10.289  19.156  0.00  0.00    +0.000 C 
BRANCH   6   8
ATOM      7  N   UNL     1      -0.881  10.193  17.577  0.00  0.00    +0.000 N 
ATOM      8  C   UNL     1      -0.287  10.836  18.643  0.00  0.00    +0.000 C 
ATOM      9  O   UNL     1      -0.831  11.817  19.143  0.00  0.00    +0.000 OA
ATOM     10  H   UNL     1      -0.463   9.394  17.126  0.00  0.00    +0.000 HD
BRANCH   7  11
ATOM     11  C   UNL     1      -2.146  10.712  17.088  0.00  0.00    +0.000 C 
BRANCH  11  12
ATOM     12  C   UNL     1      -3.374   9.910  17.520  0.00  0.00    +0.000 C 
BRANCH  12  16
ATOM     13  C   UNL     1      -6.670  12.614  18.502  0.00  0.00    +0.000 A 
ATOM     14  C   UNL     1      -6.027  12.639  17.238  0.00  0.00    +0.000 A 
ATOM     15  C   UNL     1      -5.050  11.690  16.874  0.00  0.00    +0.000 A 
ATOM     16  C   UNL     1      -4.575  10.782  17.816  0.00  0.00    +0.000 A 
ATOM     17  C   UNL     1      -5.215  10.755  19.058  0.00  0.00    +0.000 A 
ATOM     18  C   UNL     1      -6.250  11.629  19.419  0.00  0.00    +0.000 A 
BRANCH  13  20
ATOM     19  C   UNL     1      -7.774  14.719  17.968  0.00  0.00    +0.000 C 
ATOM     20  O   UNL     1      -7.785  13.432  18.583  0.00  0.00    +0.000 OA
ENDBRANCH  13  20
BRANCH  18  21
ATOM     21  O   UNL     1      -6.679  11.275  20.682  0.00  0.00    +0.000 OA
ATOM     22  C   UNL     1      -7.718  10.360  20.672  0.00  0.00    +0.000 C 
ENDBRANCH  18  21
ENDBRANCH  12  16
ENDBRANCH  11  12
ENDBRANCH   7  11
ENDBRANCH   6   8
ENDBRANCH   1   6
BRANCH   1  23
ATOM     23  C   UNL     1       1.805   8.159  20.515  0.00  0.00    +0.000 C 
BRANCH  23  24
ATOM     24  C   UNL     1       2.542   7.123  19.337  0.00  0.00    +0.000 C 
ATOM     25  N   UNL     1       2.172   6.061  20.060  0.00  0.00    +0.000 NA
ATOM     26  S   UNL     1       2.788   5.313  18.989  0.00  0.00    +0.000 S 
ATOM     27  O   UNL     1       1.854   5.458  17.807  0.00  0.00    +0.000 OA
ATOM     28  O   UNL     1       4.259   5.765  19.338  0.00  0.00    +0.000 OA
ATOM     29  C   UNL     1       3.626   4.144  18.538  0.00  0.00    +0.000 A 
ATOM     30  C   UNL     1       3.270   3.261  19.841  0.00  0.00    +0.000 A 
ATOM     31  C   UNL     1       3.594   2.008  19.715  0.00  0.00    +0.000 A 
ATOM     32  C   UNL     1       3.747   1.889  18.360  0.00  0.00    +0.000 A 
ATOM     33  C   UNL     1       3.914   3.339  17.317  0.00  0.00    +0.000 A 
ATOM     34  C   UNL     1       3.982   5.037  17.229  0.00  0.00    +0.000 A 
ATOM     35  N   UNL     1       3.484   6.835  17.790  0.00  0.00    +0.000 N 
ATOM     36  H   UNL     1       3.700   7.737  17.319  0.00  0.00    +0.000 HD
ENDBRANCH  23  24
ENDBRANCH   1  23
TORSDOF 9
ENDMDL
MODEL 9
REMARK VINA RESULT:      -8.1      1.489      1.843
REMARK  Name = 
REMARK  11 active torsions:
REMARK  status: ('A' for Active; 'I' for Inactive)
REMARK    1  A    between atoms: C_1  and  O_2
REMARK    2  A    between atoms: O_2  and  C_3
REMARK    3  A    between atoms: C_6  and  C_7
REMARK    4  A    between atoms: C_7  and  C_8
REMARK    5  A    between atoms: C_8  and  N_9
REMARK    6  A    between atoms: C_10  and  C_12
REMARK    7  A    between atoms: C_12  and  C_13
REMARK    8  A    between atoms: C_13  and  C_14
REMARK    9  A    between atoms: C_14  and  C_15
REMARK   10  A    between atoms: C_32  and  O_33
REMARK   11  A    between atoms: O_33  and  C_34
REMARK                            x       y       z     vdW  Elec       q    Type
REMARK                         _______ _______ _______ _____ _____    ______ ____
ROOT
ATOM      1  C   UNL     1       3.104   3.796  19.109  0.00  0.00    +0.000 C 
ATOM      2  C   UNL     1       4.036   2.592  19.205  0.00  0.00    +0.000 C 
ATOM      3  C   UNL     1       3.477   1.664  18.135  0.00  0.00    +0.000 C 
ATOM      4  C   UNL     1       1.970   1.968  18.066  0.00  0.00    +0.000 C 
ATOM      5  C   UNL     1       1.732   3.156  18.981  0.00  0.00    +0.000 C 
ENDROOT
BRANCH   1   6
ATOM      6  C   UNL     1       3.155   4.672  20.436  0.00  0.00    +0.000 C 
BRANCH   6   8
ATOM      7  N   UNL     1       2.413   7.040  20.138  0.00  0.00    +0.000 N 
ATOM      8  C   UNL     1       2.064   5.753  20.488  0.00  0.00    +0.000 C 
ATOM      9  O   UNL     1       0.911   5.507  20.833  0.00  0.00    +0.000 OA
ATOM     10  H   UNL     1       3.351   7.291  19.863  0.00  0.00    +0.000 HD
BRANCH   7  11
ATOM     11  C   UNL     1       1.384   8.064  20.192  0.00  0.00    +0.000 C 
BRANCH  11  12
ATOM     12  C   UNL     1       1.493   9.134  19.105  0.00  0.00    +0.000 C 
BRANCH  12  16
ATOM     13  C   UNL     1      -0.833  12.786  19.733  0.00  0.00    +0.000 A 
ATOM     14  C   UNL     1      -1.446  11.511  19.634  0.00  0.00    +0.000 A 
ATOM     15  C   UNL     1      -0.694  10.320  19.555  0.00  0.00    +0.000 A 
ATOM     16  C   UNL     1       0.689  10.378  19.419  0.00  0.00    +0.000 A 
ATOM     17  C   UNL     1       1.290  11.635  19.525  0.00  0.00    +0.000 A 
ATOM     18  C   UNL     1       0.575  12.828  19.691  0.00  0.00    +0.000 A 
BRANCH  13  20
ATOM     19  C   UNL     1      -2.710  13.579  21.069  0.00  0.00    +0.000 C 
ATOM     20  O   UNL     1      -1.705  13.804  20.081  0.00  0.00    +0.000 OA
ENDBRANCH  13  20
BRANCH  18  21
ATOM     21  O   UNL     1       1.490  13.854  19.818  0.00  0.00    +0.000 OA
ATOM     22  C   UNL     1       1.899  14.379  18.604  0.00  0.00    +0.000 C 
ENDBRANCH  18  21
ENDBRANCH  12  16
ENDBRANCH  11  12
ENDBRANCH   7  11
ENDBRANCH   6   8
ENDBRANCH   1   6
BRANCH   1  23
ATOM     23  C   UNL     1       3.447   4.557  17.819  0.00  0.00    +0.000 C 
BRANCH  23  24
ATOM     24  C   UNL     1       4.889   4.856  16.906  0.00  0.00    +0.000 C 
ATOM     25  N   UNL     1       4.271   4.405  15.809  0.00  0.00    +0.000 NA
ATOM     26  S   UNL     1       5.519   4.737  15.160  0.00  0.00    +0.000 S 
ATOM     27  O   UNL     1       5.562   6.249  15.117  0.00  0.00    +0.000 OA
ATOM     28  O   UNL     1       6.346   3.595  15.869  0.00  0.00    +0.000 OA
ATOM     29  C   UNL     1       6.583   4.401  14.148  0.00  0.00    +0.000 A 
ATOM     30  C   UNL     1       5.580   3.520  13.241  0.00  0.00    +0.000 A 
ATOM     31  C   UNL     1       6.057   3.252  12.061  0.00  0.00    +0.000 A 
ATOM     32  C   UNL     1       7.063   4.173  11.945  0.00  0.00    +0.000 A 
ATOM     33  C   UNL     1       7.687   5.047  13.383  0.00  0.00    +0.000 A 
ATOM     34  C   UNL     1       7.589   5.287  15.064  0.00  0.00    +0.000 A 
ATOM     35  N   UNL     1       6.634   5.403  16.758  0.00  0.00    +0.000 N 
ATOM     36  H   UNL     1       6.992   5.740  17.675  0.00  0.00    +0.000 HD
ENDBRANCH  23  24
ENDBRANCH   1  23
TORSDOF 9
ENDMDL
