MODEL 1
REMARK VINA RESULT:      -7.3      0.000      0.000
REMARK  Name = 
REMARK  2 active torsions:
REMARK  status: ('A' for Active; 'I' for Inactive)
REMARK    1  A    between atoms: C_2  and  C_11
REMARK    2  A    between atoms: N_3  and  C_4
REMARK                            x       y       z     vdW  Elec       q    Type
REMARK                         _______ _______ _______ _____ _____    ______ ____
ROOT
ATOM      1  O   UNL     1       5.702   4.128  18.817  0.00  0.00    +0.000 OA
ATOM      2  C   UNL     1       5.099   5.014  18.222  0.00  0.00    +0.000 C 
ATOM      3  N   UNL     1       3.730   5.237  18.274  0.00  0.00    +0.000 N 
ATOM      4  H   UNL     1       3.363   5.880  17.578  0.00  0.00    +0.000 HD
ENDROOT
BRANCH   3   5
ATOM      5  C   UNL     1       2.801   4.531  19.070  0.00  0.00    +0.000 A 
ATOM      6  C   UNL     1       2.722   4.669  20.461  0.00  0.00    +0.000 A 
ATOM      7  C   UNL     1       1.807   3.918  21.207  0.00  0.00    +0.000 A 
ATOM      8  C   UNL     1       0.959   3.023  20.565  0.00  0.00    +0.000 A 
ATOM      9  C   UNL     1       1.019   2.905  19.183  0.00  0.00    +0.000 A 
ATOM     10  F   UNL     1       0.203   2.045  18.562  0.00  0.00    +0.000 F 
ATOM     11  C   UNL     1       1.921   3.656  18.430  0.00  0.00    +0.000 A 
ENDBRANCH   3   5
BRANCH   2  12
ATOM     12  C   UNL     1       5.828   6.030  17.318  0.00  0.00    +0.000 C 
ATOM     13  C   UNL     1       7.346   5.746  17.250  0.00  0.00    +0.000 C 
ATOM     14  N   UNL     1       7.698   4.601  16.387  0.00  0.00    +0.000 NA
ATOM     15  C   UNL     1       7.082   4.803  15.069  0.00  0.00    +0.000 C 
ATOM     16  C   UNL     1       5.570   5.059  15.157  0.00  0.00    +0.000 C 
ATOM     17  O   UNL     1       5.244   6.164  16.015  0.00  0.00    +0.000 OA
ATOM     18  H   UNL     1       7.308   3.756  16.818  0.00  0.00    +0.000 HD
ENDBRANCH   2  12
TORSDOF 2
ENDMDL
MODEL 2
REMARK VINA RESULT:      -7.1      1.839      2.709
REMARK  Name = 
REMARK  2 active torsions:
REMARK  status: ('A' for Active; 'I' for Inactive)
REMARK    1  A    between atoms: C_2  and  C_11
REMARK    2  A    between atoms: N_3  and  C_4
REMARK                            x       y       z     vdW  Elec       q    Type
REMARK                         _______ _______ _______ _____ _____    ______ ____
ROOT
ATOM      1  O   UNL     1       4.453   5.703  18.012  0.00  0.00    +0.000 OA
ATOM      2  C   UNL     1       5.129   4.679  18.020  0.00  0.00    +0.000 C 
ATOM      3  N   UNL     1       4.704   3.432  18.457  0.00  0.00    +0.000 N 
ATOM      4  H   UNL     1       5.435   2.739  18.581  0.00  0.00    +0.000 HD
ENDROOT
BRANCH   3   5
ATOM      5  C   UNL     1       3.405   3.105  18.904  0.00  0.00    +0.000 A 
ATOM      6  C   UNL     1       2.362   2.751  18.040  0.00  0.00    +0.000 A 
ATOM      7  C   UNL     1       1.083   2.471  18.533  0.00  0.00    +0.000 A 
ATOM      8  C   UNL     1       0.837   2.539  19.899  0.00  0.00    +0.000 A 
ATOM      9  C   UNL     1       1.878   2.865  20.760  0.00  0.00    +0.000 A 
ATOM     10  F   UNL     1       1.644   2.931  22.076  0.00  0.00    +0.000 F 
ATOM     11  C   UNL     1       3.158   3.136  20.279  0.00  0.00    +0.000 A 
ENDBRANCH   3   5
BRANCH   2  12
ATOM     12  C   UNL     1       6.585   4.662  17.513  0.00  0.00    +0.000 C 
ATOM     13  C   UNL     1       6.851   5.802  16.503  0.00  0.00    +0.000 C 
ATOM     14  N   UNL     1       6.999   7.130  17.131  0.00  0.00    +0.000 NA
ATOM     15  C   UNL     1       8.016   7.036  18.186  0.00  0.00    +0.000 C 
ATOM     16  C   UNL     1       7.720   5.914  19.193  0.00  0.00    +0.000 C 
ATOM     17  O   UNL     1       7.561   4.633  18.563  0.00  0.00    +0.000 OA
ATOM     18  H   UNL     1       6.095   7.377  17.550  0.00  0.00    +0.000 HD
ENDBRANCH   2  12
TORSDOF 2
ENDMDL
MODEL 3
REMARK VINA RESULT:      -7.1      1.473      1.946
REMARK  Name = 
REMARK  2 active torsions:
REMARK  status: ('A' for Active; 'I' for Inactive)
REMARK    1  A    between atoms: C_2  and  C_11
REMARK    2  A    between atoms: N_3  and  C_4
REMARK                            x       y       z     vdW  Elec       q    Type
REMARK                         _______ _______ _______ _____ _____    ______ ____
ROOT
ATOM      1  O   UNL     1       5.830   3.665  19.166  0.00  0.00    +0.000 OA
ATOM      2  C   UNL     1       5.501   4.291  18.163  0.00  0.00    +0.000 C 
ATOM      3  N   UNL     1       4.208   4.675  17.838  0.00  0.00    +0.000 N 
ATOM      4  H   UNL     1       4.076   5.011  16.888  0.00  0.00    +0.000 HD
ENDROOT
BRANCH   3   5
ATOM      5  C   UNL     1       3.056   4.475  18.629  0.00  0.00    +0.000 A 
ATOM      6  C   UNL     1       2.756   5.249  19.757  0.00  0.00    +0.000 A 
ATOM      7  C   UNL     1       1.619   4.985  20.528  0.00  0.00    +0.000 A 
ATOM      8  C   UNL     1       0.767   3.945  20.174  0.00  0.00    +0.000 A 
ATOM      9  C   UNL     1       1.050   3.194  19.040  0.00  0.00    +0.000 A 
ATOM     10  F   UNL     1       0.231   2.192  18.696  0.00  0.00    +0.000 F 
ATOM     11  C   UNL     1       2.175   3.455  18.260  0.00  0.00    +0.000 A 
ENDBRANCH   3   5
BRANCH   2  12
ATOM     12  C   UNL     1       6.535   4.749  17.114  0.00  0.00    +0.000 C 
ATOM     13  C   UNL     1       5.960   5.845  16.187  0.00  0.00    +0.000 C 
ATOM     14  N   UNL     1       5.886   7.178  16.818  0.00  0.00    +0.000 NA
ATOM     15  C   UNL     1       7.209   7.509  17.362  0.00  0.00    +0.000 C 
ATOM     16  C   UNL     1       7.751   6.420  18.300  0.00  0.00    +0.000 C 
ATOM     17  O   UNL     1       7.799   5.126  17.678  0.00  0.00    +0.000 OA
ATOM     18  H   UNL     1       5.207   7.121  17.584  0.00  0.00    +0.000 HD
ENDBRANCH   2  12
TORSDOF 2
ENDMDL
MODEL 4
REMARK VINA RESULT:      -7.0      1.335      2.134
REMARK  Name = 
REMARK  2 active torsions:
REMARK  status: ('A' for Active; 'I' for Inactive)
REMARK    1  A    between atoms: C_2  and  C_11
REMARK    2  A    between atoms: N_3  and  C_4
REMARK                            x       y       z     vdW  Elec       q    Type
REMARK                         _______ _______ _______ _____ _____    ______ ____
ROOT
ATOM      1  O   UNL     1       4.250   5.704  17.294  0.00  0.00    +0.000 OA
ATOM      2  C   UNL     1       4.967   4.854  17.810  0.00  0.00    +0.000 C 
ATOM      3  N   UNL     1       4.566   3.927  18.762  0.00  0.00    +0.000 N 
ATOM      4  H   UNL     1       5.316   3.426  19.230  0.00  0.00    +0.000 HD
ENDROOT
BRANCH   3   5
ATOM      5  C   UNL     1       3.254   3.754  19.254  0.00  0.00    +0.000 A 
ATOM      6  C   UNL     1       2.754   4.443  20.366  0.00  0.00    +0.000 A 
ATOM      7  C   UNL     1       1.457   4.207  20.834  0.00  0.00    +0.000 A 
ATOM      8  C   UNL     1       0.645   3.280  20.191  0.00  0.00    +0.000 A 
ATOM      9  C   UNL     1       1.132   2.615  19.073  0.00  0.00    +0.000 A 
ATOM     10  F   UNL     1       0.352   1.722  18.450  0.00  0.00    +0.000 F 
ATOM     11  C   UNL     1       2.419   2.850  18.592  0.00  0.00    +0.000 A 
ENDBRANCH   3   5
BRANCH   2  12
ATOM     12  C   UNL     1       6.456   4.707  17.435  0.00  0.00    +0.000 C 
ATOM     13  C   UNL     1       6.914   5.827  16.471  0.00  0.00    +0.000 C 
ATOM     14  N   UNL     1       7.124   7.130  17.132  0.00  0.00    +0.000 NA
ATOM     15  C   UNL     1       8.029   6.934  18.271  0.00  0.00    +0.000 C 
ATOM     16  C   UNL     1       7.543   5.835  19.229  0.00  0.00    +0.000 C 
ATOM     17  O   UNL     1       7.326   4.580  18.567  0.00  0.00    +0.000 OA
ATOM     18  H   UNL     1       6.213   7.455  17.473  0.00  0.00    +0.000 HD
ENDBRANCH   2  12
TORSDOF 2
ENDMDL
MODEL 5
REMARK VINA RESULT:      -7.0      1.233      1.233
REMARK  Name = 
REMARK  2 active torsions:
REMARK  status: ('A' for Active; 'I' for Inactive)
REMARK    1  A    between atoms: C_2  and  C_11
REMARK    2  A    between atoms: N_3  and  C_4
REMARK                            x       y       z     vdW  Elec       q    Type
REMARK                         _______ _______ _______ _____ _____    ______ ____
ROOT
ATOM      1  O   UNL     1       3.530   7.155  17.530  0.00  0.00    +0.000 OA
ATOM      2  C   UNL     1       4.407   6.305  17.642  0.00  0.00    +0.000 C 
ATOM      3  N   UNL     1       4.294   5.113  18.344  0.00  0.00    +0.000 N 
ATOM      4  H   UNL     1       5.165   4.614  18.504  0.00  0.00    +0.000 HD
ENDROOT
BRANCH   3   5
ATOM      5  C   UNL     1       3.135   4.636  18.993  0.00  0.00    +0.000 A 
ATOM      6  C   UNL     1       2.704   5.110  20.239  0.00  0.00    +0.000 A 
ATOM      7  C   UNL     1       1.567   4.577  20.856  0.00  0.00    +0.000 A 
ATOM      8  C   UNL     1       0.847   3.567  20.229  0.00  0.00    +0.000 A 
ATOM      9  C   UNL     1       1.259   3.115  18.982  0.00  0.00    +0.000 A 
ATOM     10  F   UNL     1       0.567   2.143  18.375  0.00  0.00    +0.000 F 
ATOM     11  C   UNL     1       2.385   3.646  18.354  0.00  0.00    +0.000 A 
ENDBRANCH   3   5
BRANCH   2  12
ATOM     12  C   UNL     1       5.790   6.470  16.978  0.00  0.00    +0.000 C 
ATOM     13  C   UNL     1       6.797   5.412  17.485  0.00  0.00    +0.000 C 
ATOM     14  N   UNL     1       6.588   4.069  16.908  0.00  0.00    +0.000 NA
ATOM     15  C   UNL     1       6.556   4.189  15.446  0.00  0.00    +0.000 C 
ATOM     16  C   UNL     1       5.532   5.227  14.961  0.00  0.00    +0.000 C 
ATOM     17  O   UNL     1       5.738   6.523  15.545  0.00  0.00    +0.000 OA
ATOM     18  H   UNL     1       5.681   3.726  17.242  0.00  0.00    +0.000 HD
ENDBRANCH   2  12
TORSDOF 2
ENDMDL
MODEL 6
REMARK VINA RESULT:      -7.0      1.177      1.675
REMARK  Name = 
REMARK  2 active torsions:
REMARK  status: ('A' for Active; 'I' for Inactive)
REMARK    1  A    between atoms: C_2  and  C_11
REMARK    2  A    between atoms: N_3  and  C_4
REMARK                            x       y       z     vdW  Elec       q    Type
REMARK                         _______ _______ _______ _____ _____    ______ ____
ROOT
ATOM      1  O   UNL     1       5.699   4.072  18.570  0.00  0.00    +0.000 OA
ATOM      2  C   UNL     1       5.042   4.906  17.956  0.00  0.00    +0.000 C 
ATOM      3  N   UNL     1       3.660   5.029  17.985  0.00  0.00    +0.000 N 
ATOM      4  H   UNL     1       3.259   5.636  17.276  0.00  0.00    +0.000 HD
ENDROOT
BRANCH   3   5
ATOM      5  C   UNL     1       2.773   4.266  18.775  0.00  0.00    +0.000 A 
ATOM      6  C   UNL     1       1.754   3.473  18.234  0.00  0.00    +0.000 A 
ATOM      7  C   UNL     1       0.878   2.763  19.063  0.00  0.00    +0.000 A 
ATOM      8  C   UNL     1       1.018   2.838  20.444  0.00  0.00    +0.000 A 
ATOM      9  C   UNL     1       2.046   3.604  20.980  0.00  0.00    +0.000 A 
ATOM     10  F   UNL     1       2.183   3.677  22.310  0.00  0.00    +0.000 F 
ATOM     11  C   UNL     1       2.929   4.307  20.162  0.00  0.00    +0.000 A 
ENDBRANCH   3   5
BRANCH   2  12
ATOM     12  C   UNL     1       5.710   5.963  17.052  0.00  0.00    +0.000 C 
ATOM     13  C   UNL     1       7.247   5.802  17.026  0.00  0.00    +0.000 C 
ATOM     14  N   UNL     1       7.713   4.676  16.193  0.00  0.00    +0.000 NA
ATOM     15  C   UNL     1       7.117   4.807  14.857  0.00  0.00    +0.000 C 
ATOM     16  C   UNL     1       5.588   4.940  14.903  0.00  0.00    +0.000 C 
ATOM     17  O   UNL     1       5.151   6.028  15.733  0.00  0.00    +0.000 OA
ATOM     18  H   UNL     1       7.381   3.809  16.630  0.00  0.00    +0.000 HD
ENDBRANCH   2  12
TORSDOF 2
ENDMDL
MODEL 7
REMARK VINA RESULT:      -6.9      1.546      1.948
REMARK  Name = 
REMARK  2 active torsions:
REMARK  status: ('A' for Active; 'I' for Inactive)
REMARK    1  A    between atoms: C_2  and  C_11
REMARK    2  A    between atoms: N_3  and  C_4
REMARK                            x       y       z     vdW  Elec       q    Type
REMARK                         _______ _______ _______ _____ _____    ______ ____
ROOT
ATOM      1  O   UNL     1       3.426   6.851  17.799  0.00  0.00    +0.000 OA
ATOM      2  C   UNL     1       4.368   6.067  17.848  0.00  0.00    +0.000 C 
ATOM      3  N   UNL     1       4.322   4.778  18.360  0.00  0.00    +0.000 N 
ATOM      4  H   UNL     1       5.224   4.332  18.506  0.00  0.00    +0.000 HD
ENDROOT
BRANCH   3   5
ATOM      5  C   UNL     1       3.175   4.118  18.851  0.00  0.00    +0.000 A 
ATOM      6  C   UNL     1       2.208   3.539  18.020  0.00  0.00    +0.000 A 
ATOM      7  C   UNL     1       1.071   2.927  18.559  0.00  0.00    +0.000 A 
ATOM      8  C   UNL     1       0.892   2.887  19.936  0.00  0.00    +0.000 A 
ATOM      9  C   UNL     1       1.864   3.438  20.762  0.00  0.00    +0.000 A 
ATOM     10  F   UNL     1       1.695   3.400  22.089  0.00  0.00    +0.000 F 
ATOM     11  C   UNL     1       3.005   4.041  20.236  0.00  0.00    +0.000 A 
ENDBRANCH   3   5
BRANCH   2  12
ATOM     12  C   UNL     1       5.766   6.440  17.312  0.00  0.00    +0.000 C 
ATOM     13  C   UNL     1       6.832   5.401  17.728  0.00  0.00    +0.000 C 
ATOM     14  N   UNL     1       6.777   4.149  16.948  0.00  0.00    +0.000 NA
ATOM     15  C   UNL     1       6.818   4.487  15.520  0.00  0.00    +0.000 C 
ATOM     16  C   UNL     1       5.735   5.501  15.122  0.00  0.00    +0.000 C 
ATOM     17  O   UNL     1       5.790   6.706  15.903  0.00  0.00    +0.000 OA
ATOM     18  H   UNL     1       5.886   3.688  17.163  0.00  0.00    +0.000 HD
ENDBRANCH   2  12
TORSDOF 2
ENDMDL
MODEL 8
REMARK VINA RESULT:      -6.8      1.830      2.502
REMARK  Name = 
REMARK  2 active torsions:
REMARK  status: ('A' for Active; 'I' for Inactive)
REMARK    1  A    between atoms: C_2  and  C_11
REMARK    2  A    between atoms: N_3  and  C_4
REMARK                            x       y       z     vdW  Elec       q    Type
REMARK                         _______ _______ _______ _____ _____    ______ ____
ROOT
ATOM      1  O   UNL     1       5.865   3.883  19.313  0.00  0.00    +0.000 OA
ATOM      2  C   UNL     1       5.579   4.146  18.150  0.00  0.00    +0.000 C 
ATOM      3  N   UNL     1       4.311   4.061  17.591  0.00  0.00    +0.000 N 
ATOM      4  H   UNL     1       4.275   4.122  16.577  0.00  0.00    +0.000 HD
ENDROOT
BRANCH   3   5
ATOM      5  C   UNL     1       3.121   3.725  18.272  0.00  0.00    +0.000 A 
ATOM      6  C   UNL     1       2.412   2.540  18.038  0.00  0.00    +0.000 A 
ATOM      7  C   UNL     1       1.218   2.272  18.715  0.00  0.00    +0.000 A 
ATOM      8  C   UNL     1       0.723   3.187  19.637  0.00  0.00    +0.000 A 
ATOM      9  C   UNL     1       1.440   4.350  19.888  0.00  0.00    +0.000 A 
ATOM     10  F   UNL     1       0.966   5.233  20.777  0.00  0.00    +0.000 F 
ATOM     11  C   UNL     1       2.636   4.622  19.226  0.00  0.00    +0.000 A 
ENDBRANCH   3   5
BRANCH   2  12
ATOM     12  C   UNL     1       6.639   4.630  17.140  0.00  0.00    +0.000 C 
ATOM     13  C   UNL     1       6.051   5.657  16.145  0.00  0.00    +0.000 C 
ATOM     14  N   UNL     1       5.865   7.004  16.721  0.00  0.00    +0.000 NA
ATOM     15  C   UNL     1       7.135   7.433  17.321  0.00  0.00    +0.000 C 
ATOM     16  C   UNL     1       7.689   6.411  18.325  0.00  0.00    +0.000 C 
ATOM     17  O   UNL     1       7.846   5.103  17.754  0.00  0.00    +0.000 OA
ATOM     18  H   UNL     1       5.150   6.932  17.453  0.00  0.00    +0.000 HD
ENDBRANCH   2  12
TORSDOF 2
ENDMDL
MODEL 9
REMARK VINA RESULT:      -6.7      3.218      6.176
REMARK  Name = 
REMARK  2 active torsions:
REMARK  status: ('A' for Active; 'I' for Inactive)
REMARK    1  A    between atoms: C_2  and  C_11
REMARK    2  A    between atoms: N_3  and  C_4
REMARK                            x       y       z     vdW  Elec       q    Type
REMARK                         _______ _______ _______ _____ _____    ______ ____
ROOT
ATOM      1  O   UNL     1       3.249   5.253  20.099  0.00  0.00    +0.000 OA
ATOM      2  C   UNL     1       3.725   4.191  19.714  0.00  0.00    +0.000 C 
ATOM      3  N   UNL     1       4.809   4.053  18.858  0.00  0.00    +0.000 N 
ATOM      4  H   UNL     1       4.955   3.120  18.483  0.00  0.00    +0.000 HD
ENDROOT
BRANCH   3   5
ATOM      5  C   UNL     1       5.594   5.102  18.333  0.00  0.00    +0.000 A 
ATOM      6  C   UNL     1       5.264   5.796  17.162  0.00  0.00    +0.000 A 
ATOM      7  C   UNL     1       6.096   6.804  16.666  0.00  0.00    +0.000 A 
ATOM      8  C   UNL     1       7.267   7.132  17.340  0.00  0.00    +0.000 A 
ATOM      9  C   UNL     1       7.581   6.462  18.516  0.00  0.00    +0.000 A 
ATOM     10  F   UNL     1       8.708   6.775  19.168  0.00  0.00    +0.000 F 
ATOM     11  C   UNL     1       6.754   5.462  19.024  0.00  0.00    +0.000 A 
ENDBRANCH   3   5
BRANCH   2  12
ATOM     12  C   UNL     1       3.154   2.831  20.168  0.00  0.00    +0.000 C 
ATOM     13  C   UNL     1       1.877   3.005  21.022  0.00  0.00    +0.000 C 
ATOM     14  N   UNL     1       0.676   3.339  20.232  0.00  0.00    +0.000 NA
ATOM     15  C   UNL     1       0.531   2.345  19.161  0.00  0.00    +0.000 C 
ATOM     16  C   UNL     1       1.801   2.206  18.309  0.00  0.00    +0.000 C 
ATOM     17  O   UNL     1       2.964   1.899  19.095  0.00  0.00    +0.000 OA
ATOM     18  H   UNL     1       0.824   4.266  19.818  0.00  0.00    +0.000 HD
ENDBRANCH   2  12
TORSDOF 2
ENDMDL
