MODEL 1
REMARK VINA RESULT:      -8.4      0.000      0.000
REMARK  Name = 
REMARK  6 active torsions:
REMARK  status: ('A' for Active; 'I' for Inactive)
REMARK    1  A    between atoms: C_1  and  C_2
REMARK    2  A    between atoms: C_4  and  C_5
REMARK    3  A    between atoms: C_11  and  N_12
REMARK    4  A    between atoms: N_15  and  C_16
REMARK    5  A    between atoms: C_21  and  C_22
REMARK    6  A    between atoms: C_27  and  C_28
REMARK                            x       y       z     vdW  Elec       q    Type
REMARK                         _______ _______ _______ _____ _____    ______ ____
ROOT
ATOM      1  C   UNL     1       1.970   5.731  20.266  0.00  0.00    +0.000 C 
ATOM      2  O   UNL     1       1.471   5.032  21.150  0.00  0.00    +0.000 OA
ATOM      3  N   UNL     1       2.773   5.196  19.261  0.00  0.00    +0.000 N 
ATOM      4  C   UNL     1       2.848   3.756  19.118  0.00  0.00    +0.000 C 
ATOM      5  C   UNL     1       4.168   3.269  19.679  0.00  0.00    +0.000 C 
ATOM      6  C   UNL     1       5.328   3.937  18.947  0.00  0.00    +0.000 C 
ATOM      7  C   UNL     1       5.235   5.479  18.839  0.00  0.00    +0.000 C 
ATOM      8  C   UNL     1       3.783   5.946  18.517  0.00  0.00    +0.000 C 
ENDROOT
BRANCH   1  12
ATOM      9  C   UNL     1       0.128   9.784  22.459  0.00  0.00    +0.000 C 
ATOM     10  C   UNL     1       0.794   9.082  21.315  0.00  0.00    +0.000 A 
ATOM     11  C   UNL     1       1.110   7.745  21.400  0.00  0.00    +0.000 A 
ATOM     12  C   UNL     1       1.667   7.192  20.270  0.00  0.00    +0.000 A 
ATOM     13  N   UNL     1       1.891   7.876  19.126  0.00  0.00    +0.000 NA
ATOM     14  C   UNL     1       1.574   9.176  19.147  0.00  0.00    +0.000 A 
ATOM     15  C   UNL     1       1.833   9.973  17.908  0.00  0.00    +0.000 C 
ATOM     16  N   UNL     1       1.030   9.810  20.202  0.00  0.00    +0.000 NA
ENDBRANCH   1  12
BRANCH   7  17
ATOM     17  N   UNL     1       6.269   6.151  18.002  0.00  0.00    +0.000 NA
ATOM     18  C   UNL     1       7.385   5.292  17.556  0.00  0.00    +0.000 C 
ATOM     19  C   UNL     1       7.107   4.347  16.353  0.00  0.00    +0.000 C 
ATOM     20  N   UNL     1       6.313   4.995  15.283  0.00  0.00    +0.000 N 
ATOM     21  C   UNL     1       5.280   5.952  15.681  0.00  0.00    +0.000 C 
ATOM     22  C   UNL     1       5.783   6.869  16.808  0.00  0.00    +0.000 C 
BRANCH  20  23
ATOM     23  C   UNL     1       6.424   4.559  13.971  0.00  0.00    +0.000 A 
ATOM     24  C   UNL     1       5.440   3.656  13.499  0.00  0.00    +0.000 A 
ATOM     25  C   UNL     1       5.456   3.108  12.216  0.00  0.00    +0.000 A 
ATOM     26  C   UNL     1       6.492   3.427  11.357  0.00  0.00    +0.000 A 
ATOM     27  C   UNL     1       7.488   4.299  11.780  0.00  0.00    +0.000 A 
ATOM     28  C   UNL     1       7.469   4.883  13.068  0.00  0.00    +0.000 A 
ATOM     29  C   UNL     1       8.569   5.882  13.343  0.00  0.00    +0.000 C 
ENDBRANCH  20  23
ENDBRANCH   7  17
TORSDOF 3
ENDMDL
MODEL 2
REMARK VINA RESULT:      -8.3      2.557      8.434
REMARK  Name = 
REMARK  6 active torsions:
REMARK  status: ('A' for Active; 'I' for Inactive)
REMARK    1  A    between atoms: C_1  and  C_2
REMARK    2  A    between atoms: C_4  and  C_5
REMARK    3  A    between atoms: C_11  and  N_12
REMARK    4  A    between atoms: N_15  and  C_16
REMARK    5  A    between atoms: C_21  and  C_22
REMARK    6  A    between atoms: C_27  and  C_28
REMARK                            x       y       z     vdW  Elec       q    Type
REMARK                         _______ _______ _______ _____ _____    ______ ____
ROOT
ATOM      1  C   UNL     1       3.873   3.884  18.136  0.00  0.00    +0.000 C 
ATOM      2  O   UNL     1       3.392   2.790  17.836  0.00  0.00    +0.000 OA
ATOM      3  N   UNL     1       3.526   4.553  19.307  0.00  0.00    +0.000 N 
ATOM      4  C   UNL     1       2.747   3.852  20.309  0.00  0.00    +0.000 C 
ATOM      5  C   UNL     1       1.313   4.336  20.253  0.00  0.00    +0.000 C 
ATOM      6  C   UNL     1       1.257   5.841  20.495  0.00  0.00    +0.000 C 
ATOM      7  C   UNL     1       2.227   6.682  19.628  0.00  0.00    +0.000 C 
ATOM      8  C   UNL     1       3.623   5.999  19.500  0.00  0.00    +0.000 C 
ENDROOT
BRANCH   1  12
ATOM      9  C   UNL     1       6.258   4.012  13.786  0.00  0.00    +0.000 C 
ATOM     10  C   UNL     1       5.995   4.524  15.170  0.00  0.00    +0.000 A 
ATOM     11  C   UNL     1       5.000   3.973  15.944  0.00  0.00    +0.000 A 
ATOM     12  C   UNL     1       4.885   4.483  17.217  0.00  0.00    +0.000 A 
ATOM     13  N   UNL     1       5.686   5.449  17.719  0.00  0.00    +0.000 NA
ATOM     14  C   UNL     1       6.609   5.940  16.884  0.00  0.00    +0.000 A 
ATOM     15  C   UNL     1       7.497   7.030  17.393  0.00  0.00    +0.000 C 
ATOM     16  N   UNL     1       6.798   5.513  15.621  0.00  0.00    +0.000 NA
ENDBRANCH   1  12
BRANCH   7  17
ATOM     17  N   UNL     1       2.310   8.136  19.942  0.00  0.00    +0.000 NA
ATOM     18  C   UNL     1       2.251   9.044  18.777  0.00  0.00    +0.000 C 
ATOM     19  C   UNL     1       0.847   9.315  18.167  0.00  0.00    +0.000 C 
ATOM     20  N   UNL     1      -0.202   9.503  19.195  0.00  0.00    +0.000 N 
ATOM     21  C   UNL     1      -0.108   8.712  20.423  0.00  0.00    +0.000 C 
ATOM     22  C   UNL     1       1.342   8.652  20.930  0.00  0.00    +0.000 C 
BRANCH  20  23
ATOM     23  C   UNL     1      -1.328  10.261  18.912  0.00  0.00    +0.000 A 
ATOM     24  C   UNL     1      -2.194   9.787  17.895  0.00  0.00    +0.000 A 
ATOM     25  C   UNL     1      -3.337  10.472  17.482  0.00  0.00    +0.000 A 
ATOM     26  C   UNL     1      -3.642  11.691  18.061  0.00  0.00    +0.000 A 
ATOM     27  C   UNL     1      -2.815  12.203  19.054  0.00  0.00    +0.000 A 
ATOM     28  C   UNL     1      -1.668  11.506  19.501  0.00  0.00    +0.000 A 
ATOM     29  C   UNL     1      -0.927  12.149  20.651  0.00  0.00    +0.000 C 
ENDBRANCH  20  23
ENDBRANCH   7  17
TORSDOF 3
ENDMDL
MODEL 3
REMARK VINA RESULT:      -8.2      5.492      9.812
REMARK  Name = 
REMARK  6 active torsions:
REMARK  status: ('A' for Active; 'I' for Inactive)
REMARK    1  A    between atoms: C_1  and  C_2
REMARK    2  A    between atoms: C_4  and  C_5
REMARK    3  A    between atoms: C_11  and  N_12
REMARK    4  A    between atoms: N_15  and  C_16
REMARK    5  A    between atoms: C_21  and  C_22
REMARK    6  A    between atoms: C_27  and  C_28
REMARK                            x       y       z     vdW  Elec       q    Type
REMARK                         _______ _______ _______ _____ _____    ______ ____
ROOT
ATOM      1  C   UNL     1      -4.466  13.140  22.366  0.00  0.00    +0.000 C 
ATOM      2  O   UNL     1      -4.744  13.749  23.401  0.00  0.00    +0.000 OA
ATOM      3  N   UNL     1      -3.178  12.688  22.093  0.00  0.00    +0.000 N 
ATOM      4  C   UNL     1      -2.181  12.737  23.145  0.00  0.00    +0.000 C 
ATOM      5  C   UNL     1      -1.242  13.897  22.886  0.00  0.00    +0.000 C 
ATOM      6  C   UNL     1      -0.571  13.735  21.526  0.00  0.00    +0.000 C 
ATOM      7  C   UNL     1      -1.535  13.447  20.348  0.00  0.00    +0.000 C 
ATOM      8  C   UNL     1      -2.651  12.436  20.753  0.00  0.00    +0.000 C 
ENDROOT
BRANCH   1  12
ATOM      9  C   UNL     1      -7.516  14.559  18.718  0.00  0.00    +0.000 C 
ATOM     10  C   UNL     1      -6.992  13.546  19.689  0.00  0.00    +0.000 A 
ATOM     11  C   UNL     1      -5.928  13.844  20.508  0.00  0.00    +0.000 A 
ATOM     12  C   UNL     1      -5.567  12.859  21.399  0.00  0.00    +0.000 A 
ATOM     13  N   UNL     1      -6.200  11.669  21.506  0.00  0.00    +0.000 NA
ATOM     14  C   UNL     1      -7.208  11.461  20.651  0.00  0.00    +0.000 A 
ATOM     15  C   UNL     1      -7.916  10.145  20.721  0.00  0.00    +0.000 C 
ATOM     16  N   UNL     1      -7.633  12.358  19.742  0.00  0.00    +0.000 NA
ENDBRANCH   1  12
BRANCH   7  17
ATOM     17  N   UNL     1      -0.905  13.133  19.035  0.00  0.00    +0.000 NA
ATOM     18  C   UNL     1       0.572  13.118  19.023  0.00  0.00    +0.000 C 
ATOM     19  C   UNL     1       1.267  11.849  19.594  0.00  0.00    +0.000 C 
ATOM     20  N   UNL     1       0.597  10.592  19.186  0.00  0.00    +0.000 N 
ATOM     21  C   UNL     1      -0.861  10.602  19.061  0.00  0.00    +0.000 C 
ATOM     22  C   UNL     1      -1.347  11.889  18.374  0.00  0.00    +0.000 C 
BRANCH  20  23
ATOM     23  C   UNL     1       1.318   9.410  19.113  0.00  0.00    +0.000 A 
ATOM     24  C   UNL     1       1.915   9.087  17.869  0.00  0.00    +0.000 A 
ATOM     25  C   UNL     1       2.631   7.910  17.647  0.00  0.00    +0.000 A 
ATOM     26  C   UNL     1       2.750   6.986  18.670  0.00  0.00    +0.000 A 
ATOM     27  C   UNL     1       2.170   7.254  19.905  0.00  0.00    +0.000 A 
ATOM     28  C   UNL     1       1.465   8.455  20.151  0.00  0.00    +0.000 A 
ATOM     29  C   UNL     1       0.976   8.639  21.570  0.00  0.00    +0.000 C 
ENDBRANCH  20  23
ENDBRANCH   7  17
TORSDOF 3
ENDMDL
MODEL 4
REMARK VINA RESULT:      -8.1      0.514      1.550
REMARK  Name = 
REMARK  6 active torsions:
REMARK  status: ('A' for Active; 'I' for Inactive)
REMARK    1  A    between atoms: C_1  and  C_2
REMARK    2  A    between atoms: C_4  and  C_5
REMARK    3  A    between atoms: C_11  and  N_12
REMARK    4  A    between atoms: N_15  and  C_16
REMARK    5  A    between atoms: C_21  and  C_22
REMARK    6  A    between atoms: C_27  and  C_28
REMARK                            x       y       z     vdW  Elec       q    Type
REMARK                         _______ _______ _______ _____ _____    ______ ____
ROOT
ATOM      1  C   UNL     1       1.988   5.647  20.244  0.00  0.00    +0.000 C 
ATOM      2  O   UNL     1       1.511   4.953  21.145  0.00  0.00    +0.000 OA
ATOM      3  N   UNL     1       2.810   5.116  19.253  0.00  0.00    +0.000 N 
ATOM      4  C   UNL     1       2.934   3.676  19.144  0.00  0.00    +0.000 C 
ATOM      5  C   UNL     1       4.269   3.247  19.717  0.00  0.00    +0.000 C 
ATOM      6  C   UNL     1       5.407   3.936  18.970  0.00  0.00    +0.000 C 
ATOM      7  C   UNL     1       5.262   5.471  18.825  0.00  0.00    +0.000 C 
ATOM      8  C   UNL     1       3.795   5.881  18.491  0.00  0.00    +0.000 C 
ENDROOT
BRANCH   1  12
ATOM      9  C   UNL     1       1.892  10.048  17.954  0.00  0.00    +0.000 C 
ATOM     10  C   UNL     1       1.604   9.154  19.122  0.00  0.00    +0.000 A 
ATOM     11  C   UNL     1       1.890   7.810  19.063  0.00  0.00    +0.000 A 
ATOM     12  C   UNL     1       1.636   7.096  20.212  0.00  0.00    +0.000 A 
ATOM     13  N   UNL     1       1.152   7.644  21.350  0.00  0.00    +0.000 NA
ATOM     14  C   UNL     1       0.881   8.953  21.303  0.00  0.00    +0.000 A 
ATOM     15  C   UNL     1       0.319   9.590  22.534  0.00  0.00    +0.000 C 
ATOM     16  N   UNL     1       1.090   9.736  20.228  0.00  0.00    +0.000 NA
ENDBRANCH   1  12
BRANCH   7  17
ATOM     17  N   UNL     1       6.273   6.158  17.973  0.00  0.00    +0.000 NA
ATOM     18  C   UNL     1       7.402   5.318  17.523  0.00  0.00    +0.000 C 
ATOM     19  C   UNL     1       7.133   4.358  16.330  0.00  0.00    +0.000 C 
ATOM     20  N   UNL     1       6.316   4.980  15.262  0.00  0.00    +0.000 N 
ATOM     21  C   UNL     1       5.266   5.919  15.662  0.00  0.00    +0.000 C 
ATOM     22  C   UNL     1       5.761   6.855  16.777  0.00  0.00    +0.000 C 
BRANCH  20  23
ATOM     23  C   UNL     1       6.423   4.536  13.953  0.00  0.00    +0.000 A 
ATOM     24  C   UNL     1       5.439   3.628  13.491  0.00  0.00    +0.000 A 
ATOM     25  C   UNL     1       5.452   3.071  12.211  0.00  0.00    +0.000 A 
ATOM     26  C   UNL     1       6.485   3.386  11.346  0.00  0.00    +0.000 A 
ATOM     27  C   UNL     1       7.481   4.263  11.761  0.00  0.00    +0.000 A 
ATOM     28  C   UNL     1       7.465   4.855  13.045  0.00  0.00    +0.000 A 
ATOM     29  C   UNL     1       8.565   5.858  13.310  0.00  0.00    +0.000 C 
ENDBRANCH  20  23
ENDBRANCH   7  17
TORSDOF 3
ENDMDL
MODEL 5
REMARK VINA RESULT:      -8.1      4.564      8.233
REMARK  Name = 
REMARK  6 active torsions:
REMARK  status: ('A' for Active; 'I' for Inactive)
REMARK    1  A    between atoms: C_1  and  C_2
REMARK    2  A    between atoms: C_4  and  C_5
REMARK    3  A    between atoms: C_11  and  N_12
REMARK    4  A    between atoms: N_15  and  C_16
REMARK    5  A    between atoms: C_21  and  C_22
REMARK    6  A    between atoms: C_27  and  C_28
REMARK                            x       y       z     vdW  Elec       q    Type
REMARK                         _______ _______ _______ _____ _____    ______ ____
ROOT
ATOM      1  C   UNL     1      -4.367  12.244  19.771  0.00  0.00    +0.000 C 
ATOM      2  O   UNL     1      -5.451  11.735  19.480  0.00  0.00    +0.000 OA
ATOM      3  N   UNL     1      -3.240  12.105  18.964  0.00  0.00    +0.000 N 
ATOM      4  C   UNL     1      -3.394  11.534  17.640  0.00  0.00    +0.000 C 
ATOM      5  C   UNL     1      -2.890  10.106  17.653  0.00  0.00    +0.000 C 
ATOM      6  C   UNL     1      -1.426  10.069  18.081  0.00  0.00    +0.000 C 
ATOM      7  C   UNL     1      -1.102  10.849  19.379  0.00  0.00    +0.000 C 
ATOM      8  C   UNL     1      -1.861  12.210  19.436  0.00  0.00    +0.000 C 
ENDROOT
BRANCH   1  12
ATOM      9  C   UNL     1      -3.671  16.574  22.094  0.00  0.00    +0.000 C 
ATOM     10  C   UNL     1      -3.952  15.103  22.088  0.00  0.00    +0.000 A 
ATOM     11  C   UNL     1      -4.084  14.417  20.902  0.00  0.00    +0.000 A 
ATOM     12  C   UNL     1      -4.286  13.061  21.017  0.00  0.00    +0.000 A 
ATOM     13  N   UNL     1      -4.342  12.403  22.196  0.00  0.00    +0.000 NA
ATOM     14  C   UNL     1      -4.228  13.157  23.296  0.00  0.00    +0.000 A 
ATOM     15  C   UNL     1      -4.312  12.468  24.621  0.00  0.00    +0.000 C 
ATOM     16  N   UNL     1      -4.033  14.489  23.289  0.00  0.00    +0.000 NA
ENDBRANCH   1  12
BRANCH   7  17
ATOM     17  N   UNL     1       0.338  10.963  19.745  0.00  0.00    +0.000 NA
ATOM     18  C   UNL     1       0.805  10.033  20.794  0.00  0.00    +0.000 C 
ATOM     19  C   UNL     1       1.091   8.569  20.358  0.00  0.00    +0.000 C 
ATOM     20  N   UNL     1       1.784   8.480  19.052  0.00  0.00    +0.000 N 
ATOM     21  C   UNL     1       1.440   9.466  18.026  0.00  0.00    +0.000 C 
ATOM     22  C   UNL     1       1.308  10.872  18.635  0.00  0.00    +0.000 C 
BRANCH  20  23
ATOM     23  C   UNL     1       2.584   7.386  18.759  0.00  0.00    +0.000 A 
ATOM     24  C   UNL     1       3.495   7.516  17.682  0.00  0.00    +0.000 A 
ATOM     25  C   UNL     1       4.328   6.480  17.255  0.00  0.00    +0.000 A 
ATOM     26  C   UNL     1       4.253   5.249  17.882  0.00  0.00    +0.000 A 
ATOM     27  C   UNL     1       3.364   5.071  18.936  0.00  0.00    +0.000 A 
ATOM     28  C   UNL     1       2.534   6.120  19.396  0.00  0.00    +0.000 A 
ATOM     29  C   UNL     1       1.693   5.795  20.609  0.00  0.00    +0.000 C 
ENDBRANCH  20  23
ENDBRANCH   7  17
TORSDOF 3
ENDMDL
MODEL 6
REMARK VINA RESULT:      -8.0      2.565      8.329
REMARK  Name = 
REMARK  6 active torsions:
REMARK  status: ('A' for Active; 'I' for Inactive)
REMARK    1  A    between atoms: C_1  and  C_2
REMARK    2  A    between atoms: C_4  and  C_5
REMARK    3  A    between atoms: C_11  and  N_12
REMARK    4  A    between atoms: N_15  and  C_16
REMARK    5  A    between atoms: C_21  and  C_22
REMARK    6  A    between atoms: C_27  and  C_28
REMARK                            x       y       z     vdW  Elec       q    Type
REMARK                         _______ _______ _______ _____ _____    ______ ____
ROOT
ATOM      1  C   UNL     1       3.916   3.871  18.250  0.00  0.00    +0.000 C 
ATOM      2  O   UNL     1       3.441   2.773  17.952  0.00  0.00    +0.000 OA
ATOM      3  N   UNL     1       3.532   4.559  19.399  0.00  0.00    +0.000 N 
ATOM      4  C   UNL     1       2.718   3.875  20.385  0.00  0.00    +0.000 C 
ATOM      5  C   UNL     1       1.288   4.362  20.274  0.00  0.00    +0.000 C 
ATOM      6  C   UNL     1       1.229   5.871  20.490  0.00  0.00    +0.000 C 
ATOM      7  C   UNL     1       2.229   6.695  19.642  0.00  0.00    +0.000 C 
ATOM      8  C   UNL     1       3.626   6.007  19.572  0.00  0.00    +0.000 C 
ENDROOT
BRANCH   1  12
ATOM      9  C   UNL     1       7.525   7.153  17.342  0.00  0.00    +0.000 C 
ATOM     10  C   UNL     1       6.648   6.004  16.948  0.00  0.00    +0.000 A 
ATOM     11  C   UNL     1       5.752   5.467  17.843  0.00  0.00    +0.000 A 
ATOM     12  C   UNL     1       4.959   4.452  17.356  0.00  0.00    +0.000 A 
ATOM     13  N   UNL     1       5.015   3.994  16.086  0.00  0.00    +0.000 NA
ATOM     14  C   UNL     1       5.935   4.561  15.296  0.00  0.00    +0.000 A 
ATOM     15  C   UNL     1       6.045   4.063  13.890  0.00  0.00    +0.000 C 
ATOM     16  N   UNL     1       6.758   5.555  15.679  0.00  0.00    +0.000 NA
ENDBRANCH   1  12
BRANCH   7  17
ATOM     17  N   UNL     1       2.306   8.154  19.936  0.00  0.00    +0.000 NA
ATOM     18  C   UNL     1       2.241   9.045  18.760  0.00  0.00    +0.000 C 
ATOM     19  C   UNL     1       0.834   9.301  18.149  0.00  0.00    +0.000 C 
ATOM     20  N   UNL     1      -0.214   9.499  19.177  0.00  0.00    +0.000 N 
ATOM     21  C   UNL     1      -0.114   8.725  20.415  0.00  0.00    +0.000 C 
ATOM     22  C   UNL     1       1.338   8.679  20.920  0.00  0.00    +0.000 C 
BRANCH  20  23
ATOM     23  C   UNL     1      -1.344  10.248  18.886  0.00  0.00    +0.000 A 
ATOM     24  C   UNL     1      -2.211   9.754  17.880  0.00  0.00    +0.000 A 
ATOM     25  C   UNL     1      -3.359  10.428  17.460  0.00  0.00    +0.000 A 
ATOM     26  C   UNL     1      -3.666  11.655  18.020  0.00  0.00    +0.000 A 
ATOM     27  C   UNL     1      -2.837  12.186  19.002  0.00  0.00    +0.000 A 
ATOM     28  C   UNL     1      -1.686  11.501  19.455  0.00  0.00    +0.000 A 
ATOM     29  C   UNL     1      -0.943  12.165  20.592  0.00  0.00    +0.000 C 
ENDBRANCH  20  23
ENDBRANCH   7  17
TORSDOF 3
ENDMDL
MODEL 7
REMARK VINA RESULT:      -7.9      4.257      7.977
REMARK  Name = 
REMARK  6 active torsions:
REMARK  status: ('A' for Active; 'I' for Inactive)
REMARK    1  A    between atoms: C_1  and  C_2
REMARK    2  A    between atoms: C_4  and  C_5
REMARK    3  A    between atoms: C_11  and  N_12
REMARK    4  A    between atoms: N_15  and  C_16
REMARK    5  A    between atoms: C_21  and  C_22
REMARK    6  A    between atoms: C_27  and  C_28
REMARK                            x       y       z     vdW  Elec       q    Type
REMARK                         _______ _______ _______ _____ _____    ______ ____
ROOT
ATOM      1  C   UNL     1      -3.916  12.230  19.650  0.00  0.00    +0.000 C 
ATOM      2  O   UNL     1      -5.038  11.794  19.384  0.00  0.00    +0.000 OA
ATOM      3  N   UNL     1      -2.828  12.054  18.799  0.00  0.00    +0.000 N 
ATOM      4  C   UNL     1      -3.061  11.538  17.465  0.00  0.00    +0.000 C 
ATOM      5  C   UNL     1      -2.640  10.083  17.414  0.00  0.00    +0.000 C 
ATOM      6  C   UNL     1      -1.167   9.949  17.787  0.00  0.00    +0.000 C 
ATOM      7  C   UNL     1      -0.753  10.666  19.096  0.00  0.00    +0.000 C 
ATOM      8  C   UNL     1      -1.429  12.065  19.223  0.00  0.00    +0.000 C 
ENDROOT
BRANCH   1  12
ATOM      9  C   UNL     1      -2.424  16.270  22.117  0.00  0.00    +0.000 C 
ATOM     10  C   UNL     1      -3.034  14.903  22.057  0.00  0.00    +0.000 A 
ATOM     11  C   UNL     1      -3.229  14.273  20.849  0.00  0.00    +0.000 A 
ATOM     12  C   UNL     1      -3.745  12.999  20.918  0.00  0.00    +0.000 A 
ATOM     13  N   UNL     1      -4.039  12.365  22.075  0.00  0.00    +0.000 NA
ATOM     14  C   UNL     1      -3.839  13.066  23.196  0.00  0.00    +0.000 A 
ATOM     15  C   UNL     1      -4.179  12.408  24.496  0.00  0.00    +0.000 C 
ATOM     16  N   UNL     1      -3.344  14.317  23.235  0.00  0.00    +0.000 NA
ENDBRANCH   1  12
BRANCH   7  17
ATOM     17  N   UNL     1       0.703  10.686  19.412  0.00  0.00    +0.000 NA
ATOM     18  C   UNL     1       1.092  10.006  20.664  0.00  0.00    +0.000 C 
ATOM     19  C   UNL     1       1.181   8.454  20.623  0.00  0.00    +0.000 C 
ATOM     20  N   UNL     1       1.808   7.945  19.382  0.00  0.00    +0.000 N 
ATOM     21  C   UNL     1       1.548   8.669  18.136  0.00  0.00    +0.000 C 
ATOM     22  C   UNL     1       1.611  10.189  18.360  0.00  0.00    +0.000 C 
BRANCH  20  23
ATOM     23  C   UNL     1       2.457   6.720  19.380  0.00  0.00    +0.000 A 
ATOM     24  C   UNL     1       2.039   5.760  20.335  0.00  0.00    +0.000 A 
ATOM     25  C   UNL     1       2.633   4.505  20.470  0.00  0.00    +0.000 A 
ATOM     26  C   UNL     1       3.705   4.173  19.660  0.00  0.00    +0.000 A 
ATOM     27  C   UNL     1       4.159   5.088  18.717  0.00  0.00    +0.000 A 
ATOM     28  C   UNL     1       3.548   6.352  18.551  0.00  0.00    +0.000 A 
ATOM     29  C   UNL     1       4.096   7.194  17.422  0.00  0.00    +0.000 C 
ENDBRANCH  20  23
ENDBRANCH   7  17
TORSDOF 3
ENDMDL
MODEL 8
REMARK VINA RESULT:      -7.8      4.448      7.991
REMARK  Name = 
REMARK  6 active torsions:
REMARK  status: ('A' for Active; 'I' for Inactive)
REMARK    1  A    between atoms: C_1  and  C_2
REMARK    2  A    between atoms: C_4  and  C_5
REMARK    3  A    between atoms: C_11  and  N_12
REMARK    4  A    between atoms: N_15  and  C_16
REMARK    5  A    between atoms: C_21  and  C_22
REMARK    6  A    between atoms: C_27  and  C_28
REMARK                            x       y       z     vdW  Elec       q    Type
REMARK                         _______ _______ _______ _____ _____    ______ ____
ROOT
ATOM      1  C   UNL     1      -4.054  12.319  19.690  0.00  0.00    +0.000 C 
ATOM      2  O   UNL     1      -5.158  11.850  19.408  0.00  0.00    +0.000 OA
ATOM      3  N   UNL     1      -2.938  12.134  18.877  0.00  0.00    +0.000 N 
ATOM      4  C   UNL     1      -3.122  11.565  17.556  0.00  0.00    +0.000 C 
ATOM      5  C   UNL     1      -2.673  10.119  17.571  0.00  0.00    +0.000 C 
ATOM      6  C   UNL     1      -1.209  10.028  17.990  0.00  0.00    +0.000 C 
ATOM      7  C   UNL     1      -0.847  10.800  19.283  0.00  0.00    +0.000 C 
ATOM      8  C   UNL     1      -1.553  12.188  19.340  0.00  0.00    +0.000 C 
ENDROOT
BRANCH   1  12
ATOM      9  C   UNL     1      -4.119  12.750  24.633  0.00  0.00    +0.000 C 
ATOM     10  C   UNL     1      -3.972  13.318  23.255  0.00  0.00    +0.000 A 
ATOM     11  C   UNL     1      -4.024  12.500  22.150  0.00  0.00    +0.000 A 
ATOM     12  C   UNL     1      -3.934  13.136  20.933  0.00  0.00    +0.000 A 
ATOM     13  N   UNL     1      -3.816  14.475  20.787  0.00  0.00    +0.000 NA
ATOM     14  C   UNL     1      -3.749  15.185  21.919  0.00  0.00    +0.000 A 
ATOM     15  C   UNL     1      -3.592  16.668  21.800  0.00  0.00    +0.000 C 
ATOM     16  N   UNL     1      -3.824  14.657  23.155  0.00  0.00    +0.000 NA
ENDBRANCH   1  12
BRANCH   7  17
ATOM     17  N   UNL     1       0.599  10.860  19.639  0.00  0.00    +0.000 NA
ATOM     18  C   UNL     1       1.033   9.928  20.700  0.00  0.00    +0.000 C 
ATOM     19  C   UNL     1       1.256   8.446  20.286  0.00  0.00    +0.000 C 
ATOM     20  N   UNL     1       1.937   8.309  18.978  0.00  0.00    +0.000 N 
ATOM     21  C   UNL     1       1.629   9.293  17.938  0.00  0.00    +0.000 C 
ATOM     22  C   UNL     1       1.557  10.712  18.527  0.00  0.00    +0.000 C 
BRANCH  20  23
ATOM     23  C   UNL     1       2.690   7.179  18.698  0.00  0.00    +0.000 A 
ATOM     24  C   UNL     1       3.620   7.263  17.633  0.00  0.00    +0.000 A 
ATOM     25  C   UNL     1       4.410   6.190  17.219  0.00  0.00    +0.000 A 
ATOM     26  C   UNL     1       4.271   4.965  17.848  0.00  0.00    +0.000 A 
ATOM     27  C   UNL     1       3.361   4.831  18.890  0.00  0.00    +0.000 A 
ATOM     28  C   UNL     1       2.575   5.918  19.337  0.00  0.00    +0.000 A 
ATOM     29  C   UNL     1       1.703   5.636  20.540  0.00  0.00    +0.000 C 
ENDBRANCH  20  23
ENDBRANCH   7  17
TORSDOF 3
ENDMDL
MODEL 9
REMARK VINA RESULT:      -7.8      4.150      7.725
REMARK  Name = 
REMARK  6 active torsions:
REMARK  status: ('A' for Active; 'I' for Inactive)
REMARK    1  A    between atoms: C_1  and  C_2
REMARK    2  A    between atoms: C_4  and  C_5
REMARK    3  A    between atoms: C_11  and  N_12
REMARK    4  A    between atoms: N_15  and  C_16
REMARK    5  A    between atoms: C_21  and  C_22
REMARK    6  A    between atoms: C_27  and  C_28
REMARK                            x       y       z     vdW  Elec       q    Type
REMARK                         _______ _______ _______ _____ _____    ______ ____
ROOT
ATOM      1  C   UNL     1      -3.615  12.278  19.527  0.00  0.00    +0.000 C 
ATOM      2  O   UNL     1      -4.755  11.873  19.292  0.00  0.00    +0.000 OA
ATOM      3  N   UNL     1      -2.552  12.055  18.655  0.00  0.00    +0.000 N 
ATOM      4  C   UNL     1      -2.830  11.526  17.334  0.00  0.00    +0.000 C 
ATOM      5  C   UNL     1      -2.457  10.059  17.297  0.00  0.00    +0.000 C 
ATOM      6  C   UNL     1      -0.981   9.884  17.639  0.00  0.00    +0.000 C 
ATOM      7  C   UNL     1      -0.515  10.606  18.927  0.00  0.00    +0.000 C 
ATOM      8  C   UNL     1      -1.144  12.028  19.048  0.00  0.00    +0.000 C 
ENDROOT
BRANCH   1  12
ATOM      9  C   UNL     1      -3.972  12.802  24.449  0.00  0.00    +0.000 C 
ATOM     10  C   UNL     1      -3.571  13.288  23.090  0.00  0.00    +0.000 A 
ATOM     11  C   UNL     1      -3.741  12.491  21.981  0.00  0.00    +0.000 A 
ATOM     12  C   UNL     1      -3.391  13.060  20.778  0.00  0.00    +0.000 A 
ATOM     13  N   UNL     1      -2.921  14.321  20.648  0.00  0.00    +0.000 NA
ATOM     14  C   UNL     1      -2.766  15.010  21.784  0.00  0.00    +0.000 A 
ATOM     15  C   UNL     1      -2.223  16.400  21.683  0.00  0.00    +0.000 C 
ATOM     16  N   UNL     1      -3.076  14.542  23.008  0.00  0.00    +0.000 NA
ENDBRANCH   1  12
BRANCH   7  17
ATOM     17  N   UNL     1       0.947  10.585  19.211  0.00  0.00    +0.000 NA
ATOM     18  C   UNL     1       1.340   9.939  20.480  0.00  0.00    +0.000 C 
ATOM     19  C   UNL     1       1.372   8.385  20.498  0.00  0.00    +0.000 C 
ATOM     20  N   UNL     1       1.952   7.806  19.264  0.00  0.00    +0.000 N 
ATOM     21  C   UNL     1       1.690   8.491  17.997  0.00  0.00    +0.000 C 
ATOM     22  C   UNL     1       1.813  10.015  18.160  0.00  0.00    +0.000 C 
BRANCH  20  23
ATOM     23  C   UNL     1       2.556   6.558  19.296  0.00  0.00    +0.000 A 
ATOM     24  C   UNL     1       2.059   5.618  20.232  0.00  0.00    +0.000 A 
ATOM     25  C   UNL     1       2.602   4.343  20.398  0.00  0.00    +0.000 A 
ATOM     26  C   UNL     1       3.698   3.970  19.642  0.00  0.00    +0.000 A 
ATOM     27  C   UNL     1       4.229   4.864  18.719  0.00  0.00    +0.000 A 
ATOM     28  C   UNL     1       3.671   6.149  18.521  0.00  0.00    +0.000 A 
ATOM     29  C   UNL     1       4.302   6.966  17.417  0.00  0.00    +0.000 C 
ENDBRANCH  20  23
ENDBRANCH   7  17
TORSDOF 3
ENDMDL
