MODEL 1
REMARK VINA RESULT:      -7.8      0.000      0.000
REMARK  Name = 
REMARK  8 active torsions:
REMARK  status: ('A' for Active; 'I' for Inactive)
REMARK    1  A    between atoms: N_1  and  S_2
REMARK    2  A    between atoms: S_2  and  C_5
REMARK    3  A    between atoms: C_8  and  C_9
REMARK    4  A    between atoms: C_9  and  C_10
REMARK    5  A    between atoms: C_10  and  N_11
REMARK    6  A    between atoms: C_12  and  C_14
REMARK    7  A    between atoms: N_17  and  S_18
REMARK    8  A    between atoms: S_18  and  C_21
REMARK                            x       y       z     vdW  Elec       q    Type
REMARK                         _______ _______ _______ _____ _____    ______ ____
ROOT
ATOM      1  N   UNL     1       7.647   6.932  17.766  0.00  0.00    +0.000 N 
ATOM      2  C   UNL     1       7.772   5.656  18.284  0.00  0.00    +0.000 C 
ATOM      3  O   UNL     1       8.284   5.474  19.395  0.00  0.00    +0.000 OA
ATOM      4  H   UNL     1       7.347   7.040  16.799  0.00  0.00    +0.000 HD
ENDROOT
BRANCH   2   5
ATOM      5  C   UNL     1       7.155   4.509  17.428  0.00  0.00    +0.000 C 
ATOM      6  C   UNL     1       7.002   4.793  15.916  0.00  0.00    +0.000 C 
ATOM      7  C   UNL     1       5.759   3.904  15.990  0.00  0.00    +0.000 C 
ATOM      8  N   UNL     1       5.669   4.154  17.469  0.00  0.00    +0.000 NA
BRANCH   8   9
ATOM      9  S   UNL     1       4.481   5.182  18.138  0.00  0.00    +0.000 S 
ATOM     10  O   UNL     1       4.952   5.585  19.435  0.00  0.00    +0.000 OA
ATOM     11  O   UNL     1       4.095   6.142  17.127  0.00  0.00    +0.000 OA
BRANCH   9  12
ATOM     12  C   UNL     1       3.127   4.043  18.386  0.00  0.00    +0.000 A 
ATOM     13  C   UNL     1       3.409   2.742  18.823  0.00  0.00    +0.000 A 
ATOM     14  C   UNL     1       2.367   1.837  19.008  0.00  0.00    +0.000 A 
ATOM     15  C   UNL     1       1.047   2.230  18.768  0.00  0.00    +0.000 A 
ATOM     16  C   UNL     1       0.772   3.529  18.348  0.00  0.00    +0.000 A 
ATOM     17  C   UNL     1       1.812   4.446  18.160  0.00  0.00    +0.000 A 
ENDBRANCH   9  12
ENDBRANCH   8   9
ENDBRANCH   2   5
BRANCH   1  18
ATOM     18  C   UNL     1       8.189   8.077  18.471  0.00  0.00    +0.000 C 
BRANCH  18  19
ATOM     19  C   UNL     1       8.401   9.277  17.548  0.00  0.00    +0.000 C 
BRANCH  19  23
ATOM     20  C   UNL     1       9.514  12.801  19.739  0.00  0.00    +0.000 A 
ATOM     21  C   UNL     1       8.988  12.935  18.450  0.00  0.00    +0.000 A 
ATOM     22  C   UNL     1       8.643  11.785  17.734  0.00  0.00    +0.000 A 
ATOM     23  C   UNL     1       8.821  10.514  18.300  0.00  0.00    +0.000 A 
ATOM     24  C   UNL     1       9.383  10.399  19.580  0.00  0.00    +0.000 A 
ATOM     25  C   UNL     1       9.727  11.539  20.298  0.00  0.00    +0.000 A 
BRANCH  20  26
ATOM     26  S   UNL     1       9.838  14.239  20.710  0.00  0.00    +0.000 S 
ATOM     27  O   UNL     1       9.896  13.867  22.102  0.00  0.00    +0.000 OA
ATOM     28  O   UNL     1       9.021  15.335  20.233  0.00  0.00    +0.000 OA
BRANCH  26  29
ATOM     29  N   UNL     1      11.404  14.628  20.238  0.00  0.00    +0.000 NA
ATOM     30  H   UNL     1      11.821  13.831  19.761  0.00  0.00    +0.000 HD
ATOM     31  H   UNL     1      11.944  14.965  21.034  0.00  0.00    +0.000 HD
ENDBRANCH  26  29
ENDBRANCH  20  26
ENDBRANCH  19  23
ENDBRANCH  18  19
ENDBRANCH   1  18
TORSDOF 8
ENDMDL
MODEL 2
REMARK VINA RESULT:      -7.8      0.856      1.596
REMARK  Name = 
REMARK  8 active torsions:
REMARK  status: ('A' for Active; 'I' for Inactive)
REMARK    1  A    between atoms: N_1  and  S_2
REMARK    2  A    between atoms: S_2  and  C_5
REMARK    3  A    between atoms: C_8  and  C_9
REMARK    4  A    between atoms: C_9  and  C_10
REMARK    5  A    between atoms: C_10  and  N_11
REMARK    6  A    between atoms: C_12  and  C_14
REMARK    7  A    between atoms: N_17  and  S_18
REMARK    8  A    between atoms: S_18  and  C_21
REMARK                            x       y       z     vdW  Elec       q    Type
REMARK                         _______ _______ _______ _____ _____    ______ ____
ROOT
ATOM      1  N   UNL     1       7.707   7.252  17.801  0.00  0.00    +0.000 N 
ATOM      2  C   UNL     1       7.843   5.987  18.343  0.00  0.00    +0.000 C 
ATOM      3  O   UNL     1       8.351   5.831  19.459  0.00  0.00    +0.000 OA
ATOM      4  H   UNL     1       7.412   7.338  16.830  0.00  0.00    +0.000 HD
ENDROOT
BRANCH   2   5
ATOM      5  C   UNL     1       7.244   4.818  17.505  0.00  0.00    +0.000 C 
ATOM      6  C   UNL     1       6.954   5.123  16.017  0.00  0.00    +0.000 C 
ATOM      7  C   UNL     1       5.785   4.145  16.161  0.00  0.00    +0.000 C 
ATOM      8  N   UNL     1       5.793   4.356  17.649  0.00  0.00    +0.000 NA
BRANCH   8   9
ATOM      9  S   UNL     1       4.592   5.282  18.433  0.00  0.00    +0.000 S 
ATOM     10  O   UNL     1       5.046   5.512  19.778  0.00  0.00    +0.000 OA
ATOM     11  O   UNL     1       4.211   6.365  17.553  0.00  0.00    +0.000 OA
BRANCH   9  12
ATOM     12  C   UNL     1       3.242   4.114  18.513  0.00  0.00    +0.000 A 
ATOM     13  C   UNL     1       1.975   4.514  18.068  0.00  0.00    +0.000 A 
ATOM     14  C   UNL     1       0.908   3.621  18.136  0.00  0.00    +0.000 A 
ATOM     15  C   UNL     1       1.106   2.330  18.635  0.00  0.00    +0.000 A 
ATOM     16  C   UNL     1       2.371   1.934  19.063  0.00  0.00    +0.000 A 
ATOM     17  C   UNL     1       3.450   2.823  18.997  0.00  0.00    +0.000 A 
ENDBRANCH   9  12
ENDBRANCH   8   9
ENDBRANCH   2   5
BRANCH   1  18
ATOM     18  C   UNL     1       8.233   8.415  18.487  0.00  0.00    +0.000 C 
BRANCH  18  19
ATOM     19  C   UNL     1       8.349   9.627  17.563  0.00  0.00    +0.000 C 
BRANCH  19  23
ATOM     20  C   UNL     1      10.046  13.067  19.500  0.00  0.00    +0.000 A 
ATOM     21  C   UNL     1      10.287  11.796  20.031  0.00  0.00    +0.000 A 
ATOM     22  C   UNL     1       9.718  10.681  19.408  0.00  0.00    +0.000 A 
ATOM     23  C   UNL     1       8.919  10.834  18.265  0.00  0.00    +0.000 A 
ATOM     24  C   UNL     1       8.661  12.120  17.769  0.00  0.00    +0.000 A 
ATOM     25  C   UNL     1       9.224  13.233  18.384  0.00  0.00    +0.000 A 
BRANCH  20  26
ATOM     26  S   UNL     1      10.853  14.476  20.193  0.00  0.00    +0.000 S 
ATOM     27  O   UNL     1      12.203  14.542  19.688  0.00  0.00    +0.000 OA
ATOM     28  O   UNL     1      10.547  14.558  21.606  0.00  0.00    +0.000 OA
BRANCH  26  29
ATOM     29  N   UNL     1      10.001  15.742  19.490  0.00  0.00    +0.000 NA
ATOM     30  H   UNL     1       9.016  15.665  19.736  0.00  0.00    +0.000 HD
ATOM     31  H   UNL     1      10.176  15.778  18.487  0.00  0.00    +0.000 HD
ENDBRANCH  26  29
ENDBRANCH  20  26
ENDBRANCH  19  23
ENDBRANCH  18  19
ENDBRANCH   1  18
TORSDOF 8
ENDMDL
MODEL 3
REMARK VINA RESULT:      -7.8      1.460      1.779
REMARK  Name = 
REMARK  8 active torsions:
REMARK  status: ('A' for Active; 'I' for Inactive)
REMARK    1  A    between atoms: N_1  and  S_2
REMARK    2  A    between atoms: S_2  and  C_5
REMARK    3  A    between atoms: C_8  and  C_9
REMARK    4  A    between atoms: C_9  and  C_10
REMARK    5  A    between atoms: C_10  and  N_11
REMARK    6  A    between atoms: C_12  and  C_14
REMARK    7  A    between atoms: N_17  and  S_18
REMARK    8  A    between atoms: S_18  and  C_21
REMARK                            x       y       z     vdW  Elec       q    Type
REMARK                         _______ _______ _______ _____ _____    ______ ____
ROOT
ATOM      1  N   UNL     1       7.359   6.186  18.011  0.00  0.00    +0.000 N 
ATOM      2  C   UNL     1       7.135   5.696  16.737  0.00  0.00    +0.000 C 
ATOM      3  O   UNL     1       7.735   6.169  15.765  0.00  0.00    +0.000 OA
ATOM      4  H   UNL     1       6.756   5.871  18.769  0.00  0.00    +0.000 HD
ENDROOT
BRANCH   2   5
ATOM      5  C   UNL     1       6.167   4.479  16.636  0.00  0.00    +0.000 C 
ATOM      6  C   UNL     1       4.947   4.653  15.701  0.00  0.00    +0.000 C 
ATOM      7  C   UNL     1       4.206   3.745  16.686  0.00  0.00    +0.000 C 
ATOM      8  N   UNL     1       5.200   4.096  17.757  0.00  0.00    +0.000 NA
BRANCH   8   9
ATOM      9  S   UNL     1       4.803   5.143  19.045  0.00  0.00    +0.000 S 
ATOM     10  O   UNL     1       5.875   5.065  20.001  0.00  0.00    +0.000 OA
ATOM     11  O   UNL     1       4.362   6.401  18.485  0.00  0.00    +0.000 OA
BRANCH   9  12
ATOM     12  C   UNL     1       3.389   4.311  19.753  0.00  0.00    +0.000 A 
ATOM     13  C   UNL     1       2.148   4.963  19.748  0.00  0.00    +0.000 A 
ATOM     14  C   UNL     1       1.038   4.335  20.308  0.00  0.00    +0.000 A 
ATOM     15  C   UNL     1       1.162   3.057  20.861  0.00  0.00    +0.000 A 
ATOM     16  C   UNL     1       2.394   2.408  20.850  0.00  0.00    +0.000 A 
ATOM     17  C   UNL     1       3.515   3.030  20.288  0.00  0.00    +0.000 A 
ENDBRANCH   9  12
ENDBRANCH   8   9
ENDBRANCH   2   5
BRANCH   1  18
ATOM     18  C   UNL     1       8.235   7.320  18.228  0.00  0.00    +0.000 C 
BRANCH  18  19
ATOM     19  C   UNL     1       7.638   8.622  17.692  0.00  0.00    +0.000 C 
BRANCH  19  23
ATOM     20  C   UNL     1       9.693  12.108  19.138  0.00  0.00    +0.000 A 
ATOM     21  C   UNL     1       8.925  12.201  17.972  0.00  0.00    +0.000 A 
ATOM     22  C   UNL     1       8.272  11.060  17.496  0.00  0.00    +0.000 A 
ATOM     23  C   UNL     1       8.384   9.839  18.177  0.00  0.00    +0.000 A 
ATOM     24  C   UNL     1       9.188   9.758  19.324  0.00  0.00    +0.000 A 
ATOM     25  C   UNL     1       9.838  10.890  19.803  0.00  0.00    +0.000 A 
BRANCH  20  26
ATOM     26  S   UNL     1      10.422  13.560  19.828  0.00  0.00    +0.000 S 
ATOM     27  O   UNL     1      10.306  13.510  21.264  0.00  0.00    +0.000 OA
ATOM     28  O   UNL     1      10.015  14.715  19.056  0.00  0.00    +0.000 OA
BRANCH  26  29
ATOM     29  N   UNL     1      12.046  13.340  19.456  0.00  0.00    +0.000 NA
ATOM     30  H   UNL     1      12.202  12.373  19.180  0.00  0.00    +0.000 HD
ATOM     31  H   UNL     1      12.635  13.652  20.227  0.00  0.00    +0.000 HD
ENDBRANCH  26  29
ENDBRANCH  20  26
ENDBRANCH  19  23
ENDBRANCH  18  19
ENDBRANCH   1  18
TORSDOF 8
ENDMDL
MODEL 4
REMARK VINA RESULT:      -7.8      7.406      9.981
REMARK  Name = 
REMARK  8 active torsions:
REMARK  status: ('A' for Active; 'I' for Inactive)
REMARK    1  A    between atoms: N_1  and  S_2
REMARK    2  A    between atoms: S_2  and  C_5
REMARK    3  A    between atoms: C_8  and  C_9
REMARK    4  A    between atoms: C_9  and  C_10
REMARK    5  A    between atoms: C_10  and  N_11
REMARK    6  A    between atoms: C_12  and  C_14
REMARK    7  A    between atoms: N_17  and  S_18
REMARK    8  A    between atoms: S_18  and  C_21
REMARK                            x       y       z     vdW  Elec       q    Type
REMARK                         _______ _______ _______ _____ _____    ______ ____
ROOT
ATOM      1  N   UNL     1       0.740   8.891  20.357  0.00  0.00    +0.000 N 
ATOM      2  C   UNL     1       0.628   9.984  19.516  0.00  0.00    +0.000 C 
ATOM      3  O   UNL     1       1.566  10.314  18.782  0.00  0.00    +0.000 OA
ATOM      4  H   UNL     1       0.007   8.725  21.044  0.00  0.00    +0.000 HD
ENDROOT
BRANCH   2   5
ATOM      5  C   UNL     1      -0.761  10.692  19.501  0.00  0.00    +0.000 C 
ATOM      6  C   UNL     1      -0.841  12.019  18.711  0.00  0.00    +0.000 C 
ATOM      7  C   UNL     1      -1.876  12.446  19.755  0.00  0.00    +0.000 C 
ATOM      8  N   UNL     1      -1.326  11.430  20.715  0.00  0.00    +0.000 NA
BRANCH   8   9
ATOM      9  S   UNL     1      -0.375  11.884  22.058  0.00  0.00    +0.000 S 
ATOM     10  O   UNL     1      -0.022  10.676  22.754  0.00  0.00    +0.000 OA
ATOM     11  O   UNL     1       0.621  12.831  21.607  0.00  0.00    +0.000 OA
BRANCH   9  12
ATOM     12  C   UNL     1      -1.571  12.753  23.061  0.00  0.00    +0.000 A 
ATOM     13  C   UNL     1      -2.778  12.116  23.378  0.00  0.00    +0.000 A 
ATOM     14  C   UNL     1      -3.728  12.785  24.146  0.00  0.00    +0.000 A 
ATOM     15  C   UNL     1      -3.471  14.080  24.607  0.00  0.00    +0.000 A 
ATOM     16  C   UNL     1      -2.263  14.701  24.301  0.00  0.00    +0.000 A 
ATOM     17  C   UNL     1      -1.302  14.038  23.530  0.00  0.00    +0.000 A 
ENDBRANCH   9  12
ENDBRANCH   8   9
ENDBRANCH   2   5
BRANCH   1  18
ATOM     18  C   UNL     1       1.986   8.158  20.460  0.00  0.00    +0.000 C 
BRANCH  18  19
ATOM     19  C   UNL     1       1.856   6.723  19.952  0.00  0.00    +0.000 C 
BRANCH  19  23
ATOM     20  C   UNL     1       5.302   5.550  17.670  0.00  0.00    +0.000 A 
ATOM     21  C   UNL     1       4.503   6.602  17.209  0.00  0.00    +0.000 A 
ATOM     22  C   UNL     1       3.374   6.969  17.946  0.00  0.00    +0.000 A 
ATOM     23  C   UNL     1       3.045   6.293  19.131  0.00  0.00    +0.000 A 
ATOM     24  C   UNL     1       3.839   5.218  19.556  0.00  0.00    +0.000 A 
ATOM     25  C   UNL     1       4.965   4.849  18.828  0.00  0.00    +0.000 A 
BRANCH  20  26
ATOM     26  S   UNL     1       6.801   5.152  16.827  0.00  0.00    +0.000 S 
ATOM     27  O   UNL     1       7.490   6.372  16.485  0.00  0.00    +0.000 OA
ATOM     28  O   UNL     1       6.544   4.107  15.857  0.00  0.00    +0.000 OA
BRANCH  26  29
ATOM     29  N   UNL     1       7.692   4.406  18.041  0.00  0.00    +0.000 NA
ATOM     30  H   UNL     1       7.089   4.224  18.841  0.00  0.00    +0.000 HD
ATOM     31  H   UNL     1       8.522   4.954  18.264  0.00  0.00    +0.000 HD
ENDBRANCH  26  29
ENDBRANCH  20  26
ENDBRANCH  19  23
ENDBRANCH  18  19
ENDBRANCH   1  18
TORSDOF 8
ENDMDL
MODEL 5
REMARK VINA RESULT:      -7.8      2.143      2.557
REMARK  Name = 
REMARK  8 active torsions:
REMARK  status: ('A' for Active; 'I' for Inactive)
REMARK    1  A    between atoms: N_1  and  S_2
REMARK    2  A    between atoms: S_2  and  C_5
REMARK    3  A    between atoms: C_8  and  C_9
REMARK    4  A    between atoms: C_9  and  C_10
REMARK    5  A    between atoms: C_10  and  N_11
REMARK    6  A    between atoms: C_12  and  C_14
REMARK    7  A    between atoms: N_17  and  S_18
REMARK    8  A    between atoms: S_18  and  C_21
REMARK                            x       y       z     vdW  Elec       q    Type
REMARK                         _______ _______ _______ _____ _____    ______ ____
ROOT
ATOM      1  N   UNL     1       8.194   8.322  18.653  0.00  0.00    +0.000 N 
ATOM      2  C   UNL     1       7.659   7.338  17.841  0.00  0.00    +0.000 C 
ATOM      3  O   UNL     1       7.555   7.516  16.622  0.00  0.00    +0.000 OA
ATOM      4  H   UNL     1       8.143   8.202  19.664  0.00  0.00    +0.000 HD
ENDROOT
BRANCH   2   5
ATOM      5  C   UNL     1       7.294   5.997  18.545  0.00  0.00    +0.000 C 
ATOM      6  C   UNL     1       7.628   4.704  17.765  0.00  0.00    +0.000 C 
ATOM      7  C   UNL     1       6.388   4.111  18.440  0.00  0.00    +0.000 C 
ATOM      8  N   UNL     1       5.855   5.496  18.675  0.00  0.00    +0.000 NA
BRANCH   8   9
ATOM      9  S   UNL     1       4.560   6.129  17.759  0.00  0.00    +0.000 S 
ATOM     10  O   UNL     1       4.439   7.520  18.102  0.00  0.00    +0.000 OA
ATOM     11  O   UNL     1       4.716   5.685  16.391  0.00  0.00    +0.000 OA
BRANCH   9  12
ATOM     12  C   UNL     1       3.167   5.272  18.478  0.00  0.00    +0.000 A 
ATOM     13  C   UNL     1       2.476   4.333  17.700  0.00  0.00    +0.000 A 
ATOM     14  C   UNL     1       1.379   3.667  18.241  0.00  0.00    +0.000 A 
ATOM     15  C   UNL     1       0.979   3.926  19.555  0.00  0.00    +0.000 A 
ATOM     16  C   UNL     1       1.679   4.850  20.327  0.00  0.00    +0.000 A 
ATOM     17  C   UNL     1       2.783   5.524  19.794  0.00  0.00    +0.000 A 
ENDBRANCH   9  12
ENDBRANCH   8   9
ENDBRANCH   2   5
BRANCH   1  18
ATOM     18  C   UNL     1       8.564   9.614  18.111  0.00  0.00    +0.000 C 
BRANCH  18  19
ATOM     19  C   UNL     1       9.759  10.226  18.841  0.00  0.00    +0.000 C 
BRANCH  19  23
ATOM     20  C   UNL     1      10.099  14.444  18.096  0.00  0.00    +0.000 A 
ATOM     21  C   UNL     1      11.208  13.745  18.585  0.00  0.00    +0.000 A 
ATOM     22  C   UNL     1      11.087  12.377  18.842  0.00  0.00    +0.000 A 
ATOM     23  C   UNL     1       9.874  11.712  18.613  0.00  0.00    +0.000 A 
ATOM     24  C   UNL     1       8.764  12.438  18.155  0.00  0.00    +0.000 A 
ATOM     25  C   UNL     1       8.877  13.799  17.896  0.00  0.00    +0.000 A 
BRANCH  20  26
ATOM     26  S   UNL     1      10.262  16.143  17.644  0.00  0.00    +0.000 S 
ATOM     27  O   UNL     1      11.415  16.700  18.306  0.00  0.00    +0.000 OA
ATOM     28  O   UNL     1       8.960  16.777  17.684  0.00  0.00    +0.000 OA
BRANCH  26  29
ATOM     29  N   UNL     1      10.638  16.030  16.010  0.00  0.00    +0.000 NA
ATOM     30  H   UNL     1       9.809  16.241  15.456  0.00  0.00    +0.000 HD
ATOM     31  H   UNL     1      11.058  15.126  15.800  0.00  0.00    +0.000 HD
ENDBRANCH  26  29
ENDBRANCH  20  26
ENDBRANCH  19  23
ENDBRANCH  18  19
ENDBRANCH   1  18
TORSDOF 8
ENDMDL
MODEL 6
REMARK VINA RESULT:      -7.7      5.839      7.803
REMARK  Name = 
REMARK  8 active torsions:
REMARK  status: ('A' for Active; 'I' for Inactive)
REMARK    1  A    between atoms: N_1  and  S_2
REMARK    2  A    between atoms: S_2  and  C_5
REMARK    3  A    between atoms: C_8  and  C_9
REMARK    4  A    between atoms: C_9  and  C_10
REMARK    5  A    between atoms: C_10  and  N_11
REMARK    6  A    between atoms: C_12  and  C_14
REMARK    7  A    between atoms: N_17  and  S_18
REMARK    8  A    between atoms: S_18  and  C_21
REMARK                            x       y       z     vdW  Elec       q    Type
REMARK                         _______ _______ _______ _____ _____    ______ ____
ROOT
ATOM      1  N   UNL     1       1.582   5.555  20.005  0.00  0.00    +0.000 N 
ATOM      2  C   UNL     1       2.072   4.299  20.317  0.00  0.00    +0.000 C 
ATOM      3  O   UNL     1       2.229   3.959  21.495  0.00  0.00    +0.000 OA
ATOM      4  H   UNL     1       1.591   5.855  19.031  0.00  0.00    +0.000 HD
ENDROOT
BRANCH   2   5
ATOM      5  C   UNL     1       2.317   3.344  19.110  0.00  0.00    +0.000 C 
ATOM      6  C   UNL     1       2.875   1.943  19.451  0.00  0.00    +0.000 C 
ATOM      7  C   UNL     1       3.596   2.027  18.103  0.00  0.00    +0.000 C 
ATOM      8  N   UNL     1       3.482   3.525  18.136  0.00  0.00    +0.000 NA
BRANCH   8   9
ATOM      9  S   UNL     1       4.827   4.524  18.464  0.00  0.00    +0.000 S 
ATOM     10  O   UNL     1       4.319   5.839  18.747  0.00  0.00    +0.000 OA
ATOM     11  O   UNL     1       5.698   3.821  19.380  0.00  0.00    +0.000 OA
BRANCH   9  12
ATOM     12  C   UNL     1       5.619   4.586  16.863  0.00  0.00    +0.000 A 
ATOM     13  C   UNL     1       4.857   4.305  15.720  0.00  0.00    +0.000 A 
ATOM     14  C   UNL     1       5.462   4.335  14.466  0.00  0.00    +0.000 A 
ATOM     15  C   UNL     1       6.818   4.655  14.350  0.00  0.00    +0.000 A 
ATOM     16  C   UNL     1       7.566   4.947  15.488  0.00  0.00    +0.000 A 
ATOM     17  C   UNL     1       6.968   4.921  16.752  0.00  0.00    +0.000 A 
ENDBRANCH   9  12
ENDBRANCH   8   9
ENDBRANCH   2   5
BRANCH   1  18
ATOM     18  C   UNL     1       1.324   6.531  21.044  0.00  0.00    +0.000 C 
BRANCH  18  19
ATOM     19  C   UNL     1       2.009   7.868  20.765  0.00  0.00    +0.000 C 
BRANCH  19  23
ATOM     20  C   UNL     1      -0.663  10.602  18.805  0.00  0.00    +0.000 A 
ATOM     21  C   UNL     1       0.369  10.010  18.069  0.00  0.00    +0.000 A 
ATOM     22  C   UNL     1       1.246   9.135  18.715  0.00  0.00    +0.000 A 
ATOM     23  C   UNL     1       1.095   8.852  20.081  0.00  0.00    +0.000 A 
ATOM     24  C   UNL     1       0.075   9.483  20.808  0.00  0.00    +0.000 A 
ATOM     25  C   UNL     1      -0.802  10.355  20.171  0.00  0.00    +0.000 A 
BRANCH  20  26
ATOM     26  S   UNL     1      -1.859  11.610  17.986  0.00  0.00    +0.000 S 
ATOM     27  O   UNL     1      -2.869  12.010  18.933  0.00  0.00    +0.000 OA
ATOM     28  O   UNL     1      -2.186  11.022  16.703  0.00  0.00    +0.000 OA
BRANCH  26  29
ATOM     29  N   UNL     1      -0.959  12.981  17.616  0.00  0.00    +0.000 NA
ATOM     30  H   UNL     1      -0.962  13.613  18.415  0.00  0.00    +0.000 HD
ATOM     31  H   UNL     1      -1.291  13.405  16.751  0.00  0.00    +0.000 HD
ENDBRANCH  26  29
ENDBRANCH  20  26
ENDBRANCH  19  23
ENDBRANCH  18  19
ENDBRANCH   1  18
TORSDOF 8
ENDMDL
MODEL 7
REMARK VINA RESULT:      -7.7      0.811      1.126
REMARK  Name = 
REMARK  8 active torsions:
REMARK  status: ('A' for Active; 'I' for Inactive)
REMARK    1  A    between atoms: N_1  and  S_2
REMARK    2  A    between atoms: S_2  and  C_5
REMARK    3  A    between atoms: C_8  and  C_9
REMARK    4  A    between atoms: C_9  and  C_10
REMARK    5  A    between atoms: C_10  and  N_11
REMARK    6  A    between atoms: C_12  and  C_14
REMARK    7  A    between atoms: N_17  and  S_18
REMARK    8  A    between atoms: S_18  and  C_21
REMARK                            x       y       z     vdW  Elec       q    Type
REMARK                         _______ _______ _______ _____ _____    ______ ____
ROOT
ATOM      1  N   UNL     1       7.559   6.891  17.839  0.00  0.00    +0.000 N 
ATOM      2  C   UNL     1       7.655   5.583  18.280  0.00  0.00    +0.000 C 
ATOM      3  O   UNL     1       8.286   5.309  19.307  0.00  0.00    +0.000 OA
ATOM      4  H   UNL     1       7.150   7.069  16.923  0.00  0.00    +0.000 HD
ENDROOT
BRANCH   2   5
ATOM      5  C   UNL     1       6.858   4.526  17.457  0.00  0.00    +0.000 C 
ATOM      6  C   UNL     1       6.538   4.902  15.991  0.00  0.00    +0.000 C 
ATOM      7  C   UNL     1       5.255   4.091  16.183  0.00  0.00    +0.000 C 
ATOM      8  N   UNL     1       5.367   4.264  17.671  0.00  0.00    +0.000 NA
BRANCH   8   9
ATOM      9  S   UNL     1       4.347   5.327  18.534  0.00  0.00    +0.000 S 
ATOM     10  O   UNL     1       5.033   5.681  19.747  0.00  0.00    +0.000 OA
ATOM     11  O   UNL     1       3.852   6.324  17.611  0.00  0.00    +0.000 OA
BRANCH   9  12
ATOM     12  C   UNL     1       2.998   4.242  18.974  0.00  0.00    +0.000 A 
ATOM     13  C   UNL     1       1.905   4.771  19.674  0.00  0.00    +0.000 A 
ATOM     14  C   UNL     1       0.851   3.936  20.038  0.00  0.00    +0.000 A 
ATOM     15  C   UNL     1       0.881   2.581  19.695  0.00  0.00    +0.000 A 
ATOM     16  C   UNL     1       1.963   2.065  18.987  0.00  0.00    +0.000 A 
ATOM     17  C   UNL     1       3.026   2.895  18.616  0.00  0.00    +0.000 A 
ENDBRANCH   9  12
ENDBRANCH   8   9
ENDBRANCH   2   5
BRANCH   1  18
ATOM     18  C   UNL     1       8.263   7.958  18.521  0.00  0.00    +0.000 C 
BRANCH  18  19
ATOM     19  C   UNL     1       8.552   9.141  17.598  0.00  0.00    +0.000 C 
BRANCH  19  23
ATOM     20  C   UNL     1       9.191  12.769  19.809  0.00  0.00    +0.000 A 
ATOM     21  C   UNL     1       8.790  12.846  18.472  0.00  0.00    +0.000 A 
ATOM     22  C   UNL     1       8.600  11.664  17.751  0.00  0.00    +0.000 A 
ATOM     23  C   UNL     1       8.807  10.417  18.360  0.00  0.00    +0.000 A 
ATOM     24  C   UNL     1       9.243  10.362  19.692  0.00  0.00    +0.000 A 
ATOM     25  C   UNL     1       9.433  11.535  20.415  0.00  0.00    +0.000 A 
BRANCH  20  26
ATOM     26  S   UNL     1       9.315  14.242  20.775  0.00  0.00    +0.000 S 
ATOM     27  O   UNL     1      10.565  14.233  21.493  0.00  0.00    +0.000 OA
ATOM     28  O   UNL     1       8.047  14.496  21.428  0.00  0.00    +0.000 OA
BRANCH  26  29
ATOM     29  N   UNL     1       9.436  15.425  19.587  0.00  0.00    +0.000 NA
ATOM     30  H   UNL     1       9.351  16.345  20.016  0.00  0.00    +0.000 HD
ATOM     31  H   UNL     1       8.765  15.251  18.840  0.00  0.00    +0.000 HD
ENDBRANCH  26  29
ENDBRANCH  20  26
ENDBRANCH  19  23
ENDBRANCH  18  19
ENDBRANCH   1  18
TORSDOF 8
ENDMDL
MODEL 8
REMARK VINA RESULT:      -7.6      7.404     10.041
REMARK  Name = 
REMARK  8 active torsions:
REMARK  status: ('A' for Active; 'I' for Inactive)
REMARK    1  A    between atoms: N_1  and  S_2
REMARK    2  A    between atoms: S_2  and  C_5
REMARK    3  A    between atoms: C_8  and  C_9
REMARK    4  A    between atoms: C_9  and  C_10
REMARK    5  A    between atoms: C_10  and  N_11
REMARK    6  A    between atoms: C_12  and  C_14
REMARK    7  A    between atoms: N_17  and  S_18
REMARK    8  A    between atoms: S_18  and  C_21
REMARK                            x       y       z     vdW  Elec       q    Type
REMARK                         _______ _______ _______ _____ _____    ______ ____
ROOT
ATOM      1  N   UNL     1       0.740   8.911  20.199  0.00  0.00    +0.000 N 
ATOM      2  C   UNL     1       0.595  10.070  19.459  0.00  0.00    +0.000 C 
ATOM      3  O   UNL     1       1.529  10.503  18.775  0.00  0.00    +0.000 OA
ATOM      4  H   UNL     1       0.004   8.654  20.855  0.00  0.00    +0.000 HD
ENDROOT
BRANCH   2   5
ATOM      5  C   UNL     1      -0.821  10.721  19.482  0.00  0.00    +0.000 C 
ATOM      6  C   UNL     1      -0.975  12.048  18.703  0.00  0.00    +0.000 C 
ATOM      7  C   UNL     1      -2.001  12.426  19.774  0.00  0.00    +0.000 C 
ATOM      8  N   UNL     1      -1.387  11.428  20.714  0.00  0.00    +0.000 NA
BRANCH   8   9
ATOM      9  S   UNL     1      -0.423  11.911  22.038  0.00  0.00    +0.000 S 
ATOM     10  O   UNL     1      -0.020  10.715  22.727  0.00  0.00    +0.000 OA
ATOM     11  O   UNL     1       0.533  12.888  21.566  0.00  0.00    +0.000 OA
BRANCH   9  12
ATOM     12  C   UNL     1      -1.625  12.745  23.064  0.00  0.00    +0.000 A 
ATOM     13  C   UNL     1      -1.331  14.029  23.543  0.00  0.00    +0.000 A 
ATOM     14  C   UNL     1      -2.251  14.687  24.356  0.00  0.00    +0.000 A 
ATOM     15  C   UNL     1      -3.464  14.073  24.680  0.00  0.00    +0.000 A 
ATOM     16  C   UNL     1      -3.757  12.803  24.189  0.00  0.00    +0.000 A 
ATOM     17  C   UNL     1      -2.840  12.134  23.371  0.00  0.00    +0.000 A 
ENDBRANCH   9  12
ENDBRANCH   8   9
ENDBRANCH   2   5
BRANCH   1  18
ATOM     18  C   UNL     1       2.013   8.222  20.260  0.00  0.00    +0.000 C 
BRANCH  18  19
ATOM     19  C   UNL     1       1.885   6.739  19.914  0.00  0.00    +0.000 C 
BRANCH  19  23
ATOM     20  C   UNL     1       5.345   5.313  17.803  0.00  0.00    +0.000 A 
ATOM     21  C   UNL     1       4.609   6.376  17.269  0.00  0.00    +0.000 A 
ATOM     22  C   UNL     1       3.474   6.825  17.950  0.00  0.00    +0.000 A 
ATOM     23  C   UNL     1       3.079   6.220  19.152  0.00  0.00    +0.000 A 
ATOM     24  C   UNL     1       3.810   5.133  19.653  0.00  0.00    +0.000 A 
ATOM     25  C   UNL     1       4.941   4.682  18.980  0.00  0.00    +0.000 A 
BRANCH  20  26
ATOM     26  S   UNL     1       6.851   4.811  17.029  0.00  0.00    +0.000 S 
ATOM     27  O   UNL     1       6.544   3.978  15.893  0.00  0.00    +0.000 OA
ATOM     28  O   UNL     1       7.805   4.418  18.045  0.00  0.00    +0.000 OA
BRANCH  26  29
ATOM     29  N   UNL     1       7.432   6.269  16.429  0.00  0.00    +0.000 NA
ATOM     30  H   UNL     1       8.402   6.154  16.140  0.00  0.00    +0.000 HD
ATOM     31  H   UNL     1       7.287   7.018  17.104  0.00  0.00    +0.000 HD
ENDBRANCH  26  29
ENDBRANCH  20  26
ENDBRANCH  19  23
ENDBRANCH  18  19
ENDBRANCH   1  18
TORSDOF 8
ENDMDL
MODEL 9
REMARK VINA RESULT:      -7.6      1.615      2.085
REMARK  Name = 
REMARK  8 active torsions:
REMARK  status: ('A' for Active; 'I' for Inactive)
REMARK    1  A    between atoms: N_1  and  S_2
REMARK    2  A    between atoms: S_2  and  C_5
REMARK    3  A    between atoms: C_8  and  C_9
REMARK    4  A    between atoms: C_9  and  C_10
REMARK    5  A    between atoms: C_10  and  N_11
REMARK    6  A    between atoms: C_12  and  C_14
REMARK    7  A    between atoms: N_17  and  S_18
REMARK    8  A    between atoms: S_18  and  C_21
REMARK                            x       y       z     vdW  Elec       q    Type
REMARK                         _______ _______ _______ _____ _____    ______ ____
ROOT
ATOM      1  N   UNL     1       7.424   6.905  17.756  0.00  0.00    +0.000 N 
ATOM      2  C   UNL     1       6.409   6.416  16.952  0.00  0.00    +0.000 C 
ATOM      3  O   UNL     1       5.896   7.128  16.082  0.00  0.00    +0.000 OA
ATOM      4  H   UNL     1       7.732   6.344  18.549  0.00  0.00    +0.000 HD
ENDROOT
BRANCH   2   5
ATOM      5  C   UNL     1       6.036   4.917  17.161  0.00  0.00    +0.000 C 
ATOM      6  C   UNL     1       5.344   4.214  15.971  0.00  0.00    +0.000 C 
ATOM      7  C   UNL     1       4.602   3.397  17.032  0.00  0.00    +0.000 C 
ATOM      8  N   UNL     1       4.873   4.470  18.047  0.00  0.00    +0.000 NA
BRANCH   8   9
ATOM      9  S   UNL     1       3.648   5.531  18.585  0.00  0.00    +0.000 S 
ATOM     10  O   UNL     1       4.257   6.445  19.513  0.00  0.00    +0.000 OA
ATOM     11  O   UNL     1       2.907   5.987  17.430  0.00  0.00    +0.000 OA
BRANCH   9  12
ATOM     12  C   UNL     1       2.608   4.422  19.524  0.00  0.00    +0.000 A 
ATOM     13  C   UNL     1       2.865   4.249  20.891  0.00  0.00    +0.000 A 
ATOM     14  C   UNL     1       2.074   3.377  21.635  0.00  0.00    +0.000 A 
ATOM     15  C   UNL     1       1.022   2.690  21.021  0.00  0.00    +0.000 A 
ATOM     16  C   UNL     1       0.763   2.878  19.666  0.00  0.00    +0.000 A 
ATOM     17  C   UNL     1       1.551   3.751  18.910  0.00  0.00    +0.000 A 
ENDBRANCH   9  12
ENDBRANCH   8   9
ENDBRANCH   2   5
BRANCH   1  18
ATOM     18  C   UNL     1       7.851   8.286  17.657  0.00  0.00    +0.000 C 
BRANCH  18  19
ATOM     19  C   UNL     1       8.799   8.681  18.788  0.00  0.00    +0.000 C 
BRANCH  19  23
ATOM     20  C   UNL     1       9.473  12.920  18.986  0.00  0.00    +0.000 A 
ATOM     21  C   UNL     1       9.723  12.135  20.116  0.00  0.00    +0.000 A 
ATOM     22  C   UNL     1       9.486  10.759  20.053  0.00  0.00    +0.000 A 
ATOM     23  C   UNL     1       9.005  10.172  18.873  0.00  0.00    +0.000 A 
ATOM     24  C   UNL     1       8.727  10.982  17.761  0.00  0.00    +0.000 A 
ATOM     25  C   UNL     1       8.962  12.351  17.818  0.00  0.00    +0.000 A 
BRANCH  20  26
ATOM     26  S   UNL     1       9.883  14.637  19.000  0.00  0.00    +0.000 S 
ATOM     27  O   UNL     1       8.957  15.352  18.158  0.00  0.00    +0.000 OA
ATOM     28  O   UNL     1      11.319  14.788  18.880  0.00  0.00    +0.000 OA
BRANCH  26  29
ATOM     29  N   UNL     1       9.535  15.061  20.589  0.00  0.00    +0.000 NA
ATOM     30  H   UNL     1       8.683  14.589  20.886  0.00  0.00    +0.000 HD
ATOM     31  H   UNL     1       9.504  16.074  20.690  0.00  0.00    +0.000 HD
ENDBRANCH  26  29
ENDBRANCH  20  26
ENDBRANCH  19  23
ENDBRANCH  18  19
ENDBRANCH   1  18
TORSDOF 8
ENDMDL
