MODEL 1
REMARK VINA RESULT:      -7.9      0.000      0.000
REMARK  Name = 
REMARK  11 active torsions:
REMARK  status: ('A' for Active; 'I' for Inactive)
REMARK    1  A    between atoms: C_1  and  C_2
REMARK    2  A    between atoms: C_2  and  C_3
REMARK    3  A    between atoms: C_3  and  C_4
REMARK    4  A    between atoms: C_4  and  C_5
REMARK    5  A    between atoms: C_5  and  C_6
REMARK    6  A    between atoms: C_6  and  O_7
REMARK    7  A    between atoms: C_6  and  C_8
REMARK    8  A    between atoms: C_6  and  C_14
REMARK    9  A    between atoms: C_14  and  C_15
REMARK   10  A    between atoms: C_14  and  C_22
REMARK   11  A    between atoms: C_15  and  N_16
REMARK                            x       y       z     vdW  Elec       q    Type
REMARK                         _______ _______ _______ _____ _____    ______ ____
ROOT
ATOM      1  C   UNL     1       5.252   4.833  17.199  0.00  0.00    +0.000 C 
ENDROOT
BRANCH   1   2
ATOM      2  C   UNL     1       6.253   5.866  17.793  0.00  0.00    +0.000 A 
ATOM      3  C   UNL     1       6.487   7.096  17.136  0.00  0.00    +0.000 A 
ATOM      4  C   UNL     1       7.503   7.965  17.538  0.00  0.00    +0.000 A 
ATOM      5  C   UNL     1       8.348   7.603  18.575  0.00  0.00    +0.000 A 
ATOM      6  C   UNL     1       8.144   6.403  19.246  0.00  0.00    +0.000 A 
ATOM      7  C   UNL     1       7.089   5.560  18.881  0.00  0.00    +0.000 A 
ENDBRANCH   1   2
BRANCH   1   8
ATOM      8  O   UNL     1       5.816   3.514  17.053  0.00  0.00    +0.000 OA
ATOM      9  H   UNL     1       5.744   3.043  17.882  0.00  0.00    +0.000 HD
ENDBRANCH   1   8
BRANCH   1  10
ATOM     10  C   UNL     1       4.948   5.328  15.744  0.00  0.00    +0.000 C 
BRANCH  10  11
ATOM     11  C   UNL     1       5.271   4.321  14.626  0.00  0.00    +0.000 C 
BRANCH  11  12
ATOM     12  C   UNL     1       6.586   4.636  13.923  0.00  0.00    +0.000 C 
BRANCH  12  14
ATOM     13  C   UNL     1       5.353   3.340  12.158  0.00  0.00    +0.000 C 
ATOM     14  C   UNL     1       6.714   3.781  12.662  0.00  0.00    +0.000 C 
ENDBRANCH  12  14
ENDBRANCH  11  12
ENDBRANCH  10  11
ENDBRANCH   1  10
BRANCH   1  15
ATOM     15  C   UNL     1       3.953   4.676  18.107  0.00  0.00    +0.000 C 
BRANCH  15  16
ATOM     16  C   UNL     1       3.236   6.023  18.348  0.00  0.00    +0.000 A 
ATOM     17  C   UNL     1       3.149   6.975  17.316  0.00  0.00    +0.000 A 
ATOM     18  C   UNL     1       2.598   8.237  17.551  0.00  0.00    +0.000 A 
ATOM     19  C   UNL     1       2.109   8.564  18.816  0.00  0.00    +0.000 A 
ATOM     20  C   UNL     1       2.143   7.617  19.834  0.00  0.00    +0.000 A 
ATOM     21  C   UNL     1       2.689   6.357  19.598  0.00  0.00    +0.000 A 
ENDBRANCH  15  16
BRANCH  15  22
ATOM     22  C   UNL     1       4.152   3.971  19.481  0.00  0.00    +0.000 C 
BRANCH  22  23
ATOM     23  N   UNL     1       3.544   2.634  19.620  0.00  0.00    +0.000 NA
ATOM     24  C   UNL     1       2.299   2.432  18.853  0.00  0.00    +0.000 C 
ATOM     25  C   UNL     1       1.093   3.166  19.446  0.00  0.00    +0.000 C 
ATOM     26  O   UNL     1       0.875   2.777  20.808  0.00  0.00    +0.000 OA
ATOM     27  C   UNL     1       2.045   3.010  21.605  0.00  0.00    +0.000 C 
ATOM     28  C   UNL     1       3.277   2.292  21.031  0.00  0.00    +0.000 C 
ENDBRANCH  22  23
ENDBRANCH  15  22
ENDBRANCH   1  15
TORSDOF 10
ENDMDL
MODEL 2
REMARK VINA RESULT:      -7.6      0.769      1.547
REMARK  Name = 
REMARK  11 active torsions:
REMARK  status: ('A' for Active; 'I' for Inactive)
REMARK    1  A    between atoms: C_1  and  C_2
REMARK    2  A    between atoms: C_2  and  C_3
REMARK    3  A    between atoms: C_3  and  C_4
REMARK    4  A    between atoms: C_4  and  C_5
REMARK    5  A    between atoms: C_5  and  C_6
REMARK    6  A    between atoms: C_6  and  O_7
REMARK    7  A    between atoms: C_6  and  C_8
REMARK    8  A    between atoms: C_6  and  C_14
REMARK    9  A    between atoms: C_14  and  C_15
REMARK   10  A    between atoms: C_14  and  C_22
REMARK   11  A    between atoms: C_15  and  N_16
REMARK                            x       y       z     vdW  Elec       q    Type
REMARK                         _______ _______ _______ _____ _____    ______ ____
ROOT
ATOM      1  C   UNL     1       5.514   4.612  16.657  0.00  0.00    +0.000 C 
ENDROOT
BRANCH   1   2
ATOM      2  C   UNL     1       6.582   5.531  17.321  0.00  0.00    +0.000 A 
ATOM      3  C   UNL     1       7.194   5.154  18.538  0.00  0.00    +0.000 A 
ATOM      4  C   UNL     1       8.017   6.027  19.250  0.00  0.00    +0.000 A 
ATOM      5  C   UNL     1       8.209   7.321  18.792  0.00  0.00    +0.000 A 
ATOM      6  C   UNL     1       7.626   7.724  17.597  0.00  0.00    +0.000 A 
ATOM      7  C   UNL     1       6.848   6.830  16.853  0.00  0.00    +0.000 A 
ENDBRANCH   1   2
BRANCH   1   8
ATOM      8  O   UNL     1       5.988   3.272  16.418  0.00  0.00    +0.000 OA
ATOM      9  H   UNL     1       6.228   3.179  15.497  0.00  0.00    +0.000 HD
ENDBRANCH   1   8
BRANCH   1  10
ATOM     10  C   UNL     1       5.250   5.227  15.241  0.00  0.00    +0.000 C 
BRANCH  10  11
ATOM     11  C   UNL     1       6.118   4.660  14.105  0.00  0.00    +0.000 C 
BRANCH  11  12
ATOM     12  C   UNL     1       5.303   3.866  13.091  0.00  0.00    +0.000 C 
BRANCH  12  14
ATOM     13  C   UNL     1       5.767   1.953  11.528  0.00  0.00    +0.000 C 
ATOM     14  C   UNL     1       6.226   3.318  12.003  0.00  0.00    +0.000 C 
ENDBRANCH  12  14
ENDBRANCH  11  12
ENDBRANCH  10  11
ENDBRANCH   1  10
BRANCH   1  15
ATOM     15  C   UNL     1       4.205   4.482  17.554  0.00  0.00    +0.000 C 
BRANCH  15  16
ATOM     16  C   UNL     1       3.626   5.856  17.957  0.00  0.00    +0.000 A 
ATOM     17  C   UNL     1       3.103   6.055  19.247  0.00  0.00    +0.000 A 
ATOM     18  C   UNL     1       2.481   7.258  19.590  0.00  0.00    +0.000 A 
ATOM     19  C   UNL     1       2.386   8.289  18.656  0.00  0.00    +0.000 A 
ATOM     20  C   UNL     1       2.942   8.126  17.391  0.00  0.00    +0.000 A 
ATOM     21  C   UNL     1       3.566   6.928  17.050  0.00  0.00    +0.000 A 
ENDBRANCH  15  16
BRANCH  15  22
ATOM     22  C   UNL     1       4.329   3.604  18.834  0.00  0.00    +0.000 C 
BRANCH  22  23
ATOM     23  N   UNL     1       3.578   2.334  18.827  0.00  0.00    +0.000 NA
ATOM     24  C   UNL     1       2.429   2.293  17.901  0.00  0.00    +0.000 C 
ATOM     25  C   UNL     1       1.235   3.127  18.377  0.00  0.00    +0.000 C 
ATOM     26  O   UNL     1       0.805   2.712  19.678  0.00  0.00    +0.000 OA
ATOM     27  C   UNL     1       1.879   2.790  20.626  0.00  0.00    +0.000 C 
ATOM     28  C   UNL     1       3.098   1.968  20.174  0.00  0.00    +0.000 C 
ENDBRANCH  22  23
ENDBRANCH  15  22
ENDBRANCH   1  15
TORSDOF 10
ENDMDL
MODEL 3
REMARK VINA RESULT:      -7.6      0.473      1.226
REMARK  Name = 
REMARK  11 active torsions:
REMARK  status: ('A' for Active; 'I' for Inactive)
REMARK    1  A    between atoms: C_1  and  C_2
REMARK    2  A    between atoms: C_2  and  C_3
REMARK    3  A    between atoms: C_3  and  C_4
REMARK    4  A    between atoms: C_4  and  C_5
REMARK    5  A    between atoms: C_5  and  C_6
REMARK    6  A    between atoms: C_6  and  O_7
REMARK    7  A    between atoms: C_6  and  C_8
REMARK    8  A    between atoms: C_6  and  C_14
REMARK    9  A    between atoms: C_14  and  C_15
REMARK   10  A    between atoms: C_14  and  C_22
REMARK   11  A    between atoms: C_15  and  N_16
REMARK                            x       y       z     vdW  Elec       q    Type
REMARK                         _______ _______ _______ _____ _____    ______ ____
ROOT
ATOM      1  C   UNL     1       5.367   4.915  17.172  0.00  0.00    +0.000 C 
ENDROOT
BRANCH   1   2
ATOM      2  C   UNL     1       6.340   5.983  17.754  0.00  0.00    +0.000 A 
ATOM      3  C   UNL     1       6.577   7.190  17.057  0.00  0.00    +0.000 A 
ATOM      4  C   UNL     1       7.571   8.087  17.454  0.00  0.00    +0.000 A 
ATOM      5  C   UNL     1       8.391   7.776  18.527  0.00  0.00    +0.000 A 
ATOM      6  C   UNL     1       8.182   6.600  19.237  0.00  0.00    +0.000 A 
ATOM      7  C   UNL     1       7.148   5.729  18.876  0.00  0.00    +0.000 A 
ENDBRANCH   1   2
BRANCH   1   8
ATOM      8  O   UNL     1       5.947   3.596  17.106  0.00  0.00    +0.000 OA
ATOM      9  H   UNL     1       6.635   3.518  17.765  0.00  0.00    +0.000 HD
ENDBRANCH   1   8
BRANCH   1  10
ATOM     10  C   UNL     1       5.112   5.341  15.687  0.00  0.00    +0.000 C 
BRANCH  10  11
ATOM     11  C   UNL     1       4.930   4.182  14.692  0.00  0.00    +0.000 C 
BRANCH  11  12
ATOM     12  C   UNL     1       5.990   4.184  13.596  0.00  0.00    +0.000 C 
BRANCH  12  14
ATOM     13  C   UNL     1       8.039   5.470  12.913  0.00  0.00    +0.000 C 
ATOM     14  C   UNL     1       7.228   4.939  14.080  0.00  0.00    +0.000 C 
ENDBRANCH  12  14
ENDBRANCH  11  12
ENDBRANCH  10  11
ENDBRANCH   1  10
BRANCH   1  15
ATOM     15  C   UNL     1       4.039   4.788  18.041  0.00  0.00    +0.000 C 
BRANCH  15  16
ATOM     16  C   UNL     1       3.372   6.157  18.302  0.00  0.00    +0.000 A 
ATOM     17  C   UNL     1       2.818   6.446  19.562  0.00  0.00    +0.000 A 
ATOM     18  C   UNL     1       2.120   7.637  19.780  0.00  0.00    +0.000 A 
ATOM     19  C   UNL     1       1.977   8.565  18.749  0.00  0.00    +0.000 A 
ATOM     20  C   UNL     1       2.560   8.315  17.511  0.00  0.00    +0.000 A 
ATOM     21  C   UNL     1       3.260   7.130  17.295  0.00  0.00    +0.000 A 
ENDBRANCH  15  16
BRANCH  15  22
ATOM     22  C   UNL     1       4.170   4.035  19.398  0.00  0.00    +0.000 C 
BRANCH  22  23
ATOM     23  N   UNL     1       3.538   2.704  19.466  0.00  0.00    +0.000 NA
ATOM     24  C   UNL     1       2.230   2.597  18.790  0.00  0.00    +0.000 C 
ATOM     25  C   UNL     1       1.097   3.297  19.546  0.00  0.00    +0.000 C 
ATOM     26  O   UNL     1       0.979   2.790  20.880  0.00  0.00    +0.000 OA
ATOM     27  C   UNL     1       2.216   2.926  21.594  0.00  0.00    +0.000 C 
ATOM     28  C   UNL     1       3.377   2.238  20.857  0.00  0.00    +0.000 C 
ENDBRANCH  22  23
ENDBRANCH  15  22
ENDBRANCH   1  15
TORSDOF 10
ENDMDL
MODEL 4
REMARK VINA RESULT:      -7.5      0.558      1.111
REMARK  Name = 
REMARK  11 active torsions:
REMARK  status: ('A' for Active; 'I' for Inactive)
REMARK    1  A    between atoms: C_1  and  C_2
REMARK    2  A    between atoms: C_2  and  C_3
REMARK    3  A    between atoms: C_3  and  C_4
REMARK    4  A    between atoms: C_4  and  C_5
REMARK    5  A    between atoms: C_5  and  C_6
REMARK    6  A    between atoms: C_6  and  O_7
REMARK    7  A    between atoms: C_6  and  C_8
REMARK    8  A    between atoms: C_6  and  C_14
REMARK    9  A    between atoms: C_14  and  C_15
REMARK   10  A    between atoms: C_14  and  C_22
REMARK   11  A    between atoms: C_15  and  N_16
REMARK                            x       y       z     vdW  Elec       q    Type
REMARK                         _______ _______ _______ _____ _____    ______ ____
ROOT
ATOM      1  C   UNL     1       5.256   4.630  17.456  0.00  0.00    +0.000 C 
ENDROOT
BRANCH   1   2
ATOM      2  C   UNL     1       6.225   5.764  17.900  0.00  0.00    +0.000 A 
ATOM      3  C   UNL     1       6.407   6.909  17.092  0.00  0.00    +0.000 A 
ATOM      4  C   UNL     1       7.394   7.857  17.366  0.00  0.00    +0.000 A 
ATOM      5  C   UNL     1       8.263   7.659  18.428  0.00  0.00    +0.000 A 
ATOM      6  C   UNL     1       8.110   6.546  19.247  0.00  0.00    +0.000 A 
ATOM      7  C   UNL     1       7.083   5.626  19.006  0.00  0.00    +0.000 A 
ENDBRANCH   1   2
BRANCH   1   8
ATOM      8  O   UNL     1       5.819   3.310  17.607  0.00  0.00    +0.000 OA
ATOM      9  H   UNL     1       6.026   3.157  18.528  0.00  0.00    +0.000 HD
ENDBRANCH   1   8
BRANCH   1  10
ATOM     10  C   UNL     1       5.052   4.829  15.916  0.00  0.00    +0.000 C 
BRANCH  10  11
ATOM     11  C   UNL     1       5.824   3.847  15.017  0.00  0.00    +0.000 C 
BRANCH  11  12
ATOM     12  C   UNL     1       6.049   4.399  13.614  0.00  0.00    +0.000 C 
BRANCH  12  14
ATOM     13  C   UNL     1       5.832   2.637  11.834  0.00  0.00    +0.000 C 
ATOM     14  C   UNL     1       5.106   3.705  12.631  0.00  0.00    +0.000 C 
ENDBRANCH  12  14
ENDBRANCH  11  12
ENDBRANCH  10  11
ENDBRANCH   1  10
BRANCH   1  15
ATOM     15  C   UNL     1       3.900   4.647  18.291  0.00  0.00    +0.000 C 
BRANCH  15  16
ATOM     16  C   UNL     1       3.314   6.070  18.433  0.00  0.00    +0.000 A 
ATOM     17  C   UNL     1       2.726   6.476  19.644  0.00  0.00    +0.000 A 
ATOM     18  C   UNL     1       2.098   7.720  19.752  0.00  0.00    +0.000 A 
ATOM     19  C   UNL     1       2.062   8.585  18.659  0.00  0.00    +0.000 A 
ATOM     20  C   UNL     1       2.681   8.217  17.469  0.00  0.00    +0.000 A 
ATOM     21  C   UNL     1       3.311   6.979  17.362  0.00  0.00    +0.000 A 
ENDBRANCH  15  16
BRANCH  15  22
ATOM     22  C   UNL     1       3.949   3.990  19.702  0.00  0.00    +0.000 C 
BRANCH  22  23
ATOM     23  N   UNL     1       3.366   2.639  19.809  0.00  0.00    +0.000 NA
ATOM     24  C   UNL     1       2.572   2.206  18.643  0.00  0.00    +0.000 C 
ATOM     25  C   UNL     1       1.214   2.906  18.539  0.00  0.00    +0.000 C 
ATOM     26  O   UNL     1       0.443   2.711  19.730  0.00  0.00    +0.000 OA
ATOM     27  C   UNL     1       1.156   3.172  20.886  0.00  0.00    +0.000 C 
ATOM     28  C   UNL     1       2.529   2.493  21.017  0.00  0.00    +0.000 C 
ENDBRANCH  22  23
ENDBRANCH  15  22
ENDBRANCH   1  15
TORSDOF 10
ENDMDL
MODEL 5
REMARK VINA RESULT:      -7.5      1.326      4.931
REMARK  Name = 
REMARK  11 active torsions:
REMARK  status: ('A' for Active; 'I' for Inactive)
REMARK    1  A    between atoms: C_1  and  C_2
REMARK    2  A    between atoms: C_2  and  C_3
REMARK    3  A    between atoms: C_3  and  C_4
REMARK    4  A    between atoms: C_4  and  C_5
REMARK    5  A    between atoms: C_5  and  C_6
REMARK    6  A    between atoms: C_6  and  O_7
REMARK    7  A    between atoms: C_6  and  C_8
REMARK    8  A    between atoms: C_6  and  C_14
REMARK    9  A    between atoms: C_14  and  C_15
REMARK   10  A    between atoms: C_14  and  C_22
REMARK   11  A    between atoms: C_15  and  N_16
REMARK                            x       y       z     vdW  Elec       q    Type
REMARK                         _______ _______ _______ _____ _____    ______ ____
ROOT
ATOM      1  C   UNL     1       5.474   5.780  18.029  0.00  0.00    +0.000 C 
ENDROOT
BRANCH   1   2
ATOM      2  C   UNL     1       4.116   6.504  18.267  0.00  0.00    +0.000 A 
ATOM      3  C   UNL     1       3.687   7.528  17.391  0.00  0.00    +0.000 A 
ATOM      4  C   UNL     1       2.571   8.318  17.672  0.00  0.00    +0.000 A 
ATOM      5  C   UNL     1       1.883   8.141  18.861  0.00  0.00    +0.000 A 
ATOM      6  C   UNL     1       2.274   7.140  19.743  0.00  0.00    +0.000 A 
ATOM      7  C   UNL     1       3.357   6.310  19.435  0.00  0.00    +0.000 A 
ENDBRANCH   1   2
BRANCH   1   8
ATOM      8  O   UNL     1       6.224   5.568  19.242  0.00  0.00    +0.000 OA
ATOM      9  H   UNL     1       6.637   4.706  19.213  0.00  0.00    +0.000 HD
ENDBRANCH   1   8
BRANCH   1  10
ATOM     10  C   UNL     1       6.332   6.766  17.166  0.00  0.00    +0.000 C 
BRANCH  10  11
ATOM     11  C   UNL     1       7.604   7.301  17.848  0.00  0.00    +0.000 C 
BRANCH  11  12
ATOM     12  C   UNL     1       7.747   8.812  17.705  0.00  0.00    +0.000 C 
BRANCH  12  14
ATOM     13  C   UNL     1       9.285  10.706  18.311  0.00  0.00    +0.000 C 
ATOM     14  C   UNL     1       8.789   9.326  18.699  0.00  0.00    +0.000 C 
ENDBRANCH  12  14
ENDBRANCH  11  12
ENDBRANCH  10  11
ENDBRANCH   1  10
BRANCH   1  15
ATOM     15  C   UNL     1       5.273   4.350  17.359  0.00  0.00    +0.000 C 
BRANCH  15  16
ATOM     16  C   UNL     1       5.776   4.306  15.899  0.00  0.00    +0.000 A 
ATOM     17  C   UNL     1       7.119   4.599  15.603  0.00  0.00    +0.000 A 
ATOM     18  C   UNL     1       7.562   4.667  14.279  0.00  0.00    +0.000 A 
ATOM     19  C   UNL     1       6.675   4.428  13.230  0.00  0.00    +0.000 A 
ATOM     20  C   UNL     1       5.355   4.090  13.508  0.00  0.00    +0.000 A 
ATOM     21  C   UNL     1       4.914   4.018  14.828  0.00  0.00    +0.000 A 
ENDBRANCH  15  16
BRANCH  15  22
ATOM     22  C   UNL     1       3.831   3.764  17.401  0.00  0.00    +0.000 C 
BRANCH  22  23
ATOM     23  N   UNL     1       3.698   2.403  17.954  0.00  0.00    +0.000 NA
ATOM     24  C   UNL     1       2.340   1.829  17.886  0.00  0.00    +0.000 C 
ATOM     25  C   UNL     1       1.366   2.453  18.890  0.00  0.00    +0.000 C 
ATOM     26  O   UNL     1       1.861   2.332  20.229  0.00  0.00    +0.000 OA
ATOM     27  C   UNL     1       3.159   2.928  20.355  0.00  0.00    +0.000 C 
ATOM     28  C   UNL     1       4.161   2.328  19.354  0.00  0.00    +0.000 C 
ENDBRANCH  22  23
ENDBRANCH  15  22
ENDBRANCH   1  15
TORSDOF 10
ENDMDL
MODEL 6
REMARK VINA RESULT:      -7.4      1.534      3.915
REMARK  Name = 
REMARK  11 active torsions:
REMARK  status: ('A' for Active; 'I' for Inactive)
REMARK    1  A    between atoms: C_1  and  C_2
REMARK    2  A    between atoms: C_2  and  C_3
REMARK    3  A    between atoms: C_3  and  C_4
REMARK    4  A    between atoms: C_4  and  C_5
REMARK    5  A    between atoms: C_5  and  C_6
REMARK    6  A    between atoms: C_6  and  O_7
REMARK    7  A    between atoms: C_6  and  C_8
REMARK    8  A    between atoms: C_6  and  C_14
REMARK    9  A    between atoms: C_14  and  C_15
REMARK   10  A    between atoms: C_14  and  C_22
REMARK   11  A    between atoms: C_15  and  N_16
REMARK                            x       y       z     vdW  Elec       q    Type
REMARK                         _______ _______ _______ _____ _____    ______ ____
ROOT
ATOM      1  C   UNL     1       4.582   6.344  17.693  0.00  0.00    +0.000 C 
ENDROOT
BRANCH   1   2
ATOM      2  C   UNL     1       4.997   5.470  16.473  0.00  0.00    +0.000 A 
ATOM      3  C   UNL     1       5.008   4.060  16.574  0.00  0.00    +0.000 A 
ATOM      4  C   UNL     1       5.542   3.254  15.566  0.00  0.00    +0.000 A 
ATOM      5  C   UNL     1       6.126   3.838  14.454  0.00  0.00    +0.000 A 
ATOM      6  C   UNL     1       6.128   5.221  14.320  0.00  0.00    +0.000 A 
ATOM      7  C   UNL     1       5.541   6.027  15.302  0.00  0.00    +0.000 A 
ENDBRANCH   1   2
BRANCH   1   8
ATOM      8  O   UNL     1       4.730   7.758  17.454  0.00  0.00    +0.000 OA
ATOM      9  H   UNL     1       5.514   8.076  17.900  0.00  0.00    +0.000 HD
ENDBRANCH   1   8
BRANCH   1  10
ATOM     10  C   UNL     1       5.605   5.997  18.827  0.00  0.00    +0.000 C 
BRANCH  10  11
ATOM     11  C   UNL     1       7.042   5.714  18.354  0.00  0.00    +0.000 C 
BRANCH  11  12
ATOM     12  C   UNL     1       8.000   6.849  18.695  0.00  0.00    +0.000 C 
BRANCH  12  14
ATOM     13  C   UNL     1       8.407   9.269  18.150  0.00  0.00    +0.000 C 
ATOM     14  C   UNL     1       7.915   7.934  17.622  0.00  0.00    +0.000 C 
ENDBRANCH  12  14
ENDBRANCH  11  12
ENDBRANCH  10  11
ENDBRANCH   1  10
BRANCH   1  15
ATOM     15  C   UNL     1       3.063   6.105  18.105  0.00  0.00    +0.000 C 
BRANCH  15  16
ATOM     16  C   UNL     1       2.365   7.404  18.565  0.00  0.00    +0.000 A 
ATOM     17  C   UNL     1       2.060   7.602  19.923  0.00  0.00    +0.000 A 
ATOM     18  C   UNL     1       1.335   8.723  20.338  0.00  0.00    +0.000 A 
ATOM     19  C   UNL     1       0.918   9.672  19.406  0.00  0.00    +0.000 A 
ATOM     20  C   UNL     1       1.253   9.515  18.065  0.00  0.00    +0.000 A 
ATOM     21  C   UNL     1       1.980   8.400  17.652  0.00  0.00    +0.000 A 
ENDBRANCH  15  16
BRANCH  15  22
ATOM     22  C   UNL     1       2.801   5.000  19.171  0.00  0.00    +0.000 C 
BRANCH  22  23
ATOM     23  N   UNL     1       1.536   4.253  19.035  0.00  0.00    +0.000 NA
ATOM     24  C   UNL     1       0.860   3.935  20.307  0.00  0.00    +0.000 C 
ATOM     25  C   UNL     1       1.557   2.830  21.106  0.00  0.00    +0.000 C 
ATOM     26  O   UNL     1       1.682   1.634  20.328  0.00  0.00    +0.000 OA
ATOM     27  C   UNL     1       2.385   1.886  19.104  0.00  0.00    +0.000 C 
ATOM     28  C   UNL     1       1.714   2.998  18.280  0.00  0.00    +0.000 C 
ENDBRANCH  22  23
ENDBRANCH  15  22
ENDBRANCH   1  15
TORSDOF 10
ENDMDL
MODEL 7
REMARK VINA RESULT:      -7.2      0.614      1.212
REMARK  Name = 
REMARK  11 active torsions:
REMARK  status: ('A' for Active; 'I' for Inactive)
REMARK    1  A    between atoms: C_1  and  C_2
REMARK    2  A    between atoms: C_2  and  C_3
REMARK    3  A    between atoms: C_3  and  C_4
REMARK    4  A    between atoms: C_4  and  C_5
REMARK    5  A    between atoms: C_5  and  C_6
REMARK    6  A    between atoms: C_6  and  O_7
REMARK    7  A    between atoms: C_6  and  C_8
REMARK    8  A    between atoms: C_6  and  C_14
REMARK    9  A    between atoms: C_14  and  C_15
REMARK   10  A    between atoms: C_14  and  C_22
REMARK   11  A    between atoms: C_15  and  N_16
REMARK                            x       y       z     vdW  Elec       q    Type
REMARK                         _______ _______ _______ _____ _____    ______ ____
ROOT
ATOM      1  C   UNL     1       5.579   4.690  16.843  0.00  0.00    +0.000 C 
ENDROOT
BRANCH   1   2
ATOM      2  C   UNL     1       6.646   5.672  17.410  0.00  0.00    +0.000 A 
ATOM      3  C   UNL     1       7.339   5.366  18.603  0.00  0.00    +0.000 A 
ATOM      4  C   UNL     1       8.166   6.297  19.235  0.00  0.00    +0.000 A 
ATOM      5  C   UNL     1       8.282   7.578  18.718  0.00  0.00    +0.000 A 
ATOM      6  C   UNL     1       7.618   7.911  17.544  0.00  0.00    +0.000 A 
ATOM      7  C   UNL     1       6.835   6.961  16.879  0.00  0.00    +0.000 A 
ENDBRANCH   1   2
BRANCH   1   8
ATOM      8  O   UNL     1       6.108   3.377  16.564  0.00  0.00    +0.000 OA
ATOM      9  H   UNL     1       5.596   2.969  15.867  0.00  0.00    +0.000 HD
ENDBRANCH   1   8
BRANCH   1  10
ATOM     10  C   UNL     1       5.157   5.280  15.456  0.00  0.00    +0.000 C 
BRANCH  10  11
ATOM     11  C   UNL     1       5.916   4.715  14.241  0.00  0.00    +0.000 C 
BRANCH  11  12
ATOM     12  C   UNL     1       5.085   3.710  13.453  0.00  0.00    +0.000 C 
BRANCH  12  14
ATOM     13  C   UNL     1       7.173   4.003  12.085  0.00  0.00    +0.000 C 
ATOM     14  C   UNL     1       5.796   3.368  12.144  0.00  0.00    +0.000 C 
ENDBRANCH  12  14
ENDBRANCH  11  12
ENDBRANCH  10  11
ENDBRANCH   1  10
BRANCH   1  15
ATOM     15  C   UNL     1       4.363   4.488  17.851  0.00  0.00    +0.000 C 
BRANCH  15  16
ATOM     16  C   UNL     1       3.598   5.803  18.123  0.00  0.00    +0.000 A 
ATOM     17  C   UNL     1       3.569   6.820  17.152  0.00  0.00    +0.000 A 
ATOM     18  C   UNL     1       2.972   8.053  17.425  0.00  0.00    +0.000 A 
ATOM     19  C   UNL     1       2.380   8.286  18.666  0.00  0.00    +0.000 A 
ATOM     20  C   UNL     1       2.358   7.273  19.620  0.00  0.00    +0.000 A 
ATOM     21  C   UNL     1       2.950   6.042  19.346  0.00  0.00    +0.000 A 
ENDBRANCH  15  16
BRANCH  15  22
ATOM     22  C   UNL     1       4.702   3.823  19.218  0.00  0.00    +0.000 C 
BRANCH  22  23
ATOM     23  N   UNL     1       4.248   2.430  19.393  0.00  0.00    +0.000 NA
ATOM     24  C   UNL     1       3.081   2.046  18.576  0.00  0.00    +0.000 C 
ATOM     25  C   UNL     1       1.766   2.654  19.070  0.00  0.00    +0.000 C 
ATOM     26  O   UNL     1       1.519   2.303  20.437  0.00  0.00    +0.000 OA
ATOM     27  C   UNL     1       2.607   2.710  21.279  0.00  0.00    +0.000 C 
ATOM     28  C   UNL     1       3.946   2.120  20.804  0.00  0.00    +0.000 C 
ENDBRANCH  22  23
ENDBRANCH  15  22
ENDBRANCH   1  15
TORSDOF 10
ENDMDL
MODEL 8
REMARK VINA RESULT:      -7.2      1.334      3.837
REMARK  Name = 
REMARK  11 active torsions:
REMARK  status: ('A' for Active; 'I' for Inactive)
REMARK    1  A    between atoms: C_1  and  C_2
REMARK    2  A    between atoms: C_2  and  C_3
REMARK    3  A    between atoms: C_3  and  C_4
REMARK    4  A    between atoms: C_4  and  C_5
REMARK    5  A    between atoms: C_5  and  C_6
REMARK    6  A    between atoms: C_6  and  O_7
REMARK    7  A    between atoms: C_6  and  C_8
REMARK    8  A    between atoms: C_6  and  C_14
REMARK    9  A    between atoms: C_14  and  C_15
REMARK   10  A    between atoms: C_14  and  C_22
REMARK   11  A    between atoms: C_15  and  N_16
REMARK                            x       y       z     vdW  Elec       q    Type
REMARK                         _______ _______ _______ _____ _____    ______ ____
ROOT
ATOM      1  C   UNL     1       4.871   6.200  17.708  0.00  0.00    +0.000 C 
ENDROOT
BRANCH   1   2
ATOM      2  C   UNL     1       5.161   5.357  16.432  0.00  0.00    +0.000 A 
ATOM      3  C   UNL     1       5.336   3.957  16.522  0.00  0.00    +0.000 A 
ATOM      4  C   UNL     1       5.772   3.197  15.435  0.00  0.00    +0.000 A 
ATOM      5  C   UNL     1       6.096   3.824  14.242  0.00  0.00    +0.000 A 
ATOM      6  C   UNL     1       5.931   5.198  14.117  0.00  0.00    +0.000 A 
ATOM      7  C   UNL     1       5.439   5.952  15.188  0.00  0.00    +0.000 A 
ENDBRANCH   1   2
BRANCH   1   8
ATOM      8  O   UNL     1       4.889   7.621  17.467  0.00  0.00    +0.000 OA
ATOM      9  H   UNL     1       5.777   7.894  17.242  0.00  0.00    +0.000 HD
ENDBRANCH   1   8
BRANCH   1  10
ATOM     10  C   UNL     1       6.068   5.920  18.679  0.00  0.00    +0.000 C 
BRANCH  10  11
ATOM     11  C   UNL     1       7.466   6.189  18.096  0.00  0.00    +0.000 C 
BRANCH  11  12
ATOM     12  C   UNL     1       7.628   7.625  17.613  0.00  0.00    +0.000 C 
BRANCH  12  14
ATOM     13  C   UNL     1       8.642   9.853  18.184  0.00  0.00    +0.000 C 
ATOM     14  C   UNL     1       8.546   8.388  18.568  0.00  0.00    +0.000 C 
ENDBRANCH  12  14
ENDBRANCH  11  12
ENDBRANCH  10  11
ENDBRANCH   1  10
BRANCH   1  15
ATOM     15  C   UNL     1       3.446   5.859  18.332  0.00  0.00    +0.000 C 
BRANCH  15  16
ATOM     16  C   UNL     1       2.644   7.128  18.697  0.00  0.00    +0.000 A 
ATOM     17  C   UNL     1       2.223   7.344  20.022  0.00  0.00    +0.000 A 
ATOM     18  C   UNL     1       1.407   8.431  20.345  0.00  0.00    +0.000 A 
ATOM     19  C   UNL     1       1.011   9.330  19.354  0.00  0.00    +0.000 A 
ATOM     20  C   UNL     1       1.459   9.157  18.048  0.00  0.00    +0.000 A 
ATOM     21  C   UNL     1       2.276   8.075  17.727  0.00  0.00    +0.000 A 
ENDBRANCH  15  16
BRANCH  15  22
ATOM     22  C   UNL     1       3.441   4.901  19.560  0.00  0.00    +0.000 C 
BRANCH  22  23
ATOM     23  N   UNL     1       2.971   3.526  19.309  0.00  0.00    +0.000 NA
ATOM     24  C   UNL     1       1.526   3.399  19.036  0.00  0.00    +0.000 C 
ATOM     25  C   UNL     1       0.654   3.589  20.281  0.00  0.00    +0.000 C 
ATOM     26  O   UNL     1       1.020   2.664  21.311  0.00  0.00    +0.000 OA
ATOM     27  C   UNL     1       2.409   2.792  21.649  0.00  0.00    +0.000 C 
ATOM     28  C   UNL     1       3.313   2.613  20.418  0.00  0.00    +0.000 C 
ENDBRANCH  22  23
ENDBRANCH  15  22
ENDBRANCH   1  15
TORSDOF 10
ENDMDL
MODEL 9
REMARK VINA RESULT:      -7.2      1.425      4.964
REMARK  Name = 
REMARK  11 active torsions:
REMARK  status: ('A' for Active; 'I' for Inactive)
REMARK    1  A    between atoms: C_1  and  C_2
REMARK    2  A    between atoms: C_2  and  C_3
REMARK    3  A    between atoms: C_3  and  C_4
REMARK    4  A    between atoms: C_4  and  C_5
REMARK    5  A    between atoms: C_5  and  C_6
REMARK    6  A    between atoms: C_6  and  O_7
REMARK    7  A    between atoms: C_6  and  C_8
REMARK    8  A    between atoms: C_6  and  C_14
REMARK    9  A    between atoms: C_14  and  C_15
REMARK   10  A    between atoms: C_14  and  C_22
REMARK   11  A    between atoms: C_15  and  N_16
REMARK                            x       y       z     vdW  Elec       q    Type
REMARK                         _______ _______ _______ _____ _____    ______ ____
ROOT
ATOM      1  C   UNL     1       5.209   6.280  16.712  0.00  0.00    +0.000 C 
ENDROOT
BRANCH   1   2
ATOM      2  C   UNL     1       6.518   6.806  17.370  0.00  0.00    +0.000 A 
ATOM      3  C   UNL     1       7.165   6.055  18.378  0.00  0.00    +0.000 A 
ATOM      4  C   UNL     1       8.233   6.574  19.113  0.00  0.00    +0.000 A 
ATOM      5  C   UNL     1       8.649   7.878  18.897  0.00  0.00    +0.000 A 
ATOM      6  C   UNL     1       8.038   8.643  17.910  0.00  0.00    +0.000 A 
ATOM      7  C   UNL     1       7.006   8.104  17.134  0.00  0.00    +0.000 A 
ENDBRANCH   1   2
BRANCH   1   8
ATOM      8  O   UNL     1       4.900   6.931  15.463  0.00  0.00    +0.000 OA
ATOM      9  H   UNL     1       4.903   6.285  14.758  0.00  0.00    +0.000 HD
ENDBRANCH   1   8
BRANCH   1  10
ATOM     10  C   UNL     1       4.054   6.675  17.694  0.00  0.00    +0.000 C 
BRANCH  10  11
ATOM     11  C   UNL     1       3.384   8.031  17.410  0.00  0.00    +0.000 C 
BRANCH  11  12
ATOM     12  C   UNL     1       1.908   8.040  17.789  0.00  0.00    +0.000 C 
BRANCH  12  14
ATOM     13  C   UNL     1       1.462   8.423  20.233  0.00  0.00    +0.000 C 
ATOM     14  C   UNL     1       1.663   9.081  18.881  0.00  0.00    +0.000 C 
ENDBRANCH  12  14
ENDBRANCH  11  12
ENDBRANCH  10  11
ENDBRANCH   1  10
BRANCH   1  15
ATOM     15  C   UNL     1       5.285   4.719  16.407  0.00  0.00    +0.000 C 
BRANCH  15  16
ATOM     16  C   UNL     1       5.812   4.420  14.986  0.00  0.00    +0.000 A 
ATOM     17  C   UNL     1       7.085   4.869  14.593  0.00  0.00    +0.000 A 
ATOM     18  C   UNL     1       7.530   4.699  13.279  0.00  0.00    +0.000 A 
ATOM     19  C   UNL     1       6.718   4.063  12.341  0.00  0.00    +0.000 A 
ATOM     20  C   UNL     1       5.476   3.569  12.726  0.00  0.00    +0.000 A 
ATOM     21  C   UNL     1       5.034   3.736  14.038  0.00  0.00    +0.000 A 
ENDBRANCH  15  16
BRANCH  15  22
ATOM     22  C   UNL     1       3.975   3.907  16.628  0.00  0.00    +0.000 C 
BRANCH  22  23
ATOM     23  N   UNL     1       4.054   2.797  17.597  0.00  0.00    +0.000 NA
ATOM     24  C   UNL     1       2.821   1.998  17.734  0.00  0.00    +0.000 C 
ATOM     25  C   UNL     1       1.706   2.726  18.490  0.00  0.00    +0.000 C 
ATOM     26  O   UNL     1       2.149   3.135  19.790  0.00  0.00    +0.000 OA
ATOM     27  C   UNL     1       3.317   3.963  19.701  0.00  0.00    +0.000 C 
ATOM     28  C   UNL     1       4.454   3.262  18.940  0.00  0.00    +0.000 C 
ENDBRANCH  22  23
ENDBRANCH  15  22
ENDBRANCH   1  15
TORSDOF 10
ENDMDL
