MODEL 1
REMARK VINA RESULT:      -7.5      0.000      0.000
REMARK  Name = 
REMARK  10 active torsions:
REMARK  status: ('A' for Active; 'I' for Inactive)
REMARK    1  A    between atoms: C_2  and  C_3
REMARK    2  A    between atoms: C_3  and  C_4
REMARK    3  A    between atoms: C_4  and  C_5
REMARK    4  A    between atoms: C_5  and  C_6
REMARK    5  A    between atoms: C_6  and  C_7
REMARK    6  A    between atoms: C_7  and  C_8
REMARK    7  A    between atoms: C_8  and  N_9
REMARK    8  A    between atoms: C_10  and  C_12
REMARK    9  A    between atoms: C_20  and  O_21
REMARK   10  A    between atoms: N_25  and  O_26
REMARK                            x       y       z     vdW  Elec       q    Type
REMARK                         _______ _______ _______ _____ _____    ______ ____
ROOT
ATOM      1  N   UNL     1       7.284   8.330  17.974  0.00  0.00    +0.000 N 
ATOM      2  C   UNL     1       7.280   7.129  17.293  0.00  0.00    +0.000 C 
ATOM      3  O   UNL     1       8.038   6.865  16.367  0.00  0.00    +0.000 OA
ATOM      4  H   UNL     1       6.736   8.444  18.816  0.00  0.00    +0.000 HD
ENDROOT
BRANCH   2   5
ATOM      5  C   UNL     1       6.316   6.116  17.753  0.00  0.00    +0.000 A 
ATOM      6  C   UNL     1       6.313   5.583  19.018  0.00  0.00    +0.000 A 
ATOM      7  N   UNL     1       5.442   4.639  19.436  0.00  0.00    +0.000 NA
ATOM      8  C   UNL     1       4.516   4.207  18.561  0.00  0.00    +0.000 A 
ATOM      9  N   UNL     1       3.608   3.266  18.974  0.00  0.00    +0.000 N 
ATOM     10  C   UNL     1       3.648   2.775  20.348  0.00  0.00    +0.000 C 
ATOM     11  C   UNL     1       2.312   2.108  20.711  0.00  0.00    +0.000 C 
ATOM     12  C   UNL     1       1.166   2.779  19.961  0.00  0.00    +0.000 C 
ATOM     13  C   UNL     1       1.324   2.569  18.447  0.00  0.00    +0.000 C 
ATOM     14  C   UNL     1       2.807   2.522  18.010  0.00  0.00    +0.000 C 
ATOM     15  N   UNL     1       4.424   4.702  17.314  0.00  0.00    +0.000 NA
ATOM     16  C   UNL     1       5.316   5.650  16.937  0.00  0.00    +0.000 A 
BRANCH  13  17
ATOM     17  O   UNL     1       0.622   3.613  17.771  0.00  0.00    +0.000 OA
ATOM     18  H   UNL     1       1.262   4.339  17.646  0.00  0.00    +0.000 HD
ENDBRANCH  13  17
ENDBRANCH   2   5
BRANCH   1  19
ATOM     19  C   UNL     1       8.192   9.408  17.629  0.00  0.00    +0.000 C 
BRANCH  19  20
ATOM     20  C   UNL     1       9.091   9.786  18.805  0.00  0.00    +0.000 C 
BRANCH  20  21
ATOM     21  C   UNL     1       9.558  11.239  18.704  0.00  0.00    +0.000 C 
BRANCH  21  22
ATOM     22  C   UNL     1      11.083  11.360  18.793  0.00  0.00    +0.000 C 
BRANCH  22  23
ATOM     23  C   UNL     1      11.620  12.363  17.765  0.00  0.00    +0.000 C 
BRANCH  23  24
ATOM     24  C   UNL     1      12.198  13.612  18.430  0.00  0.00    +0.000 C 
BRANCH  24  26
ATOM     25  O   UNL     1      12.333  15.995  17.927  0.00  0.00    +0.000 OA
ATOM     26  C   UNL     1      11.919  14.874  17.632  0.00  0.00    +0.000 C 
ATOM     27  N   UNL     1      11.142  14.656  16.523  0.00  0.00    +0.000 N 
ATOM     28  H   UNL     1      10.783  13.756  16.228  0.00  0.00    +0.000 HD
BRANCH  27  29
ATOM     29  O   UNL     1      10.831  15.771  15.716  0.00  0.00    +0.000 OA
ATOM     30  H   UNL     1      11.375  15.607  14.912  0.00  0.00    +0.000 HD
ENDBRANCH  27  29
ENDBRANCH  24  26
ENDBRANCH  23  24
ENDBRANCH  22  23
ENDBRANCH  21  22
ENDBRANCH  20  21
ENDBRANCH  19  20
ENDBRANCH   1  19
TORSDOF 10
ENDMDL
MODEL 2
REMARK VINA RESULT:      -7.3      1.431      1.962
REMARK  Name = 
REMARK  10 active torsions:
REMARK  status: ('A' for Active; 'I' for Inactive)
REMARK    1  A    between atoms: C_2  and  C_3
REMARK    2  A    between atoms: C_3  and  C_4
REMARK    3  A    between atoms: C_4  and  C_5
REMARK    4  A    between atoms: C_5  and  C_6
REMARK    5  A    between atoms: C_6  and  C_7
REMARK    6  A    between atoms: C_7  and  C_8
REMARK    7  A    between atoms: C_8  and  N_9
REMARK    8  A    between atoms: C_10  and  C_12
REMARK    9  A    between atoms: C_20  and  O_21
REMARK   10  A    between atoms: N_25  and  O_26
REMARK                            x       y       z     vdW  Elec       q    Type
REMARK                         _______ _______ _______ _____ _____    ______ ____
ROOT
ATOM      1  N   UNL     1       7.314   7.880  17.982  0.00  0.00    +0.000 N 
ATOM      2  C   UNL     1       6.902   6.793  17.237  0.00  0.00    +0.000 C 
ATOM      3  O   UNL     1       7.485   6.387  16.239  0.00  0.00    +0.000 OA
ATOM      4  H   UNL     1       6.879   8.088  18.871  0.00  0.00    +0.000 HD
ENDROOT
BRANCH   2   5
ATOM      5  C   UNL     1       5.704   6.084  17.716  0.00  0.00    +0.000 A 
ATOM      6  C   UNL     1       4.793   5.478  16.888  0.00  0.00    +0.000 A 
ATOM      7  N   UNL     1       3.683   4.844  17.325  0.00  0.00    +0.000 NA
ATOM      8  C   UNL     1       3.467   4.798  18.652  0.00  0.00    +0.000 A 
ATOM      9  N   UNL     1       2.358   4.139  19.116  0.00  0.00    +0.000 N 
ATOM     10  C   UNL     1       1.455   3.487  18.172  0.00  0.00    +0.000 C 
ATOM     11  C   UNL     1       0.576   2.459  18.903  0.00  0.00    +0.000 C 
ATOM     12  C   UNL     1       1.336   1.858  20.081  0.00  0.00    +0.000 C 
ATOM     13  C   UNL     1       1.645   2.942  21.126  0.00  0.00    +0.000 C 
ATOM     14  C   UNL     1       1.890   4.327  20.483  0.00  0.00    +0.000 C 
ATOM     15  N   UNL     1       4.328   5.333  19.536  0.00  0.00    +0.000 NA
ATOM     16  C   UNL     1       5.431   5.956  19.055  0.00  0.00    +0.000 A 
BRANCH  13  17
ATOM     17  O   UNL     1       2.776   2.522  21.890  0.00  0.00    +0.000 OA
ATOM     18  H   UNL     1       3.285   3.329  22.096  0.00  0.00    +0.000 HD
ENDBRANCH  13  17
ENDBRANCH   2   5
BRANCH   1  19
ATOM     19  C   UNL     1       8.486   8.659  17.625  0.00  0.00    +0.000 C 
BRANCH  19  20
ATOM     20  C   UNL     1       8.645   9.881  18.527  0.00  0.00    +0.000 C 
BRANCH  20  21
ATOM     21  C   UNL     1       9.750  10.808  18.018  0.00  0.00    +0.000 C 
BRANCH  21  22
ATOM     22  C   UNL     1      10.601  11.370  19.162  0.00  0.00    +0.000 C 
BRANCH  22  23
ATOM     23  C   UNL     1      11.966  11.848  18.653  0.00  0.00    +0.000 C 
BRANCH  23  24
ATOM     24  C   UNL     1      11.846  12.657  17.362  0.00  0.00    +0.000 C 
BRANCH  24  26
ATOM     25  O   UNL     1      11.921  14.911  18.292  0.00  0.00    +0.000 OA
ATOM     26  C   UNL     1      11.340  14.068  17.608  0.00  0.00    +0.000 C 
ATOM     27  N   UNL     1      10.145  14.334  16.990  0.00  0.00    +0.000 N 
ATOM     28  H   UNL     1       9.630  13.683  16.409  0.00  0.00    +0.000 HD
BRANCH  27  29
ATOM     29  O   UNL     1       9.595  15.622  17.159  0.00  0.00    +0.000 OA
ATOM     30  H   UNL     1      10.394  16.196  17.140  0.00  0.00    +0.000 HD
ENDBRANCH  27  29
ENDBRANCH  24  26
ENDBRANCH  23  24
ENDBRANCH  22  23
ENDBRANCH  21  22
ENDBRANCH  20  21
ENDBRANCH  19  20
ENDBRANCH   1  19
TORSDOF 10
ENDMDL
MODEL 3
REMARK VINA RESULT:      -7.0      1.505      1.605
REMARK  Name = 
REMARK  10 active torsions:
REMARK  status: ('A' for Active; 'I' for Inactive)
REMARK    1  A    between atoms: C_2  and  C_3
REMARK    2  A    between atoms: C_3  and  C_4
REMARK    3  A    between atoms: C_4  and  C_5
REMARK    4  A    between atoms: C_5  and  C_6
REMARK    5  A    between atoms: C_6  and  C_7
REMARK    6  A    between atoms: C_7  and  C_8
REMARK    7  A    between atoms: C_8  and  N_9
REMARK    8  A    between atoms: C_10  and  C_12
REMARK    9  A    between atoms: C_20  and  O_21
REMARK   10  A    between atoms: N_25  and  O_26
REMARK                            x       y       z     vdW  Elec       q    Type
REMARK                         _______ _______ _______ _____ _____    ______ ____
ROOT
ATOM      1  N   UNL     1       7.514   8.031  17.949  0.00  0.00    +0.000 N 
ATOM      2  C   UNL     1       7.202   6.869  17.271  0.00  0.00    +0.000 C 
ATOM      3  O   UNL     1       7.707   6.543  16.203  0.00  0.00    +0.000 OA
ATOM      4  H   UNL     1       7.173   8.184  18.889  0.00  0.00    +0.000 HD
ENDROOT
BRANCH   2   5
ATOM      5  C   UNL     1       6.224   5.976  17.914  0.00  0.00    +0.000 A 
ATOM      6  C   UNL     1       6.559   5.005  18.824  0.00  0.00    +0.000 A 
ATOM      7  N   UNL     1       5.665   4.172  19.400  0.00  0.00    +0.000 NA
ATOM      8  C   UNL     1       4.370   4.312  19.066  0.00  0.00    +0.000 A 
ATOM      9  N   UNL     1       3.445   3.491  19.658  0.00  0.00    +0.000 N 
ATOM     10  C   UNL     1       3.876   2.506  20.646  0.00  0.00    +0.000 C 
ATOM     11  C   UNL     1       2.677   2.037  21.485  0.00  0.00    +0.000 C 
ATOM     12  C   UNL     1       1.660   3.165  21.630  0.00  0.00    +0.000 C 
ATOM     13  C   UNL     1       1.074   3.534  20.258  0.00  0.00    +0.000 C 
ATOM     14  C   UNL     1       2.099   3.361  19.113  0.00  0.00    +0.000 C 
ATOM     15  N   UNL     1       3.950   5.261  18.211  0.00  0.00    +0.000 NA
ATOM     16  C   UNL     1       4.879   6.079  17.659  0.00  0.00    +0.000 A 
BRANCH  13  17
ATOM     17  O   UNL     1       0.594   4.877  20.320  0.00  0.00    +0.000 OA
ATOM     18  H   UNL     1       0.893   5.315  19.500  0.00  0.00    +0.000 HD
ENDBRANCH  13  17
ENDBRANCH   2   5
BRANCH   1  19
ATOM     19  C   UNL     1       8.470   8.992  17.431  0.00  0.00    +0.000 C 
BRANCH  19  20
ATOM     20  C   UNL     1       8.480  10.277  18.258  0.00  0.00    +0.000 C 
BRANCH  20  21
ATOM     21  C   UNL     1       9.391  10.144  19.480  0.00  0.00    +0.000 C 
BRANCH  21  22
ATOM     22  C   UNL     1      10.194  11.423  19.739  0.00  0.00    +0.000 C 
BRANCH  22  23
ATOM     23  C   UNL     1      11.210  11.675  18.619  0.00  0.00    +0.000 C 
BRANCH  23  24
ATOM     24  C   UNL     1      11.288  13.153  18.237  0.00  0.00    +0.000 C 
BRANCH  24  26
ATOM     25  O   UNL     1       9.589  14.616  19.197  0.00  0.00    +0.000 OA
ATOM     26  C   UNL     1       9.936  13.841  18.307  0.00  0.00    +0.000 C 
ATOM     27  N   UNL     1       9.105  13.515  17.264  0.00  0.00    +0.000 N 
ATOM     28  H   UNL     1       9.341  12.893  16.501  0.00  0.00    +0.000 HD
BRANCH  27  29
ATOM     29  O   UNL     1       7.825  14.108  17.241  0.00  0.00    +0.000 OA
ATOM     30  H   UNL     1       7.259  13.373  16.910  0.00  0.00    +0.000 HD
ENDBRANCH  27  29
ENDBRANCH  24  26
ENDBRANCH  23  24
ENDBRANCH  22  23
ENDBRANCH  21  22
ENDBRANCH  20  21
ENDBRANCH  19  20
ENDBRANCH   1  19
TORSDOF 10
ENDMDL
MODEL 4
REMARK VINA RESULT:      -7.0      6.975     10.248
REMARK  Name = 
REMARK  10 active torsions:
REMARK  status: ('A' for Active; 'I' for Inactive)
REMARK    1  A    between atoms: C_2  and  C_3
REMARK    2  A    between atoms: C_3  and  C_4
REMARK    3  A    between atoms: C_4  and  C_5
REMARK    4  A    between atoms: C_5  and  C_6
REMARK    5  A    between atoms: C_6  and  C_7
REMARK    6  A    between atoms: C_7  and  C_8
REMARK    7  A    between atoms: C_8  and  N_9
REMARK    8  A    between atoms: C_10  and  C_12
REMARK    9  A    between atoms: C_20  and  O_21
REMARK   10  A    between atoms: N_25  and  O_26
REMARK                            x       y       z     vdW  Elec       q    Type
REMARK                         _______ _______ _______ _____ _____    ______ ____
ROOT
ATOM      1  N   UNL     1       1.729   6.536  20.850  0.00  0.00    +0.000 N 
ATOM      2  C   UNL     1       1.903   7.639  20.038  0.00  0.00    +0.000 C 
ATOM      3  O   UNL     1       2.541   7.625  18.992  0.00  0.00    +0.000 OA
ATOM      4  H   UNL     1       1.082   6.567  21.626  0.00  0.00    +0.000 HD
ENDROOT
BRANCH   2   5
ATOM      5  C   UNL     1       1.243   8.883  20.469  0.00  0.00    +0.000 A 
ATOM      6  C   UNL     1       0.856   9.134  21.761  0.00  0.00    +0.000 A 
ATOM      7  N   UNL     1       0.233  10.266  22.155  0.00  0.00    +0.000 NA
ATOM      8  C   UNL     1      -0.011  11.204  21.223  0.00  0.00    +0.000 A 
ATOM      9  N   UNL     1      -0.623  12.370  21.608  0.00  0.00    +0.000 N 
ATOM     10  C   UNL     1      -0.971  12.578  23.010  0.00  0.00    +0.000 C 
ATOM     11  C   UNL     1      -1.207  14.072  23.282  0.00  0.00    +0.000 C 
ATOM     12  C   UNL     1      -0.324  14.920  22.373  0.00  0.00    +0.000 C 
ATOM     13  C   UNL     1      -0.715  14.710  20.902  0.00  0.00    +0.000 C 
ATOM     14  C   UNL     1      -1.208  13.271  20.623  0.00  0.00    +0.000 C 
ATOM     15  N   UNL     1       0.367  11.056  19.941  0.00  0.00    +0.000 NA
ATOM     16  C   UNL     1       0.993   9.907  19.590  0.00  0.00    +0.000 A 
BRANCH  13  17
ATOM     17  O   UNL     1       0.412  15.035  20.086  0.00  0.00    +0.000 OA
ATOM     18  H   UNL     1       1.064  15.461  20.674  0.00  0.00    +0.000 HD
ENDBRANCH  13  17
ENDBRANCH   2   5
BRANCH   1  19
ATOM     19  C   UNL     1       2.317   5.247  20.535  0.00  0.00    +0.000 C 
BRANCH  19  20
ATOM     20  C   UNL     1       1.251   4.220  20.157  0.00  0.00    +0.000 C 
BRANCH  20  21
ATOM     21  C   UNL     1       1.759   3.265  19.075  0.00  0.00    +0.000 C 
BRANCH  21  22
ATOM     22  C   UNL     1       2.168   4.009  17.799  0.00  0.00    +0.000 C 
BRANCH  22  23
ATOM     23  C   UNL     1       3.575   3.602  17.348  0.00  0.00    +0.000 C 
BRANCH  23  24
ATOM     24  C   UNL     1       4.546   4.783  17.360  0.00  0.00    +0.000 C 
BRANCH  24  26
ATOM     25  O   UNL     1       6.008   4.256  19.240  0.00  0.00    +0.000 OA
ATOM     26  C   UNL     1       5.865   4.440  18.032  0.00  0.00    +0.000 C 
ATOM     27  N   UNL     1       6.916   4.354  17.155  0.00  0.00    +0.000 N 
ATOM     28  H   UNL     1       6.854   4.486  16.153  0.00  0.00    +0.000 HD
BRANCH  27  29
ATOM     29  O   UNL     1       8.184   4.038  17.687  0.00  0.00    +0.000 OA
ATOM     30  H   UNL     1       8.025   3.160  18.102  0.00  0.00    +0.000 HD
ENDBRANCH  27  29
ENDBRANCH  24  26
ENDBRANCH  23  24
ENDBRANCH  22  23
ENDBRANCH  21  22
ENDBRANCH  20  21
ENDBRANCH  19  20
ENDBRANCH   1  19
TORSDOF 10
ENDMDL
MODEL 5
REMARK VINA RESULT:      -7.0      2.937      3.576
REMARK  Name = 
REMARK  10 active torsions:
REMARK  status: ('A' for Active; 'I' for Inactive)
REMARK    1  A    between atoms: C_2  and  C_3
REMARK    2  A    between atoms: C_3  and  C_4
REMARK    3  A    between atoms: C_4  and  C_5
REMARK    4  A    between atoms: C_5  and  C_6
REMARK    5  A    between atoms: C_6  and  C_7
REMARK    6  A    between atoms: C_7  and  C_8
REMARK    7  A    between atoms: C_8  and  N_9
REMARK    8  A    between atoms: C_10  and  C_12
REMARK    9  A    between atoms: C_20  and  O_21
REMARK   10  A    between atoms: N_25  and  O_26
REMARK                            x       y       z     vdW  Elec       q    Type
REMARK                         _______ _______ _______ _____ _____    ______ ____
ROOT
ATOM      1  N   UNL     1       7.107   8.137  17.838  0.00  0.00    +0.000 N 
ATOM      2  C   UNL     1       6.875   6.897  17.275  0.00  0.00    +0.000 C 
ATOM      3  O   UNL     1       7.610   6.374  16.446  0.00  0.00    +0.000 OA
ATOM      4  H   UNL     1       6.547   8.461  18.615  0.00  0.00    +0.000 HD
ENDROOT
BRANCH   2   5
ATOM      5  C   UNL     1       5.681   6.176  17.744  0.00  0.00    +0.000 A 
ATOM      6  C   UNL     1       4.781   5.565  16.908  0.00  0.00    +0.000 A 
ATOM      7  N   UNL     1       3.674   4.919  17.336  0.00  0.00    +0.000 NA
ATOM      8  C   UNL     1       3.450   4.866  18.661  0.00  0.00    +0.000 A 
ATOM      9  N   UNL     1       2.344   4.195  19.116  0.00  0.00    +0.000 N 
ATOM     10  C   UNL     1       1.453   3.538  18.164  0.00  0.00    +0.000 C 
ATOM     11  C   UNL     1       0.579   2.500  18.886  0.00  0.00    +0.000 C 
ATOM     12  C   UNL     1       1.337   1.902  20.067  0.00  0.00    +0.000 C 
ATOM     13  C   UNL     1       1.629   2.985  21.117  0.00  0.00    +0.000 C 
ATOM     14  C   UNL     1       1.866   4.375  20.481  0.00  0.00    +0.000 C 
ATOM     15  N   UNL     1       4.300   5.406  19.552  0.00  0.00    +0.000 NA
ATOM     16  C   UNL     1       5.400   6.041  19.081  0.00  0.00    +0.000 A 
BRANCH  13  17
ATOM     17  O   UNL     1       2.759   2.573  21.887  0.00  0.00    +0.000 OA
ATOM     18  H   UNL     1       3.542   2.701  21.318  0.00  0.00    +0.000 HD
ENDBRANCH  13  17
ENDBRANCH   2   5
BRANCH   1  19
ATOM     19  C   UNL     1       8.255   8.947  17.471  0.00  0.00    +0.000 C 
BRANCH  19  20
ATOM     20  C   UNL     1       8.905   9.588  18.696  0.00  0.00    +0.000 C 
BRANCH  20  21
ATOM     21  C   UNL     1       9.458  10.976  18.368  0.00  0.00    +0.000 C 
BRANCH  21  22
ATOM     22  C   UNL     1      10.352  11.518  19.489  0.00  0.00    +0.000 C 
BRANCH  22  23
ATOM     23  C   UNL     1      10.005  12.974  19.819  0.00  0.00    +0.000 C 
BRANCH  23  24
ATOM     24  C   UNL     1      10.072  13.254  21.320  0.00  0.00    +0.000 C 
BRANCH  24  26
ATOM     25  O   UNL     1       7.716  13.295  21.949  0.00  0.00    +0.000 OA
ATOM     26  C   UNL     1       8.829  12.781  22.053  0.00  0.00    +0.000 C 
ATOM     27  N   UNL     1       9.055  11.701  22.868  0.00  0.00    +0.000 N 
ATOM     28  H   UNL     1       9.946  11.233  22.984  0.00  0.00    +0.000 HD
BRANCH  27  29
ATOM     29  O   UNL     1       7.957  11.187  23.591  0.00  0.00    +0.000 OA
ATOM     30  H   UNL     1       7.591  10.519  22.968  0.00  0.00    +0.000 HD
ENDBRANCH  27  29
ENDBRANCH  24  26
ENDBRANCH  23  24
ENDBRANCH  22  23
ENDBRANCH  21  22
ENDBRANCH  20  21
ENDBRANCH  19  20
ENDBRANCH   1  19
TORSDOF 10
ENDMDL
MODEL 6
REMARK VINA RESULT:      -7.0      2.118     11.224
REMARK  Name = 
REMARK  10 active torsions:
REMARK  status: ('A' for Active; 'I' for Inactive)
REMARK    1  A    between atoms: C_2  and  C_3
REMARK    2  A    between atoms: C_3  and  C_4
REMARK    3  A    between atoms: C_4  and  C_5
REMARK    4  A    between atoms: C_5  and  C_6
REMARK    5  A    between atoms: C_6  and  C_7
REMARK    6  A    between atoms: C_7  and  C_8
REMARK    7  A    between atoms: C_8  and  N_9
REMARK    8  A    between atoms: C_10  and  C_12
REMARK    9  A    between atoms: C_20  and  O_21
REMARK   10  A    between atoms: N_25  and  O_26
REMARK                            x       y       z     vdW  Elec       q    Type
REMARK                         _______ _______ _______ _____ _____    ______ ____
ROOT
ATOM      1  N   UNL     1       8.227   7.090  18.851  0.00  0.00    +0.000 N 
ATOM      2  C   UNL     1       8.000   8.086  17.922  0.00  0.00    +0.000 C 
ATOM      3  O   UNL     1       7.410   7.912  16.862  0.00  0.00    +0.000 OA
ATOM      4  H   UNL     1       8.594   7.315  19.766  0.00  0.00    +0.000 HD
ENDROOT
BRANCH   2   5
ATOM      5  C   UNL     1       8.480   9.433  18.273  0.00  0.00    +0.000 A 
ATOM      6  C   UNL     1       9.253   9.705  19.373  0.00  0.00    +0.000 A 
ATOM      7  N   UNL     1       9.679  10.943  19.707  0.00  0.00    +0.000 NA
ATOM      8  C   UNL     1       9.330  11.965  18.905  0.00  0.00    +0.000 A 
ATOM      9  N   UNL     1       9.772  13.226  19.216  0.00  0.00    +0.000 N 
ATOM     10  C   UNL     1      10.623  13.428  20.384  0.00  0.00    +0.000 C 
ATOM     11  C   UNL     1      11.352  14.778  20.281  0.00  0.00    +0.000 C 
ATOM     12  C   UNL     1      11.624  15.121  18.820  0.00  0.00    +0.000 C 
ATOM     13  C   UNL     1      10.302  15.317  18.063  0.00  0.00    +0.000 C 
ATOM     14  C   UNL     1       9.175  14.403  18.599  0.00  0.00    +0.000 C 
ATOM     15  N   UNL     1       8.606  11.782  17.787  0.00  0.00    +0.000 NA
ATOM     16  C   UNL     1       8.203  10.524  17.487  0.00  0.00    +0.000 A 
BRANCH  13  17
ATOM     17  O   UNL     1      10.538  15.081  16.674  0.00  0.00    +0.000 OA
ATOM     18  H   UNL     1      10.084  14.244  16.456  0.00  0.00    +0.000 HD
ENDBRANCH  13  17
ENDBRANCH   2   5
BRANCH   1  19
ATOM     19  C   UNL     1       7.795   5.722  18.633  0.00  0.00    +0.000 C 
BRANCH  19  20
ATOM     20  C   UNL     1       6.442   5.448  19.287  0.00  0.00    +0.000 C 
BRANCH  20  21
ATOM     21  C   UNL     1       5.306   5.522  18.265  0.00  0.00    +0.000 C 
BRANCH  21  22
ATOM     22  C   UNL     1       3.950   5.779  18.931  0.00  0.00    +0.000 C 
BRANCH  22  23
ATOM     23  C   UNL     1       2.794   5.430  17.986  0.00  0.00    +0.000 C 
BRANCH  23  24
ATOM     24  C   UNL     1       2.697   3.926  17.729  0.00  0.00    +0.000 C 
BRANCH  24  26
ATOM     25  O   UNL     1       2.773   2.163  19.412  0.00  0.00    +0.000 OA
ATOM     26  C   UNL     1       2.220   3.161  18.951  0.00  0.00    +0.000 C 
ATOM     27  N   UNL     1       1.085   3.687  19.515  0.00  0.00    +0.000 N 
ATOM     28  H   UNL     1       0.596   4.510  19.184  0.00  0.00    +0.000 HD
BRANCH  27  29
ATOM     29  O   UNL     1       0.567   3.043  20.658  0.00  0.00    +0.000 OA
ATOM     30  H   UNL     1       0.505   3.782  21.306  0.00  0.00    +0.000 HD
ENDBRANCH  27  29
ENDBRANCH  24  26
ENDBRANCH  23  24
ENDBRANCH  22  23
ENDBRANCH  21  22
ENDBRANCH  20  21
ENDBRANCH  19  20
ENDBRANCH   1  19
TORSDOF 10
ENDMDL
MODEL 7
REMARK VINA RESULT:      -7.0      2.347      2.757
REMARK  Name = 
REMARK  10 active torsions:
REMARK  status: ('A' for Active; 'I' for Inactive)
REMARK    1  A    between atoms: C_2  and  C_3
REMARK    2  A    between atoms: C_3  and  C_4
REMARK    3  A    between atoms: C_4  and  C_5
REMARK    4  A    between atoms: C_5  and  C_6
REMARK    5  A    between atoms: C_6  and  C_7
REMARK    6  A    between atoms: C_7  and  C_8
REMARK    7  A    between atoms: C_8  and  N_9
REMARK    8  A    between atoms: C_10  and  C_12
REMARK    9  A    between atoms: C_20  and  O_21
REMARK   10  A    between atoms: N_25  and  O_26
REMARK                            x       y       z     vdW  Elec       q    Type
REMARK                         _______ _______ _______ _____ _____    ______ ____
ROOT
ATOM      1  N   UNL     1       7.452   8.346  17.889  0.00  0.00    +0.000 N 
ATOM      2  C   UNL     1       7.174   7.145  17.266  0.00  0.00    +0.000 C 
ATOM      3  O   UNL     1       7.800   6.712  16.305  0.00  0.00    +0.000 OA
ATOM      4  H   UNL     1       6.997   8.590  18.758  0.00  0.00    +0.000 HD
ENDROOT
BRANCH   2   5
ATOM      5  C   UNL     1       6.074   6.349  17.834  0.00  0.00    +0.000 A 
ATOM      6  C   UNL     1       4.827   6.854  18.105  0.00  0.00    +0.000 A 
ATOM      7  N   UNL     1       3.822   6.131  18.644  0.00  0.00    +0.000 NA
ATOM      8  C   UNL     1       4.059   4.836  18.921  0.00  0.00    +0.000 A 
ATOM      9  N   UNL     1       3.044   4.079  19.448  0.00  0.00    +0.000 N 
ATOM     10  C   UNL     1       1.733   4.680  19.673  0.00  0.00    +0.000 C 
ATOM     11  C   UNL     1       0.666   3.584  19.822  0.00  0.00    +0.000 C 
ATOM     12  C   UNL     1       1.036   2.369  18.978  0.00  0.00    +0.000 C 
ATOM     13  C   UNL     1       2.338   1.738  19.494  0.00  0.00    +0.000 C 
ATOM     14  C   UNL     1       3.315   2.789  20.071  0.00  0.00    +0.000 C 
ATOM     15  N   UNL     1       5.240   4.251  18.654  0.00  0.00    +0.000 NA
ATOM     16  C   UNL     1       6.220   5.013  18.109  0.00  0.00    +0.000 A 
BRANCH  13  17
ATOM     17  O   UNL     1       2.941   1.009  18.424  0.00  0.00    +0.000 OA
ATOM     18  H   UNL     1       3.513   1.641  17.948  0.00  0.00    +0.000 HD
ENDBRANCH  13  17
ENDBRANCH   2   5
BRANCH   1  19
ATOM     19  C   UNL     1       8.518   9.220  17.435  0.00  0.00    +0.000 C 
BRANCH  19  20
ATOM     20  C   UNL     1       8.911  10.232  18.510  0.00  0.00    +0.000 C 
BRANCH  20  21
ATOM     21  C   UNL     1       8.995  11.648  17.937  0.00  0.00    +0.000 C 
BRANCH  21  22
ATOM     22  C   UNL     1      10.445  12.117  17.775  0.00  0.00    +0.000 C 
BRANCH  22  23
ATOM     23  C   UNL     1      11.358  11.460  18.817  0.00  0.00    +0.000 C 
BRANCH  23  24
ATOM     24  C   UNL     1      11.691  12.409  19.968  0.00  0.00    +0.000 C 
BRANCH  24  26
ATOM     25  O   UNL     1       9.913  13.813  20.871  0.00  0.00    +0.000 OA
ATOM     26  C   UNL     1      10.480  12.722  20.829  0.00  0.00    +0.000 C 
ATOM     27  N   UNL     1      10.057  11.655  21.582  0.00  0.00    +0.000 N 
ATOM     28  H   UNL     1      10.478  10.734  21.579  0.00  0.00    +0.000 HD
BRANCH  27  29
ATOM     29  O   UNL     1       8.933  11.849  22.414  0.00  0.00    +0.000 OA
ATOM     30  H   UNL     1       8.191  11.560  21.835  0.00  0.00    +0.000 HD
ENDBRANCH  27  29
ENDBRANCH  24  26
ENDBRANCH  23  24
ENDBRANCH  22  23
ENDBRANCH  21  22
ENDBRANCH  20  21
ENDBRANCH  19  20
ENDBRANCH   1  19
TORSDOF 10
ENDMDL
MODEL 8
REMARK VINA RESULT:      -6.9      6.838      9.857
REMARK  Name = 
REMARK  10 active torsions:
REMARK  status: ('A' for Active; 'I' for Inactive)
REMARK    1  A    between atoms: C_2  and  C_3
REMARK    2  A    between atoms: C_3  and  C_4
REMARK    3  A    between atoms: C_4  and  C_5
REMARK    4  A    between atoms: C_5  and  C_6
REMARK    5  A    between atoms: C_6  and  C_7
REMARK    6  A    between atoms: C_7  and  C_8
REMARK    7  A    between atoms: C_8  and  N_9
REMARK    8  A    between atoms: C_10  and  C_12
REMARK    9  A    between atoms: C_20  and  O_21
REMARK   10  A    between atoms: N_25  and  O_26
REMARK                            x       y       z     vdW  Elec       q    Type
REMARK                         _______ _______ _______ _____ _____    ______ ____
ROOT
ATOM      1  N   UNL     1       2.082   6.386  20.607  0.00  0.00    +0.000 N 
ATOM      2  C   UNL     1       2.050   7.513  19.810  0.00  0.00    +0.000 C 
ATOM      3  O   UNL     1       2.615   7.602  18.727  0.00  0.00    +0.000 OA
ATOM      4  H   UNL     1       1.488   6.317  21.422  0.00  0.00    +0.000 HD
ENDROOT
BRANCH   2   5
ATOM      5  C   UNL     1       1.253   8.647  20.308  0.00  0.00    +0.000 A 
ATOM      6  C   UNL     1       0.775   8.739  21.591  0.00  0.00    +0.000 A 
ATOM      7  N   UNL     1       0.028   9.769  22.045  0.00  0.00    +0.000 NA
ATOM      8  C   UNL     1      -0.254  10.766  21.187  0.00  0.00    +0.000 A 
ATOM      9  N   UNL     1      -0.992  11.831  21.636  0.00  0.00    +0.000 N 
ATOM     10  C   UNL     1      -1.433  11.873  23.026  0.00  0.00    +0.000 C 
ATOM     11  C   UNL     1      -1.824  13.308  23.416  0.00  0.00    +0.000 C 
ATOM     12  C   UNL     1      -0.977  14.314  22.642  0.00  0.00    +0.000 C 
ATOM     13  C   UNL     1      -1.267  14.210  21.137  0.00  0.00    +0.000 C 
ATOM     14  C   UNL     1      -1.606  12.765  20.701  0.00  0.00    +0.000 C 
ATOM     15  N   UNL     1       0.205  10.774  19.924  0.00  0.00    +0.000 NA
ATOM     16  C   UNL     1       0.955   9.723  19.511  0.00  0.00    +0.000 A 
BRANCH  13  17
ATOM     17  O   UNL     1      -0.134  14.709  20.425  0.00  0.00    +0.000 OA
ATOM     18  H   UNL     1       0.408  15.196  21.075  0.00  0.00    +0.000 HD
ENDBRANCH  13  17
ENDBRANCH   2   5
BRANCH   1  19
ATOM     19  C   UNL     1       2.821   5.196  20.228  0.00  0.00    +0.000 C 
BRANCH  19  20
ATOM     20  C   UNL     1       1.886   4.041  19.875  0.00  0.00    +0.000 C 
BRANCH  20  21
ATOM     21  C   UNL     1       2.368   3.297  18.628  0.00  0.00    +0.000 C 
BRANCH  21  22
ATOM     22  C   UNL     1       2.814   4.258  17.522  0.00  0.00    +0.000 C 
BRANCH  22  23
ATOM     23  C   UNL     1       4.245   3.952  17.066  0.00  0.00    +0.000 C 
BRANCH  23  24
ATOM     24  C   UNL     1       4.995   5.214  16.641  0.00  0.00    +0.000 C 
BRANCH  24  26
ATOM     25  O   UNL     1       7.262   5.489  15.782  0.00  0.00    +0.000 OA
ATOM     26  C   UNL     1       6.501   5.015  16.625  0.00  0.00    +0.000 C 
ATOM     27  N   UNL     1       6.958   4.237  17.659  0.00  0.00    +0.000 N 
ATOM     28  H   UNL     1       6.380   3.830  18.385  0.00  0.00    +0.000 HD
BRANCH  27  29
ATOM     29  O   UNL     1       8.346   3.997  17.730  0.00  0.00    +0.000 OA
ATOM     30  H   UNL     1       8.566   4.302  18.640  0.00  0.00    +0.000 HD
ENDBRANCH  27  29
ENDBRANCH  24  26
ENDBRANCH  23  24
ENDBRANCH  22  23
ENDBRANCH  21  22
ENDBRANCH  20  21
ENDBRANCH  19  20
ENDBRANCH   1  19
TORSDOF 10
ENDMDL
MODEL 9
REMARK VINA RESULT:      -6.9      6.314     10.131
REMARK  Name = 
REMARK  10 active torsions:
REMARK  status: ('A' for Active; 'I' for Inactive)
REMARK    1  A    between atoms: C_2  and  C_3
REMARK    2  A    between atoms: C_3  and  C_4
REMARK    3  A    between atoms: C_4  and  C_5
REMARK    4  A    between atoms: C_5  and  C_6
REMARK    5  A    between atoms: C_6  and  C_7
REMARK    6  A    between atoms: C_7  and  C_8
REMARK    7  A    between atoms: C_8  and  N_9
REMARK    8  A    between atoms: C_10  and  C_12
REMARK    9  A    between atoms: C_20  and  O_21
REMARK   10  A    between atoms: N_25  and  O_26
REMARK                            x       y       z     vdW  Elec       q    Type
REMARK                         _______ _______ _______ _____ _____    ______ ____
ROOT
ATOM      1  N   UNL     1       3.781   5.640  18.182  0.00  0.00    +0.000 N 
ATOM      2  C   UNL     1       3.571   6.925  17.722  0.00  0.00    +0.000 C 
ATOM      3  O   UNL     1       4.103   7.389  16.720  0.00  0.00    +0.000 OA
ATOM      4  H   UNL     1       3.214   5.264  18.930  0.00  0.00    +0.000 HD
ENDROOT
BRANCH   2   5
ATOM      5  C   UNL     1       2.620   7.750  18.486  0.00  0.00    +0.000 A 
ATOM      6  C   UNL     1       2.257   7.491  19.784  0.00  0.00    +0.000 A 
ATOM      7  N   UNL     1       1.370   8.235  20.481  0.00  0.00    +0.000 NA
ATOM      8  C   UNL     1       0.821   9.297  19.865  0.00  0.00    +0.000 A 
ATOM      9  N   UNL     1      -0.064  10.078  20.564  0.00  0.00    +0.000 N 
ATOM     10  C   UNL     1      -0.371   9.759  21.954  0.00  0.00    +0.000 C 
ATOM     11  C   UNL     1      -0.994  10.978  22.653  0.00  0.00    +0.000 C 
ATOM     12  C   UNL     1      -0.435  12.268  22.061  0.00  0.00    +0.000 C 
ATOM     13  C   UNL     1      -0.841  12.397  20.585  0.00  0.00    +0.000 C 
ATOM     14  C   UNL     1      -0.933  11.025  19.877  0.00  0.00    +0.000 C 
ATOM     15  N   UNL     1       1.148   9.644  18.608  0.00  0.00    +0.000 NA
ATOM     16  C   UNL     1       2.045   8.873  17.946  0.00  0.00    +0.000 A 
BRANCH  13  17
ATOM     17  O   UNL     1       0.101  13.250  19.932  0.00  0.00    +0.000 OA
ATOM     18  H   UNL     1       0.478  13.825  20.625  0.00  0.00    +0.000 HD
ENDBRANCH  13  17
ENDBRANCH   2   5
BRANCH   1  19
ATOM     19  C   UNL     1       4.684   4.722  17.515  0.00  0.00    +0.000 C 
BRANCH  19  20
ATOM     20  C   UNL     1       3.952   3.480  17.009  0.00  0.00    +0.000 C 
BRANCH  20  21
ATOM     21  C   UNL     1       2.448   3.574  17.276  0.00  0.00    +0.000 C 
BRANCH  21  22
ATOM     22  C   UNL     1       1.913   2.330  17.993  0.00  0.00    +0.000 C 
BRANCH  22  23
ATOM     23  C   UNL     1       0.657   2.659  18.809  0.00  0.00    +0.000 C 
BRANCH  23  24
ATOM     24  C   UNL     1       0.847   3.901  19.680  0.00  0.00    +0.000 C 
BRANCH  24  26
ATOM     25  O   UNL     1       2.790   4.538  21.011  0.00  0.00    +0.000 OA
ATOM     26  C   UNL     1       1.923   3.709  20.735  0.00  0.00    +0.000 C 
ATOM     27  N   UNL     1       1.850   2.496  21.373  0.00  0.00    +0.000 N 
ATOM     28  H   UNL     1       1.154   1.783  21.194  0.00  0.00    +0.000 HD
BRANCH  27  29
ATOM     29  O   UNL     1       2.809   2.227  22.373  0.00  0.00    +0.000 OA
ATOM     30  H   UNL     1       2.986   1.268  22.240  0.00  0.00    +0.000 HD
ENDBRANCH  27  29
ENDBRANCH  24  26
ENDBRANCH  23  24
ENDBRANCH  22  23
ENDBRANCH  21  22
ENDBRANCH  20  21
ENDBRANCH  19  20
ENDBRANCH   1  19
TORSDOF 10
ENDMDL
