MODEL 1
REMARK VINA RESULT:      -7.3      0.000      0.000
REMARK  Name = 
REMARK  8 active torsions:
REMARK  status: ('A' for Active; 'I' for Inactive)
REMARK    1  A    between atoms: C_1  and  C_2
REMARK    2  A    between atoms: C_2  and  C_3
REMARK    3  A    between atoms: C_2  and  O_4
REMARK    4  A    between atoms: C_2  and  C_5
REMARK    5  A    between atoms: C_5  and  N_6
REMARK    6  A    between atoms: N_6  and  C_7
REMARK    7  A    between atoms: C_7  and  C_8
REMARK    8  A    between atoms: N_16  and  C_17
REMARK                            x       y       z     vdW  Elec       q    Type
REMARK                         _______ _______ _______ _____ _____    ______ ____
ROOT
ATOM      1  N   UNL     1       2.477   7.503  18.527  0.00  0.00    +0.000 N 
ATOM      2  C   UNL     1       3.480   7.505  17.581  0.00  0.00    +0.000 C 
ATOM      3  O   UNL     1       3.362   8.136  16.520  0.00  0.00    +0.000 OA
ATOM      4  N   UNL     1       4.622   6.818  17.837  0.00  0.00    +0.000 N 
ATOM      5  H   UNL     1       4.551   6.044  18.475  0.00  0.00    +0.000 HD
ENDROOT
BRANCH   4   6
ATOM      6  C   UNL     1       5.587   6.708  16.746  0.00  0.00    +0.000 C 
ATOM      7  C   UNL     1       5.619   5.330  16.076  0.00  0.00    +0.000 C 
ATOM      8  C   UNL     1       7.096   4.948  16.193  0.00  0.00    +0.000 C 
ATOM      9  C   UNL     1       7.457   4.604  17.637  0.00  0.00    +0.000 C 
ATOM     10  C   UNL     1       7.465   5.979  18.304  0.00  0.00    +0.000 C 
ATOM     11  C   UNL     1       7.075   6.892  17.141  0.00  0.00    +0.000 C 
ATOM     12  O   UNL     1       7.744   6.228  16.036  0.00  0.00    +0.000 OA
ENDBRANCH   4   6
BRANCH   1  13
ATOM     13  C   UNL     1       1.231   8.149  18.061  0.00  0.00    +0.000 C 
BRANCH  13  15
ATOM     14  C   UNL     1       1.152   9.780  20.056  0.00  0.00    +0.000 C 
ATOM     15  C   UNL     1       1.029   9.605  18.538  0.00  0.00    +0.000 C 
ATOM     16  C   UNL     1      -0.325  10.111  18.048  0.00  0.00    +0.000 C 
BRANCH  15  17
ATOM     17  O   UNL     1       2.026  10.418  17.894  0.00  0.00    +0.000 OA
ATOM     18  H   UNL     1       1.766  11.353  17.974  0.00  0.00    +0.000 HD
ENDBRANCH  15  17
ENDBRANCH  13  15
ENDBRANCH   1  13
BRANCH   1  19
ATOM     19  C   UNL     1       2.355   6.592  19.679  0.00  0.00    +0.000 C 
BRANCH  19  20
ATOM     20  C   UNL     1       1.868   5.158  19.525  0.00  0.00    +0.000 A 
ATOM     21  C   UNL     1       1.803   4.433  18.332  0.00  0.00    +0.000 A 
ATOM     22  C   UNL     1       1.387   3.087  18.335  0.00  0.00    +0.000 A 
ATOM     23  C   UNL     1       1.027   2.448  19.523  0.00  0.00    +0.000 A 
ATOM     24  C   UNL     1       1.077   3.153  20.718  0.00  0.00    +0.000 A 
ATOM     25  C   UNL     1       1.491   4.489  20.715  0.00  0.00    +0.000 A 
ENDBRANCH  19  20
ENDBRANCH   1  19
TORSDOF 6
ENDMDL
MODEL 2
REMARK VINA RESULT:      -7.3      0.135      1.008
REMARK  Name = 
REMARK  8 active torsions:
REMARK  status: ('A' for Active; 'I' for Inactive)
REMARK    1  A    between atoms: C_1  and  C_2
REMARK    2  A    between atoms: C_2  and  C_3
REMARK    3  A    between atoms: C_2  and  O_4
REMARK    4  A    between atoms: C_2  and  C_5
REMARK    5  A    between atoms: C_5  and  N_6
REMARK    6  A    between atoms: N_6  and  C_7
REMARK    7  A    between atoms: C_7  and  C_8
REMARK    8  A    between atoms: N_16  and  C_17
REMARK                            x       y       z     vdW  Elec       q    Type
REMARK                         _______ _______ _______ _____ _____    ______ ____
ROOT
ATOM      1  N   UNL     1       2.477   7.532  18.551  0.00  0.00    +0.000 N 
ATOM      2  C   UNL     1       3.466   7.492  17.592  0.00  0.00    +0.000 C 
ATOM      3  O   UNL     1       3.330   8.066  16.502  0.00  0.00    +0.000 OA
ATOM      4  N   UNL     1       4.617   6.825  17.867  0.00  0.00    +0.000 N 
ATOM      5  H   UNL     1       4.559   6.085  18.546  0.00  0.00    +0.000 HD
ENDROOT
BRANCH   4   6
ATOM      6  C   UNL     1       5.567   6.665  16.770  0.00  0.00    +0.000 C 
ATOM      7  C   UNL     1       5.598   5.254  16.172  0.00  0.00    +0.000 C 
ATOM      8  C   UNL     1       7.079   4.885  16.288  0.00  0.00    +0.000 C 
ATOM      9  C   UNL     1       7.462   4.619  17.743  0.00  0.00    +0.000 C 
ATOM     10  C   UNL     1       7.471   6.026  18.337  0.00  0.00    +0.000 C 
ATOM     11  C   UNL     1       7.060   6.876  17.134  0.00  0.00    +0.000 C 
ATOM     12  O   UNL     1       7.717   6.159  16.056  0.00  0.00    +0.000 OA
ENDBRANCH   4   6
BRANCH   1  13
ATOM     13  C   UNL     1       1.220   8.146  18.069  0.00  0.00    +0.000 C 
BRANCH  13  15
ATOM     14  C   UNL     1       1.169   9.844  20.009  0.00  0.00    +0.000 C 
ATOM     15  C   UNL     1       0.998   9.613  18.503  0.00  0.00    +0.000 C 
ATOM     16  C   UNL     1      -0.384  10.069  18.045  0.00  0.00    +0.000 C 
BRANCH  15  17
ATOM     17  O   UNL     1       1.951  10.427  17.797  0.00  0.00    +0.000 OA
ATOM     18  H   UNL     1       1.602  11.333  17.734  0.00  0.00    +0.000 HD
ENDBRANCH  15  17
ENDBRANCH  13  15
ENDBRANCH   1  13
BRANCH   1  19
ATOM     19  C   UNL     1       2.376   6.682  19.750  0.00  0.00    +0.000 C 
BRANCH  19  20
ATOM     20  C   UNL     1       1.925   5.230  19.674  0.00  0.00    +0.000 A 
ATOM     21  C   UNL     1       1.509   4.439  20.749  0.00  0.00    +0.000 A 
ATOM     22  C   UNL     1       1.058   3.122  20.534  0.00  0.00    +0.000 A 
ATOM     23  C   UNL     1       1.022   2.575  19.250  0.00  0.00    +0.000 A 
ATOM     24  C   UNL     1       1.438   3.341  18.170  0.00  0.00    +0.000 A 
ATOM     25  C   UNL     1       1.884   4.650  18.384  0.00  0.00    +0.000 A 
ENDBRANCH  19  20
ENDBRANCH   1  19
TORSDOF 6
ENDMDL
MODEL 3
REMARK VINA RESULT:      -7.1      3.220      6.883
REMARK  Name = 
REMARK  8 active torsions:
REMARK  status: ('A' for Active; 'I' for Inactive)
REMARK    1  A    between atoms: C_1  and  C_2
REMARK    2  A    between atoms: C_2  and  C_3
REMARK    3  A    between atoms: C_2  and  O_4
REMARK    4  A    between atoms: C_2  and  C_5
REMARK    5  A    between atoms: C_5  and  N_6
REMARK    6  A    between atoms: N_6  and  C_7
REMARK    7  A    between atoms: C_7  and  C_8
REMARK    8  A    between atoms: N_16  and  C_17
REMARK                            x       y       z     vdW  Elec       q    Type
REMARK                         _______ _______ _______ _____ _____    ______ ____
ROOT
ATOM      1  N   UNL     1       5.440   4.526  16.989  0.00  0.00    +0.000 N 
ATOM      2  C   UNL     1       4.980   3.946  18.152  0.00  0.00    +0.000 C 
ATOM      3  O   UNL     1       5.690   3.889  19.168  0.00  0.00    +0.000 OA
ATOM      4  N   UNL     1       3.716   3.452  18.181  0.00  0.00    +0.000 N 
ATOM      5  H   UNL     1       3.322   3.168  17.300  0.00  0.00    +0.000 HD
ENDROOT
BRANCH   4   6
ATOM      6  C   UNL     1       3.326   2.701  19.371  0.00  0.00    +0.000 C 
ATOM      7  C   UNL     1       1.962   2.013  19.256  0.00  0.00    +0.000 C 
ATOM      8  C   UNL     1       1.222   2.554  20.480  0.00  0.00    +0.000 C 
ATOM      9  C   UNL     1       0.850   4.023  20.287  0.00  0.00    +0.000 C 
ATOM     10  C   UNL     1       2.201   4.721  20.439  0.00  0.00    +0.000 C 
ATOM     11  C   UNL     1       3.140   3.536  20.664  0.00  0.00    +0.000 C 
ATOM     12  O   UNL     1       2.289   2.657  21.447  0.00  0.00    +0.000 OA
ENDBRANCH   4   6
BRANCH   1  13
ATOM     13  C   UNL     1       6.877   4.876  17.039  0.00  0.00    +0.000 C 
BRANCH  13  15
ATOM     14  C   UNL     1       7.943   6.442  18.788  0.00  0.00    +0.000 C 
ATOM     15  C   UNL     1       7.185   6.331  17.460  0.00  0.00    +0.000 C 
ATOM     16  C   UNL     1       5.882   7.124  17.518  0.00  0.00    +0.000 C 
BRANCH  15  17
ATOM     17  O   UNL     1       7.980   6.928  16.419  0.00  0.00    +0.000 OA
ATOM     18  H   UNL     1       8.796   6.408  16.313  0.00  0.00    +0.000 HD
ENDBRANCH  15  17
ENDBRANCH  13  15
ENDBRANCH   1  13
BRANCH   1  19
ATOM     19  C   UNL     1       4.836   4.417  15.650  0.00  0.00    +0.000 C 
BRANCH  19  20
ATOM     20  C   UNL     1       5.682   4.349  14.386  0.00  0.00    +0.000 A 
ATOM     21  C   UNL     1       6.893   5.013  14.169  0.00  0.00    +0.000 A 
ATOM     22  C   UNL     1       7.610   4.818  12.972  0.00  0.00    +0.000 A 
ATOM     23  C   UNL     1       7.129   3.966  11.976  0.00  0.00    +0.000 A 
ATOM     24  C   UNL     1       5.924   3.303  12.169  0.00  0.00    +0.000 A 
ATOM     25  C   UNL     1       5.214   3.496  13.358  0.00  0.00    +0.000 A 
ENDBRANCH  19  20
ENDBRANCH   1  19
TORSDOF 6
ENDMDL
MODEL 4
REMARK VINA RESULT:      -6.9      3.246      6.841
REMARK  Name = 
REMARK  8 active torsions:
REMARK  status: ('A' for Active; 'I' for Inactive)
REMARK    1  A    between atoms: C_1  and  C_2
REMARK    2  A    between atoms: C_2  and  C_3
REMARK    3  A    between atoms: C_2  and  O_4
REMARK    4  A    between atoms: C_2  and  C_5
REMARK    5  A    between atoms: C_5  and  N_6
REMARK    6  A    between atoms: N_6  and  C_7
REMARK    7  A    between atoms: C_7  and  C_8
REMARK    8  A    between atoms: N_16  and  C_17
REMARK                            x       y       z     vdW  Elec       q    Type
REMARK                         _______ _______ _______ _____ _____    ______ ____
ROOT
ATOM      1  N   UNL     1       5.423   4.650  16.947  0.00  0.00    +0.000 N 
ATOM      2  C   UNL     1       4.957   3.980  18.058  0.00  0.00    +0.000 C 
ATOM      3  O   UNL     1       5.673   3.814  19.057  0.00  0.00    +0.000 OA
ATOM      4  N   UNL     1       3.681   3.516  18.055  0.00  0.00    +0.000 N 
ATOM      5  H   UNL     1       3.273   3.321  17.157  0.00  0.00    +0.000 HD
ENDROOT
BRANCH   4   6
ATOM      6  C   UNL     1       3.282   2.671  19.177  0.00  0.00    +0.000 C 
ATOM      7  C   UNL     1       1.891   2.046  19.025  0.00  0.00    +0.000 C 
ATOM      8  C   UNL     1       1.190   2.497  20.308  0.00  0.00    +0.000 C 
ATOM      9  C   UNL     1       0.871   3.990  20.259  0.00  0.00    +0.000 C 
ATOM     10  C   UNL     1       2.249   4.622  20.449  0.00  0.00    +0.000 C 
ATOM     11  C   UNL     1       3.147   3.388  20.546  0.00  0.00    +0.000 C 
ATOM     12  O   UNL     1       2.275   2.471  21.260  0.00  0.00    +0.000 OA
ENDBRANCH   4   6
BRANCH   1  13
ATOM     13  C   UNL     1       6.868   4.958  17.013  0.00  0.00    +0.000 C 
BRANCH  13  15
ATOM     14  C   UNL     1       7.976   6.445  18.805  0.00  0.00    +0.000 C 
ATOM     15  C   UNL     1       7.213   6.392  17.476  0.00  0.00    +0.000 C 
ATOM     16  C   UNL     1       5.931   7.215  17.561  0.00  0.00    +0.000 C 
BRANCH  15  17
ATOM     17  O   UNL     1       8.021   6.999  16.452  0.00  0.00    +0.000 OA
ATOM     18  H   UNL     1       8.105   7.949  16.643  0.00  0.00    +0.000 HD
ENDBRANCH  15  17
ENDBRANCH  13  15
ENDBRANCH   1  13
BRANCH   1  19
ATOM     19  C   UNL     1       4.806   4.674  15.610  0.00  0.00    +0.000 C 
BRANCH  19  20
ATOM     20  C   UNL     1       5.596   4.346  14.350  0.00  0.00    +0.000 A 
ATOM     21  C   UNL     1       5.214   3.449  13.348  0.00  0.00    +0.000 A 
ATOM     22  C   UNL     1       6.012   3.280  12.199  0.00  0.00    +0.000 A 
ATOM     23  C   UNL     1       7.199   3.996  12.036  0.00  0.00    +0.000 A 
ATOM     24  C   UNL     1       7.600   4.886  13.023  0.00  0.00    +0.000 A 
ATOM     25  C   UNL     1       6.807   5.054  14.163  0.00  0.00    +0.000 A 
ENDBRANCH  19  20
ENDBRANCH   1  19
TORSDOF 6
ENDMDL
MODEL 5
REMARK VINA RESULT:      -6.8      2.110      4.517
REMARK  Name = 
REMARK  8 active torsions:
REMARK  status: ('A' for Active; 'I' for Inactive)
REMARK    1  A    between atoms: C_1  and  C_2
REMARK    2  A    between atoms: C_2  and  C_3
REMARK    3  A    between atoms: C_2  and  O_4
REMARK    4  A    between atoms: C_2  and  C_5
REMARK    5  A    between atoms: C_5  and  N_6
REMARK    6  A    between atoms: N_6  and  C_7
REMARK    7  A    between atoms: C_7  and  C_8
REMARK    8  A    between atoms: N_16  and  C_17
REMARK                            x       y       z     vdW  Elec       q    Type
REMARK                         _______ _______ _______ _____ _____    ______ ____
ROOT
ATOM      1  N   UNL     1       2.369   5.083  18.671  0.00  0.00    +0.000 N 
ATOM      2  C   UNL     1       3.266   4.931  17.636  0.00  0.00    +0.000 C 
ATOM      3  O   UNL     1       3.184   3.977  16.848  0.00  0.00    +0.000 OA
ATOM      4  N   UNL     1       4.240   5.863  17.472  0.00  0.00    +0.000 N 
ATOM      5  H   UNL     1       4.517   6.375  18.292  0.00  0.00    +0.000 HD
ENDROOT
BRANCH   4   6
ATOM      6  C   UNL     1       5.265   5.579  16.472  0.00  0.00    +0.000 C 
ATOM      7  C   UNL     1       5.876   4.178  16.583  0.00  0.00    +0.000 C 
ATOM      8  C   UNL     1       7.371   4.484  16.691  0.00  0.00    +0.000 C 
ATOM      9  C   UNL     1       7.708   5.083  18.055  0.00  0.00    +0.000 C 
ATOM     10  C   UNL     1       7.136   6.495  17.938  0.00  0.00    +0.000 C 
ATOM     11  C   UNL     1       6.532   6.471  16.534  0.00  0.00    +0.000 C 
ATOM     12  O   UNL     1       7.497   5.640  15.835  0.00  0.00    +0.000 OA
ENDBRANCH   4   6
BRANCH   1  13
ATOM     13  C   UNL     1       1.465   3.924  18.837  0.00  0.00    +0.000 C 
BRANCH  13  15
ATOM     14  C   UNL     1       1.263   2.852  21.174  0.00  0.00    +0.000 C 
ATOM     15  C   UNL     1       1.967   2.834  19.811  0.00  0.00    +0.000 C 
ATOM     16  C   UNL     1       3.477   2.973  19.987  0.00  0.00    +0.000 C 
BRANCH  15  17
ATOM     17  O   UNL     1       1.744   1.556  19.190  0.00  0.00    +0.000 OA
ATOM     18  H   UNL     1       2.534   1.003  19.320  0.00  0.00    +0.000 HD
ENDBRANCH  15  17
ENDBRANCH  13  15
ENDBRANCH   1  13
BRANCH   1  19
ATOM     19  C   UNL     1       2.505   5.982  19.831  0.00  0.00    +0.000 C 
BRANCH  19  20
ATOM     20  C   UNL     1       1.955   7.402  19.820  0.00  0.00    +0.000 A 
ATOM     21  C   UNL     1       1.951   8.275  18.729  0.00  0.00    +0.000 A 
ATOM     22  C   UNL     1       1.355   9.548  18.834  0.00  0.00    +0.000 A 
ATOM     23  C   UNL     1       0.761   9.967  20.026  0.00  0.00    +0.000 A 
ATOM     24  C   UNL     1       0.761   9.117  21.124  0.00  0.00    +0.000 A 
ATOM     25  C   UNL     1       1.352   7.854  21.019  0.00  0.00    +0.000 A 
ENDBRANCH  19  20
ENDBRANCH   1  19
TORSDOF 6
ENDMDL
MODEL 6
REMARK VINA RESULT:      -6.8      2.103      4.622
REMARK  Name = 
REMARK  8 active torsions:
REMARK  status: ('A' for Active; 'I' for Inactive)
REMARK    1  A    between atoms: C_1  and  C_2
REMARK    2  A    between atoms: C_2  and  C_3
REMARK    3  A    between atoms: C_2  and  O_4
REMARK    4  A    between atoms: C_2  and  C_5
REMARK    5  A    between atoms: C_5  and  N_6
REMARK    6  A    between atoms: N_6  and  C_7
REMARK    7  A    between atoms: C_7  and  C_8
REMARK    8  A    between atoms: N_16  and  C_17
REMARK                            x       y       z     vdW  Elec       q    Type
REMARK                         _______ _______ _______ _____ _____    ______ ____
ROOT
ATOM      1  N   UNL     1       2.371   5.110  18.714  0.00  0.00    +0.000 N 
ATOM      2  C   UNL     1       3.249   4.945  17.664  0.00  0.00    +0.000 C 
ATOM      3  O   UNL     1       3.139   3.993  16.877  0.00  0.00    +0.000 OA
ATOM      4  N   UNL     1       4.236   5.860  17.487  0.00  0.00    +0.000 N 
ATOM      5  H   UNL     1       4.535   6.366  18.303  0.00  0.00    +0.000 HD
ENDROOT
BRANCH   4   6
ATOM      6  C   UNL     1       5.240   5.561  16.470  0.00  0.00    +0.000 C 
ATOM      7  C   UNL     1       5.846   4.158  16.583  0.00  0.00    +0.000 C 
ATOM      8  C   UNL     1       7.344   4.456  16.659  0.00  0.00    +0.000 C 
ATOM      9  C   UNL     1       7.711   5.067  18.011  0.00  0.00    +0.000 C 
ATOM     10  C   UNL     1       7.144   6.480  17.891  0.00  0.00    +0.000 C 
ATOM     11  C   UNL     1       6.513   6.447  16.499  0.00  0.00    +0.000 C 
ATOM     12  O   UNL     1       7.460   5.603  15.790  0.00  0.00    +0.000 OA
ENDBRANCH   4   6
BRANCH   1  13
ATOM     13  C   UNL     1       1.451   3.966  18.893  0.00  0.00    +0.000 C 
BRANCH  13  15
ATOM     14  C   UNL     1       1.285   2.828  21.201  0.00  0.00    +0.000 C 
ATOM     15  C   UNL     1       1.966   2.848  19.827  0.00  0.00    +0.000 C 
ATOM     16  C   UNL     1       3.478   2.979  19.981  0.00  0.00    +0.000 C 
BRANCH  15  17
ATOM     17  O   UNL     1       1.730   1.589  19.173  0.00  0.00    +0.000 OA
ATOM     18  H   UNL     1       2.580   1.124  19.074  0.00  0.00    +0.000 HD
ENDBRANCH  15  17
ENDBRANCH  13  15
ENDBRANCH   1  13
BRANCH   1  19
ATOM     19  C   UNL     1       2.541   6.005  19.873  0.00  0.00    +0.000 C 
BRANCH  19  20
ATOM     20  C   UNL     1       1.876   7.373  19.939  0.00  0.00    +0.000 A 
ATOM     21  C   UNL     1       1.243   7.928  21.055  0.00  0.00    +0.000 A 
ATOM     22  C   UNL     1       0.718   9.234  21.002  0.00  0.00    +0.000 A 
ATOM     23  C   UNL     1       0.812  10.001  19.839  0.00  0.00    +0.000 A 
ATOM     24  C   UNL     1       1.431   9.466  18.718  0.00  0.00    +0.000 A 
ATOM     25  C   UNL     1       1.953   8.169  18.771  0.00  0.00    +0.000 A 
ENDBRANCH  19  20
ENDBRANCH   1  19
TORSDOF 6
ENDMDL
MODEL 7
REMARK VINA RESULT:      -6.7      2.370      4.717
REMARK  Name = 
REMARK  8 active torsions:
REMARK  status: ('A' for Active; 'I' for Inactive)
REMARK    1  A    between atoms: C_1  and  C_2
REMARK    2  A    between atoms: C_2  and  C_3
REMARK    3  A    between atoms: C_2  and  O_4
REMARK    4  A    between atoms: C_2  and  C_5
REMARK    5  A    between atoms: C_5  and  N_6
REMARK    6  A    between atoms: N_6  and  C_7
REMARK    7  A    between atoms: C_7  and  C_8
REMARK    8  A    between atoms: N_16  and  C_17
REMARK                            x       y       z     vdW  Elec       q    Type
REMARK                         _______ _______ _______ _____ _____    ______ ____
ROOT
ATOM      1  N   UNL     1       2.774   4.684  20.011  0.00  0.00    +0.000 N 
ATOM      2  C   UNL     1       4.022   4.371  19.514  0.00  0.00    +0.000 C 
ATOM      3  O   UNL     1       4.328   3.203  19.233  0.00  0.00    +0.000 OA
ATOM      4  N   UNL     1       4.915   5.373  19.312  0.00  0.00    +0.000 N 
ATOM      5  H   UNL     1       4.803   6.199  19.875  0.00  0.00    +0.000 HD
ENDROOT
BRANCH   4   6
ATOM      6  C   UNL     1       6.274   4.984  18.944  0.00  0.00    +0.000 C 
ATOM      7  C   UNL     1       7.366   5.852  19.577  0.00  0.00    +0.000 C 
ATOM      8  C   UNL     1       8.155   6.323  18.354  0.00  0.00    +0.000 C 
ATOM      9  C   UNL     1       7.359   7.352  17.555  0.00  0.00    +0.000 C 
ATOM     10  C   UNL     1       6.290   6.488  16.888  0.00  0.00    +0.000 C 
ATOM     11  C   UNL     1       6.625   5.100  17.438  0.00  0.00    +0.000 C 
ATOM     12  O   UNL     1       8.074   5.169  17.491  0.00  0.00    +0.000 OA
ENDBRANCH   4   6
BRANCH   1  13
ATOM     13  C   UNL     1       1.959   3.494  20.335  0.00  0.00    +0.000 C 
BRANCH  13  15
ATOM     14  C   UNL     1       1.613   1.541  18.686  0.00  0.00    +0.000 C 
ATOM     15  C   UNL     1       1.136   2.920  19.158  0.00  0.00    +0.000 C 
ATOM     16  C   UNL     1       1.150   3.917  18.003  0.00  0.00    +0.000 C 
BRANCH  15  17
ATOM     17  O   UNL     1      -0.231   2.816  19.592  0.00  0.00    +0.000 OA
ATOM     18  H   UNL     1      -0.535   3.694  19.880  0.00  0.00    +0.000 HD
ENDBRANCH  15  17
ENDBRANCH  13  15
ENDBRANCH   1  13
BRANCH   1  19
ATOM     19  C   UNL     1       2.371   5.951  20.646  0.00  0.00    +0.000 C 
BRANCH  19  20
ATOM     20  C   UNL     1       2.079   7.204  19.832  0.00  0.00    +0.000 A 
ATOM     21  C   UNL     1       2.392   7.403  18.484  0.00  0.00    +0.000 A 
ATOM     22  C   UNL     1       2.012   8.591  17.830  0.00  0.00    +0.000 A 
ATOM     23  C   UNL     1       1.322   9.597  18.509  0.00  0.00    +0.000 A 
ATOM     24  C   UNL     1       1.008   9.423  19.850  0.00  0.00    +0.000 A 
ATOM     25  C   UNL     1       1.385   8.242  20.499  0.00  0.00    +0.000 A 
ENDBRANCH  19  20
ENDBRANCH   1  19
TORSDOF 6
ENDMDL
MODEL 8
REMARK VINA RESULT:      -6.6      1.513      1.715
REMARK  Name = 
REMARK  8 active torsions:
REMARK  status: ('A' for Active; 'I' for Inactive)
REMARK    1  A    between atoms: C_1  and  C_2
REMARK    2  A    between atoms: C_2  and  C_3
REMARK    3  A    between atoms: C_2  and  O_4
REMARK    4  A    between atoms: C_2  and  C_5
REMARK    5  A    between atoms: C_5  and  N_6
REMARK    6  A    between atoms: N_6  and  C_7
REMARK    7  A    between atoms: C_7  and  C_8
REMARK    8  A    between atoms: N_16  and  C_17
REMARK                            x       y       z     vdW  Elec       q    Type
REMARK                         _______ _______ _______ _____ _____    ______ ____
ROOT
ATOM      1  N   UNL     1       2.401   6.968  19.392  0.00  0.00    +0.000 N 
ATOM      2  C   UNL     1       3.349   7.213  18.421  0.00  0.00    +0.000 C 
ATOM      3  O   UNL     1       3.305   8.236  17.722  0.00  0.00    +0.000 OA
ATOM      4  N   UNL     1       4.357   6.319  18.252  0.00  0.00    +0.000 N 
ATOM      5  H   UNL     1       4.172   5.371  18.531  0.00  0.00    +0.000 HD
ENDROOT
BRANCH   4   6
ATOM      6  C   UNL     1       5.242   6.528  17.109  0.00  0.00    +0.000 C 
ATOM      7  C   UNL     1       5.407   5.296  16.212  0.00  0.00    +0.000 C 
ATOM      8  C   UNL     1       6.926   5.117  16.184  0.00  0.00    +0.000 C 
ATOM      9  C   UNL     1       7.439   4.601  17.527  0.00  0.00    +0.000 C 
ATOM     10  C   UNL     1       7.314   5.835  18.417  0.00  0.00    +0.000 C 
ATOM     11  C   UNL     1       6.718   6.859  17.450  0.00  0.00    +0.000 C 
ATOM     12  O   UNL     1       7.383   6.486  16.214  0.00  0.00    +0.000 OA
ENDBRANCH   4   6
BRANCH   1  13
ATOM     13  C   UNL     1       1.276   7.927  19.365  0.00  0.00    +0.000 C 
BRANCH  13  15
ATOM     14  C   UNL     1      -0.247   8.248  21.421  0.00  0.00    +0.000 C 
ATOM     15  C   UNL     1       1.028   8.686  20.689  0.00  0.00    +0.000 C 
ATOM     16  C   UNL     1       0.997  10.186  20.411  0.00  0.00    +0.000 C 
BRANCH  15  17
ATOM     17  O   UNL     1       2.160   8.451  21.545  0.00  0.00    +0.000 OA
ATOM     18  H   UNL     1       2.606   7.636  21.256  0.00  0.00    +0.000 HD
ENDBRANCH  15  17
ENDBRANCH  13  15
ENDBRANCH   1  13
BRANCH   1  19
ATOM     19  C   UNL     1       2.162   5.692  20.089  0.00  0.00    +0.000 C 
BRANCH  19  20
ATOM     20  C   UNL     1       2.424   4.348  19.423  0.00  0.00    +0.000 A 
ATOM     21  C   UNL     1       1.788   3.857  18.279  0.00  0.00    +0.000 A 
ATOM     22  C   UNL     1       2.167   2.617  17.727  0.00  0.00    +0.000 A 
ATOM     23  C   UNL     1       3.177   1.850  18.310  0.00  0.00    +0.000 A 
ATOM     24  C   UNL     1       3.816   2.316  19.451  0.00  0.00    +0.000 A 
ATOM     25  C   UNL     1       3.441   3.548  19.997  0.00  0.00    +0.000 A 
ENDBRANCH  19  20
ENDBRANCH   1  19
TORSDOF 6
ENDMDL
MODEL 9
REMARK VINA RESULT:      -6.6      2.647      6.761
REMARK  Name = 
REMARK  8 active torsions:
REMARK  status: ('A' for Active; 'I' for Inactive)
REMARK    1  A    between atoms: C_1  and  C_2
REMARK    2  A    between atoms: C_2  and  C_3
REMARK    3  A    between atoms: C_2  and  O_4
REMARK    4  A    between atoms: C_2  and  C_5
REMARK    5  A    between atoms: C_5  and  N_6
REMARK    6  A    between atoms: N_6  and  C_7
REMARK    7  A    between atoms: C_7  and  C_8
REMARK    8  A    between atoms: N_16  and  C_17
REMARK                            x       y       z     vdW  Elec       q    Type
REMARK                         _______ _______ _______ _____ _____    ______ ____
ROOT
ATOM      1  N   UNL     1       5.013   5.366  16.670  0.00  0.00    +0.000 N 
ATOM      2  C   UNL     1       3.858   5.425  17.421  0.00  0.00    +0.000 C 
ATOM      3  O   UNL     1       3.621   6.391  18.162  0.00  0.00    +0.000 OA
ATOM      4  N   UNL     1       2.960   4.412  17.321  0.00  0.00    +0.000 N 
ATOM      5  H   UNL     1       3.321   3.515  17.044  0.00  0.00    +0.000 HD
ENDROOT
BRANCH   4   6
ATOM      6  C   UNL     1       1.835   4.431  18.252  0.00  0.00    +0.000 C 
ATOM      7  C   UNL     1       2.198   4.914  19.661  0.00  0.00    +0.000 C 
ATOM      8  C   UNL     1       1.712   3.757  20.536  0.00  0.00    +0.000 C 
ATOM      9  C   UNL     1       2.619   2.538  20.379  0.00  0.00    +0.000 C 
ATOM     10  C   UNL     1       2.236   2.026  18.992  0.00  0.00    +0.000 C 
ATOM     11  C   UNL     1       1.190   3.054  18.558  0.00  0.00    +0.000 C 
ATOM     12  O   UNL     1       0.533   3.326  19.824  0.00  0.00    +0.000 OA
ENDBRANCH   4   6
BRANCH   1  13
ATOM     13  C   UNL     1       5.974   6.443  16.990  0.00  0.00    +0.000 C 
BRANCH  13  15
ATOM     14  C   UNL     1       6.559   5.490  19.313  0.00  0.00    +0.000 C 
ATOM     15  C   UNL     1       7.088   6.054  17.989  0.00  0.00    +0.000 C 
ATOM     16  C   UNL     1       7.982   7.265  18.242  0.00  0.00    +0.000 C 
BRANCH  15  17
ATOM     17  O   UNL     1       7.914   5.061  17.358  0.00  0.00    +0.000 OA
ATOM     18  H   UNL     1       8.504   4.673  18.028  0.00  0.00    +0.000 HD
ENDBRANCH  15  17
ENDBRANCH  13  15
ENDBRANCH   1  13
BRANCH   1  19
ATOM     19  C   UNL     1       5.556   4.182  15.981  0.00  0.00    +0.000 C 
BRANCH  19  20
ATOM     20  C   UNL     1       6.101   4.254  14.561  0.00  0.00    +0.000 A 
ATOM     21  C   UNL     1       7.207   4.998  14.140  0.00  0.00    +0.000 A 
ATOM     22  C   UNL     1       7.646   4.931  12.803  0.00  0.00    +0.000 A 
ATOM     23  C   UNL     1       6.987   4.129  11.870  0.00  0.00    +0.000 A 
ATOM     24  C   UNL     1       5.882   3.389  12.265  0.00  0.00    +0.000 A 
ATOM     25  C   UNL     1       5.447   3.454  13.594  0.00  0.00    +0.000 A 
ENDBRANCH  19  20
ENDBRANCH   1  19
TORSDOF 6
ENDMDL
