MODEL 1
REMARK VINA RESULT:      -9.0      0.000      0.000
REMARK  Name = 
REMARK  6 active torsions:
REMARK  status: ('A' for Active; 'I' for Inactive)
REMARK    1  A    between atoms: C_2  and  C_7
REMARK    2  A    between atoms: N_3  and  C_4
REMARK    3  A    between atoms: C_10  and  C_11
REMARK    4  A    between atoms: N_16  and  C_17
REMARK    5  A    between atoms: C_17  and  C_18
REMARK    6  A    between atoms: N_26  and  C_27
REMARK                            x       y       z     vdW  Elec       q    Type
REMARK                         _______ _______ _______ _____ _____    ______ ____
ROOT
ATOM      1  C   UNL     1       0.479  10.408  20.473  0.00  0.00    +0.000 A 
ATOM      2  C   UNL     1       0.767  11.063  21.706  0.00  0.00    +0.000 A 
ATOM      3  N   UNL     1      -0.011  12.127  21.940  0.00  0.00    +0.000 NA
ATOM      4  N   UNL     1      -0.841  12.112  20.870  0.00  0.00    +0.000 N 
ATOM      5  C   UNL     1      -1.968  12.943  20.730  0.00  0.00    +0.000 A 
ATOM      6  N   UNL     1      -2.223  13.886  21.707  0.00  0.00    +0.000 N 
ATOM      7  N   UNL     1      -2.731  12.758  19.698  0.00  0.00    +0.000 NA
ATOM      8  C   UNL     1      -2.372  11.837  18.742  0.00  0.00    +0.000 A 
ATOM      9  N   UNL     1      -3.197  11.808  17.663  0.00  0.00    +0.000 N 
ATOM     10  N   UNL     1      -1.330  11.055  18.824  0.00  0.00    +0.000 NA
ATOM     11  C   UNL     1      -0.568  11.141  19.945  0.00  0.00    +0.000 A 
ATOM     12  H   UNL     1      -1.432  14.207  22.257  0.00  0.00    +0.000 HD
ATOM     13  H   UNL     1      -3.998  12.419  17.736  0.00  0.00    +0.000 HD
ENDROOT
BRANCH   1  17
ATOM     14  C   UNL     1       2.514   7.053  18.772  0.00  0.00    +0.000 A 
ATOM     15  C   UNL     1       2.063   7.010  20.096  0.00  0.00    +0.000 A 
ATOM     16  C   UNL     1       1.369   8.100  20.637  0.00  0.00    +0.000 A 
ATOM     17  C   UNL     1       1.106   9.242  19.866  0.00  0.00    +0.000 A 
ATOM     18  C   UNL     1       1.505   9.246  18.521  0.00  0.00    +0.000 A 
ATOM     19  C   UNL     1       2.202   8.160  17.977  0.00  0.00    +0.000 A 
BRANCH  14  21
ATOM     20  O   UNL     1       4.214   6.211  17.371  0.00  0.00    +0.000 OA
ATOM     21  C   UNL     1       3.326   5.954  18.177  0.00  0.00    +0.000 C 
ATOM     22  N   UNL     1       3.043   4.681  18.637  0.00  0.00    +0.000 N 
ATOM     23  H   UNL     1       2.418   4.570  19.424  0.00  0.00    +0.000 HD
BRANCH  22  24
ATOM     24  C   UNL     1       3.763   3.527  18.196  0.00  0.00    +0.000 C 
ATOM     25  C   UNL     1       3.889   2.317  19.081  0.00  0.00    +0.000 C 
ATOM     26  C   UNL     1       3.026   2.263  17.855  0.00  0.00    +0.000 C 
ENDBRANCH  22  24
ENDBRANCH  14  21
ENDBRANCH   1  17
BRANCH   9  27
ATOM     27  C   UNL     1      -2.816  11.332  16.358  0.00  0.00    +0.000 C 
ATOM     28  C   UNL     1      -2.357   9.883  16.415  0.00  0.00    +0.000 C 
ATOM     29  C   UNL     1      -2.565   9.366  15.000  0.00  0.00    +0.000 C 
ATOM     30  C   UNL     1      -3.730  10.166  14.424  0.00  0.00    +0.000 C 
ATOM     31  C   UNL     1      -4.023  11.286  15.418  0.00  0.00    +0.000 C 
ENDBRANCH   9  27
BRANCH   6  32
ATOM     32  C   UNL     1      -3.503  14.543  21.851  0.00  0.00    +0.000 C 
BRANCH  32  33
ATOM     33  C   UNL     1      -4.251  14.038  23.096  0.00  0.00    +0.000 C 
ATOM     34  C   UNL     1      -3.499  12.899  23.803  0.00  0.00    +0.000 C 
ATOM     35  C   UNL     1      -4.330  12.320  24.941  0.00  0.00    +0.000 C 
ATOM     36  O   UNL     1      -5.599  11.875  24.465  0.00  0.00    +0.000 OA
ATOM     37  C   UNL     1      -6.371  12.940  23.913  0.00  0.00    +0.000 C 
ATOM     38  C   UNL     1      -5.659  13.550  22.711  0.00  0.00    +0.000 C 
ENDBRANCH  32  33
ENDBRANCH   6  32
TORSDOF 6
ENDMDL
MODEL 2
REMARK VINA RESULT:      -8.8      1.127      1.375
REMARK  Name = 
REMARK  6 active torsions:
REMARK  status: ('A' for Active; 'I' for Inactive)
REMARK    1  A    between atoms: C_2  and  C_7
REMARK    2  A    between atoms: N_3  and  C_4
REMARK    3  A    between atoms: C_10  and  C_11
REMARK    4  A    between atoms: N_16  and  C_17
REMARK    5  A    between atoms: C_17  and  C_18
REMARK    6  A    between atoms: N_26  and  C_27
REMARK                            x       y       z     vdW  Elec       q    Type
REMARK                         _______ _______ _______ _____ _____    ______ ____
ROOT
ATOM      1  C   UNL     1       0.394  10.385  20.652  0.00  0.00    +0.000 A 
ATOM      2  C   UNL     1       0.641  11.045  21.892  0.00  0.00    +0.000 A 
ATOM      3  N   UNL     1      -0.143  12.111  22.095  0.00  0.00    +0.000 NA
ATOM      4  N   UNL     1      -0.936  12.094  20.998  0.00  0.00    +0.000 N 
ATOM      5  C   UNL     1      -2.055  12.926  20.817  0.00  0.00    +0.000 A 
ATOM      6  N   UNL     1      -2.341  13.874  21.781  0.00  0.00    +0.000 N 
ATOM      7  N   UNL     1      -2.784  12.739  19.760  0.00  0.00    +0.000 NA
ATOM      8  C   UNL     1      -2.394  11.813  18.820  0.00  0.00    +0.000 A 
ATOM      9  N   UNL     1      -3.182  11.782  17.714  0.00  0.00    +0.000 N 
ATOM     10  N   UNL     1      -1.357  11.030  18.940  0.00  0.00    +0.000 NA
ATOM     11  C   UNL     1      -0.633  11.119  20.087  0.00  0.00    +0.000 A 
ATOM     12  H   UNL     1      -1.569  14.196  22.356  0.00  0.00    +0.000 HD
ATOM     13  H   UNL     1      -3.984  12.395  17.757  0.00  0.00    +0.000 HD
ENDROOT
BRANCH   1  17
ATOM     14  C   UNL     1       2.479   7.021  19.033  0.00  0.00    +0.000 A 
ATOM     15  C   UNL     1       1.988   6.986  20.343  0.00  0.00    +0.000 A 
ATOM     16  C   UNL     1       1.278   8.078  20.857  0.00  0.00    +0.000 A 
ATOM     17  C   UNL     1       1.039   9.217  20.071  0.00  0.00    +0.000 A 
ATOM     18  C   UNL     1       1.477   9.212  18.739  0.00  0.00    +0.000 A 
ATOM     19  C   UNL     1       2.190   8.123  18.223  0.00  0.00    +0.000 A 
BRANCH  14  21
ATOM     20  O   UNL     1       3.352   4.830  19.035  0.00  0.00    +0.000 OA
ATOM     21  C   UNL     1       3.308   5.918  18.470  0.00  0.00    +0.000 C 
ATOM     22  N   UNL     1       3.951   6.198  17.277  0.00  0.00    +0.000 N 
ATOM     23  H   UNL     1       3.730   7.055  16.789  0.00  0.00    +0.000 HD
BRANCH  22  24
ATOM     24  C   UNL     1       4.748   5.231  16.590  0.00  0.00    +0.000 C 
ATOM     25  C   UNL     1       5.549   5.620  15.377  0.00  0.00    +0.000 C 
ATOM     26  C   UNL     1       6.247   5.298  16.665  0.00  0.00    +0.000 C 
ENDBRANCH  22  24
ENDBRANCH  14  21
ENDBRANCH   1  17
BRANCH   9  27
ATOM     27  C   UNL     1      -2.758  11.300  16.424  0.00  0.00    +0.000 C 
ATOM     28  C   UNL     1      -2.374   9.829  16.487  0.00  0.00    +0.000 C 
ATOM     29  C   UNL     1      -2.534   9.337  15.057  0.00  0.00    +0.000 C 
ATOM     30  C   UNL     1      -3.627  10.199  14.433  0.00  0.00    +0.000 C 
ATOM     31  C   UNL     1      -3.916  11.323  15.423  0.00  0.00    +0.000 C 
ENDBRANCH   9  27
BRANCH   6  32
ATOM     32  C   UNL     1      -3.625  14.534  21.879  0.00  0.00    +0.000 C 
BRANCH  32  33
ATOM     33  C   UNL     1      -4.416  14.035  23.099  0.00  0.00    +0.000 C 
ATOM     34  C   UNL     1      -3.684  12.905  23.842  0.00  0.00    +0.000 C 
ATOM     35  C   UNL     1      -4.555  12.330  24.953  0.00  0.00    +0.000 C 
ATOM     36  O   UNL     1      -5.803  11.876  24.434  0.00  0.00    +0.000 OA
ATOM     37  C   UNL     1      -6.558  12.932  23.845  0.00  0.00    +0.000 C 
ATOM     38  C   UNL     1      -5.805  13.536  22.666  0.00  0.00    +0.000 C 
ENDBRANCH  32  33
ENDBRANCH   6  32
TORSDOF 6
ENDMDL
MODEL 3
REMARK VINA RESULT:      -8.8      3.044      4.194
REMARK  Name = 
REMARK  6 active torsions:
REMARK  status: ('A' for Active; 'I' for Inactive)
REMARK    1  A    between atoms: C_2  and  C_7
REMARK    2  A    between atoms: N_3  and  C_4
REMARK    3  A    between atoms: C_10  and  C_11
REMARK    4  A    between atoms: N_16  and  C_17
REMARK    5  A    between atoms: C_17  and  C_18
REMARK    6  A    between atoms: N_26  and  C_27
REMARK                            x       y       z     vdW  Elec       q    Type
REMARK                         _______ _______ _______ _____ _____    ______ ____
ROOT
ATOM      1  C   UNL     1       0.522   9.357  21.321  0.00  0.00    +0.000 A 
ATOM      2  C   UNL     1      -0.427   9.060  22.342  0.00  0.00    +0.000 A 
ATOM      3  N   UNL     1      -0.933  10.147  22.935  0.00  0.00    +0.000 NA
ATOM      4  N   UNL     1      -0.342  11.149  22.242  0.00  0.00    +0.000 N 
ATOM      5  C   UNL     1      -0.678  12.509  22.374  0.00  0.00    +0.000 A 
ATOM      6  N   UNL     1      -1.624  12.871  23.313  0.00  0.00    +0.000 N 
ATOM      7  N   UNL     1      -0.098  13.355  21.580  0.00  0.00    +0.000 NA
ATOM      8  C   UNL     1       0.877  12.918  20.714  0.00  0.00    +0.000 A 
ATOM      9  N   UNL     1       1.479  13.911  20.010  0.00  0.00    +0.000 N 
ATOM     10  N   UNL     1       1.230  11.669  20.568  0.00  0.00    +0.000 NA
ATOM     11  C   UNL     1       0.565  10.739  21.302  0.00  0.00    +0.000 A 
ATOM     12  H   UNL     1      -1.754  12.247  24.103  0.00  0.00    +0.000 HD
ATOM     13  H   UNL     1       1.086  14.829  20.168  0.00  0.00    +0.000 HD
ENDROOT
BRANCH   1  17
ATOM     14  C   UNL     1       2.593   6.657  18.730  0.00  0.00    +0.000 A 
ATOM     15  C   UNL     1       2.251   7.940  18.288  0.00  0.00    +0.000 A 
ATOM     16  C   UNL     1       1.602   8.831  19.152  0.00  0.00    +0.000 A 
ATOM     17  C   UNL     1       1.292   8.461  20.470  0.00  0.00    +0.000 A 
ATOM     18  C   UNL     1       1.700   7.197  20.921  0.00  0.00    +0.000 A 
ATOM     19  C   UNL     1       2.347   6.302  20.060  0.00  0.00    +0.000 A 
BRANCH  14  21
ATOM     20  O   UNL     1       2.579   4.651  17.492  0.00  0.00    +0.000 OA
ATOM     21  C   UNL     1       3.212   5.648  17.825  0.00  0.00    +0.000 C 
ATOM     22  N   UNL     1       4.482   5.948  17.369  0.00  0.00    +0.000 N 
ATOM     23  H   UNL     1       4.867   6.865  17.551  0.00  0.00    +0.000 HD
BRANCH  22  24
ATOM     24  C   UNL     1       5.191   5.101  16.460  0.00  0.00    +0.000 C 
ATOM     25  C   UNL     1       5.541   5.583  15.078  0.00  0.00    +0.000 C 
ATOM     26  C   UNL     1       6.620   5.404  16.105  0.00  0.00    +0.000 C 
ENDBRANCH  22  24
ENDBRANCH  14  21
ENDBRANCH   1  17
BRANCH   9  27
ATOM     27  C   UNL     1       2.796  13.820  19.433  0.00  0.00    +0.000 C 
ATOM     28  C   UNL     1       2.857  14.532  18.089  0.00  0.00    +0.000 C 
ATOM     29  C   UNL     1       4.328  14.866  17.907  0.00  0.00    +0.000 C 
ATOM     30  C   UNL     1       4.901  15.040  19.310  0.00  0.00    +0.000 C 
ATOM     31  C   UNL     1       3.820  14.576  20.283  0.00  0.00    +0.000 C 
ENDBRANCH   9  27
BRANCH   6  32
ATOM     32  C   UNL     1      -2.290  14.155  23.304  0.00  0.00    +0.000 C 
BRANCH  32  33
ATOM     33  C   UNL     1      -3.817  13.991  23.352  0.00  0.00    +0.000 C 
ATOM     34  C   UNL     1      -4.252  12.884  24.327  0.00  0.00    +0.000 C 
ATOM     35  C   UNL     1      -5.754  12.642  24.243  0.00  0.00    +0.000 C 
ATOM     36  O   UNL     1      -6.142  12.328  22.907  0.00  0.00    +0.000 OA
ATOM     37  C   UNL     1      -5.861  13.392  22.000  0.00  0.00    +0.000 C 
ATOM     38  C   UNL     1      -4.364  13.671  21.950  0.00  0.00    +0.000 C 
ENDBRANCH  32  33
ENDBRANCH   6  32
TORSDOF 6
ENDMDL
MODEL 4
REMARK VINA RESULT:      -8.8      3.056      4.111
REMARK  Name = 
REMARK  6 active torsions:
REMARK  status: ('A' for Active; 'I' for Inactive)
REMARK    1  A    between atoms: C_2  and  C_7
REMARK    2  A    between atoms: N_3  and  C_4
REMARK    3  A    between atoms: C_10  and  C_11
REMARK    4  A    between atoms: N_16  and  C_17
REMARK    5  A    between atoms: C_17  and  C_18
REMARK    6  A    between atoms: N_26  and  C_27
REMARK                            x       y       z     vdW  Elec       q    Type
REMARK                         _______ _______ _______ _____ _____    ______ ____
ROOT
ATOM      1  C   UNL     1       0.465   9.407  21.260  0.00  0.00    +0.000 A 
ATOM      2  C   UNL     1      -0.435   9.091  22.319  0.00  0.00    +0.000 A 
ATOM      3  N   UNL     1      -0.908  10.167  22.959  0.00  0.00    +0.000 NA
ATOM      4  N   UNL     1      -0.346  11.182  22.260  0.00  0.00    +0.000 N 
ATOM      5  C   UNL     1      -0.670  12.539  22.437  0.00  0.00    +0.000 A 
ATOM      6  N   UNL     1      -1.568  12.884  23.428  0.00  0.00    +0.000 N 
ATOM      7  N   UNL     1      -0.126  13.401  21.634  0.00  0.00    +0.000 NA
ATOM      8  C   UNL     1       0.805  12.979  20.713  0.00  0.00    +0.000 A 
ATOM      9  N   UNL     1       1.376  13.986  20.002  0.00  0.00    +0.000 N 
ATOM     10  N   UNL     1       1.145  11.733  20.523  0.00  0.00    +0.000 NA
ATOM     11  C   UNL     1       0.512  10.789  21.269  0.00  0.00    +0.000 A 
ATOM     12  H   UNL     1      -1.662  12.243  24.210  0.00  0.00    +0.000 HD
ATOM     13  H   UNL     1       0.995  14.901  20.198  0.00  0.00    +0.000 HD
ENDROOT
BRANCH   1  17
ATOM     14  C   UNL     1       2.780   6.887  18.696  0.00  0.00    +0.000 A 
ATOM     15  C   UNL     1       2.384   6.437  19.960  0.00  0.00    +0.000 A 
ATOM     16  C   UNL     1       1.598   7.255  20.783  0.00  0.00    +0.000 A 
ATOM     17  C   UNL     1       1.189   8.527  20.354  0.00  0.00    +0.000 A 
ATOM     18  C   UNL     1       1.536   8.939  19.059  0.00  0.00    +0.000 A 
ATOM     19  C   UNL     1       2.324   8.125  18.235  0.00  0.00    +0.000 A 
BRANCH  14  21
ATOM     20  O   UNL     1       3.310   5.004  17.378  0.00  0.00    +0.000 OA
ATOM     21  C   UNL     1       3.682   6.087  17.819  0.00  0.00    +0.000 C 
ATOM     22  N   UNL     1       4.897   6.672  17.513  0.00  0.00    +0.000 N 
ATOM     23  H   UNL     1       5.059   7.636  17.774  0.00  0.00    +0.000 HD
BRANCH  22  24
ATOM     24  C   UNL     1       5.853   6.051  16.650  0.00  0.00    +0.000 C 
ATOM     25  C   UNL     1       7.327   6.262  16.861  0.00  0.00    +0.000 C 
ATOM     26  C   UNL     1       6.711   4.927  17.160  0.00  0.00    +0.000 C 
ENDBRANCH  22  24
ENDBRANCH  14  21
ENDBRANCH   1  17
BRANCH   9  27
ATOM     27  C   UNL     1       2.663  13.903  19.360  0.00  0.00    +0.000 C 
ATOM     28  C   UNL     1       2.701  14.749  18.096  0.00  0.00    +0.000 C 
ATOM     29  C   UNL     1       4.178  15.041  17.884  0.00  0.00    +0.000 C 
ATOM     30  C   UNL     1       4.814  15.043  19.271  0.00  0.00    +0.000 C 
ATOM     31  C   UNL     1       3.753  14.522  20.237  0.00  0.00    +0.000 C 
ENDBRANCH   9  27
BRANCH   6  32
ATOM     32  C   UNL     1      -2.229  14.170  23.479  0.00  0.00    +0.000 C 
BRANCH  32  33
ATOM     33  C   UNL     1      -3.757  14.013  23.464  0.00  0.00    +0.000 C 
ATOM     34  C   UNL     1      -4.232  12.873  24.381  0.00  0.00    +0.000 C 
ATOM     35  C   UNL     1      -5.731  12.643  24.232  0.00  0.00    +0.000 C 
ATOM     36  O   UNL     1      -6.071  12.379  22.872  0.00  0.00    +0.000 OA
ATOM     37  C   UNL     1      -5.752  13.474  22.016  0.00  0.00    +0.000 C 
ATOM     38  C   UNL     1      -4.253  13.747  22.031  0.00  0.00    +0.000 C 
ENDBRANCH  32  33
ENDBRANCH   6  32
TORSDOF 6
ENDMDL
MODEL 5
REMARK VINA RESULT:      -8.6      0.794      1.423
REMARK  Name = 
REMARK  6 active torsions:
REMARK  status: ('A' for Active; 'I' for Inactive)
REMARK    1  A    between atoms: C_2  and  C_7
REMARK    2  A    between atoms: N_3  and  C_4
REMARK    3  A    between atoms: C_10  and  C_11
REMARK    4  A    between atoms: N_16  and  C_17
REMARK    5  A    between atoms: C_17  and  C_18
REMARK    6  A    between atoms: N_26  and  C_27
REMARK                            x       y       z     vdW  Elec       q    Type
REMARK                         _______ _______ _______ _____ _____    ______ ____
ROOT
ATOM      1  C   UNL     1       0.250  10.456  20.721  0.00  0.00    +0.000 A 
ATOM      2  C   UNL     1       0.403  11.072  21.997  0.00  0.00    +0.000 A 
ATOM      3  N   UNL     1      -0.492  12.040  22.234  0.00  0.00    +0.000 NA
ATOM      4  N   UNL     1      -1.258  11.997  21.118  0.00  0.00    +0.000 N 
ATOM      5  C   UNL     1      -2.455  12.717  20.952  0.00  0.00    +0.000 A 
ATOM      6  N   UNL     1      -2.856  13.579  21.955  0.00  0.00    +0.000 N 
ATOM      7  N   UNL     1      -3.139  12.511  19.870  0.00  0.00    +0.000 NA
ATOM      8  C   UNL     1      -2.637  11.681  18.895  0.00  0.00    +0.000 A 
ATOM      9  N   UNL     1      -3.396  11.626  17.770  0.00  0.00    +0.000 N 
ATOM     10  N   UNL     1      -1.526  11.003  19.001  0.00  0.00    +0.000 NA
ATOM     11  C   UNL     1      -0.837  11.107  20.168  0.00  0.00    +0.000 A 
ATOM     12  H   UNL     1      -2.133  13.949  22.564  0.00  0.00    +0.000 HD
ATOM     13  H   UNL     1      -4.259  12.149  17.824  0.00  0.00    +0.000 HD
ENDROOT
BRANCH   1  17
ATOM     14  C   UNL     1       2.336   7.252  18.804  0.00  0.00    +0.000 A 
ATOM     15  C   UNL     1       2.069   8.438  18.111  0.00  0.00    +0.000 A 
ATOM     16  C   UNL     1       1.413   9.496  18.754  0.00  0.00    +0.000 A 
ATOM     17  C   UNL     1       1.024   9.392  20.098  0.00  0.00    +0.000 A 
ATOM     18  C   UNL     1       1.358   8.225  20.801  0.00  0.00    +0.000 A 
ATOM     19  C   UNL     1       2.010   7.164  20.161  0.00  0.00    +0.000 A 
BRANCH  14  21
ATOM     20  O   UNL     1       3.813   6.230  17.276  0.00  0.00    +0.000 OA
ATOM     21  C   UNL     1       2.958   6.071  18.141  0.00  0.00    +0.000 C 
ATOM     22  N   UNL     1       2.545   4.835  18.605  0.00  0.00    +0.000 N 
ATOM     23  H   UNL     1       1.966   4.788  19.432  0.00  0.00    +0.000 HD
BRANCH  22  24
ATOM     24  C   UNL     1       3.079   3.609  18.100  0.00  0.00    +0.000 C 
ATOM     25  C   UNL     1       3.203   2.403  18.991  0.00  0.00    +0.000 C 
ATOM     26  C   UNL     1       2.179   2.423  17.894  0.00  0.00    +0.000 C 
ENDBRANCH  22  24
ENDBRANCH  14  21
ENDBRANCH   1  17
BRANCH   9  27
ATOM     27  C   UNL     1      -2.900  11.258  16.468  0.00  0.00    +0.000 C 
ATOM     28  C   UNL     1      -2.404   9.820  16.456  0.00  0.00    +0.000 C 
ATOM     29  C   UNL     1      -2.485   9.405  14.995  0.00  0.00    +0.000 C 
ATOM     30  C   UNL     1      -3.624  10.219  14.387  0.00  0.00    +0.000 C 
ATOM     31  C   UNL     1      -4.027  11.254  15.432  0.00  0.00    +0.000 C 
ENDBRANCH   9  27
BRANCH   6  32
ATOM     32  C   UNL     1      -4.203  14.096  22.054  0.00  0.00    +0.000 C 
BRANCH  32  33
ATOM     33  C   UNL     1      -5.187  13.006  22.506  0.00  0.00    +0.000 C 
ATOM     34  C   UNL     1      -6.454  12.970  21.635  0.00  0.00    +0.000 C 
ATOM     35  C   UNL     1      -7.473  11.985  22.195  0.00  0.00    +0.000 C 
ATOM     36  O   UNL     1      -7.792  12.301  23.549  0.00  0.00    +0.000 OA
ATOM     37  C   UNL     1      -6.654  12.221  24.403  0.00  0.00    +0.000 C 
ATOM     38  C   UNL     1      -5.591  13.226  23.974  0.00  0.00    +0.000 C 
ENDBRANCH  32  33
ENDBRANCH   6  32
TORSDOF 6
ENDMDL
MODEL 6
REMARK VINA RESULT:      -8.6      2.845      3.911
REMARK  Name = 
REMARK  6 active torsions:
REMARK  status: ('A' for Active; 'I' for Inactive)
REMARK    1  A    between atoms: C_2  and  C_7
REMARK    2  A    between atoms: N_3  and  C_4
REMARK    3  A    between atoms: C_10  and  C_11
REMARK    4  A    between atoms: N_16  and  C_17
REMARK    5  A    between atoms: C_17  and  C_18
REMARK    6  A    between atoms: N_26  and  C_27
REMARK                            x       y       z     vdW  Elec       q    Type
REMARK                         _______ _______ _______ _____ _____    ______ ____
ROOT
ATOM      1  C   UNL     1       0.462   9.561  21.428  0.00  0.00    +0.000 A 
ATOM      2  C   UNL     1      -0.435   9.281  22.500  0.00  0.00    +0.000 A 
ATOM      3  N   UNL     1      -0.945  10.379  23.071  0.00  0.00    +0.000 NA
ATOM      4  N   UNL     1      -0.411  11.367  22.314  0.00  0.00    +0.000 N 
ATOM      5  C   UNL     1      -0.778  12.722  22.406  0.00  0.00    +0.000 A 
ATOM      6  N   UNL     1      -1.693  13.098  23.371  0.00  0.00    +0.000 N 
ATOM      7  N   UNL     1      -0.255  13.549  21.555  0.00  0.00    +0.000 NA
ATOM      8  C   UNL     1       0.694  13.101  20.665  0.00  0.00    +0.000 A 
ATOM      9  N   UNL     1       1.238  14.080  19.897  0.00  0.00    +0.000 N 
ATOM     10  N   UNL     1       1.074  11.857  20.553  0.00  0.00    +0.000 NA
ATOM     11  C   UNL     1       0.466  10.942  21.353  0.00  0.00    +0.000 A 
ATOM     12  H   UNL     1      -1.772  12.503  24.190  0.00  0.00    +0.000 HD
ATOM     13  H   UNL     1       0.828  14.994  20.035  0.00  0.00    +0.000 HD
ENDROOT
BRANCH   1  17
ATOM     14  C   UNL     1       2.495   6.825  18.845  0.00  0.00    +0.000 A 
ATOM     15  C   UNL     1       2.192   8.119  18.408  0.00  0.00    +0.000 A 
ATOM     16  C   UNL     1       1.554   9.021  19.269  0.00  0.00    +0.000 A 
ATOM     17  C   UNL     1       1.219   8.650  20.581  0.00  0.00    +0.000 A 
ATOM     18  C   UNL     1       1.588   7.374  21.029  0.00  0.00    +0.000 A 
ATOM     19  C   UNL     1       2.222   6.468  20.169  0.00  0.00    +0.000 A 
BRANCH  14  21
ATOM     20  O   UNL     1       3.979   6.127  17.151  0.00  0.00    +0.000 OA
ATOM     21  C   UNL     1       3.098   5.805  17.941  0.00  0.00    +0.000 C 
ATOM     22  N   UNL     1       2.638   4.511  18.102  0.00  0.00    +0.000 N 
ATOM     23  H   UNL     1       2.037   4.297  18.887  0.00  0.00    +0.000 HD
BRANCH  22  24
ATOM     24  C   UNL     1       3.149   3.414  17.341  0.00  0.00    +0.000 C 
ATOM     25  C   UNL     1       3.924   2.312  18.010  0.00  0.00    +0.000 C 
ATOM     26  C   UNL     1       2.543   2.047  17.488  0.00  0.00    +0.000 C 
ENDBRANCH  22  24
ENDBRANCH  14  21
ENDBRANCH   1  17
BRANCH   9  27
ATOM     27  C   UNL     1       2.531  13.999  19.267  0.00  0.00    +0.000 C 
ATOM     28  C   UNL     1       2.640  14.979  18.108  0.00  0.00    +0.000 C 
ATOM     29  C   UNL     1       4.134  15.211  17.950  0.00  0.00    +0.000 C 
ATOM     30  C   UNL     1       4.741  15.021  19.337  0.00  0.00    +0.000 C 
ATOM     31  C   UNL     1       3.636  14.455  20.223  0.00  0.00    +0.000 C 
ENDBRANCH   9  27
BRANCH   6  32
ATOM     32  C   UNL     1      -2.393  14.363  23.339  0.00  0.00    +0.000 C 
BRANCH  32  33
ATOM     33  C   UNL     1      -3.913  14.156  23.254  0.00  0.00    +0.000 C 
ATOM     34  C   UNL     1      -4.412  13.097  24.251  0.00  0.00    +0.000 C 
ATOM     35  C   UNL     1      -5.893  12.806  24.041  0.00  0.00    +0.000 C 
ATOM     36  O   UNL     1      -6.145  12.401  22.697  0.00  0.00    +0.000 OA
ATOM     37  C   UNL     1      -5.804  13.416  21.756  0.00  0.00    +0.000 C 
ATOM     38  C   UNL     1      -4.316  13.736  21.829  0.00  0.00    +0.000 C 
ENDBRANCH  32  33
ENDBRANCH   6  32
TORSDOF 6
ENDMDL
MODEL 7
REMARK VINA RESULT:      -8.6      0.901      1.128
REMARK  Name = 
REMARK  6 active torsions:
REMARK  status: ('A' for Active; 'I' for Inactive)
REMARK    1  A    between atoms: C_2  and  C_7
REMARK    2  A    between atoms: N_3  and  C_4
REMARK    3  A    between atoms: C_10  and  C_11
REMARK    4  A    between atoms: N_16  and  C_17
REMARK    5  A    between atoms: C_17  and  C_18
REMARK    6  A    between atoms: N_26  and  C_27
REMARK                            x       y       z     vdW  Elec       q    Type
REMARK                         _______ _______ _______ _____ _____    ______ ____
ROOT
ATOM      1  C   UNL     1       0.114  11.238  20.223  0.00  0.00    +0.000 A 
ATOM      2  C   UNL     1       0.597  12.212  21.146  0.00  0.00    +0.000 A 
ATOM      3  N   UNL     1      -0.271  13.204  21.379  0.00  0.00    +0.000 NA
ATOM      4  N   UNL     1      -1.340  12.826  20.639  0.00  0.00    +0.000 N 
ATOM      5  C   UNL     1      -2.595  13.460  20.679  0.00  0.00    +0.000 A 
ATOM      6  N   UNL     1      -2.747  14.584  21.468  0.00  0.00    +0.000 N 
ATOM      7  N   UNL     1      -3.560  12.936  19.989  0.00  0.00    +0.000 NA
ATOM      8  C   UNL     1      -3.308  11.850  19.182  0.00  0.00    +0.000 A 
ATOM      9  N   UNL     1      -4.372  11.456  18.435  0.00  0.00    +0.000 N 
ATOM     10  N   UNL     1      -2.157  11.238  19.104  0.00  0.00    +0.000 NA
ATOM     11  C   UNL     1      -1.152  11.690  19.898  0.00  0.00    +0.000 A 
ATOM     12  H   UNL     1      -1.910  15.121  21.673  0.00  0.00    +0.000 HD
ATOM     13  H   UNL     1      -5.222  11.970  18.619  0.00  0.00    +0.000 HD
ENDROOT
BRANCH   1  17
ATOM     14  C   UNL     1       2.197   7.792  18.785  0.00  0.00    +0.000 A 
ATOM     15  C   UNL     1       1.796   7.869  20.123  0.00  0.00    +0.000 A 
ATOM     16  C   UNL     1       1.086   8.986  20.581  0.00  0.00    +0.000 A 
ATOM     17  C   UNL     1       0.757  10.037  19.711  0.00  0.00    +0.000 A 
ATOM     18  C   UNL     1       1.106   9.917  18.357  0.00  0.00    +0.000 A 
ATOM     19  C   UNL     1       1.819   8.803  17.897  0.00  0.00    +0.000 A 
BRANCH  14  21
ATOM     20  O   UNL     1       4.044   6.890  17.628  0.00  0.00    +0.000 OA
ATOM     21  C   UNL     1       3.024   6.663  18.271  0.00  0.00    +0.000 C 
ATOM     22  N   UNL     1       2.590   5.395  18.614  0.00  0.00    +0.000 N 
ATOM     23  H   UNL     1       1.840   5.297  19.286  0.00  0.00    +0.000 HD
BRANCH  22  24
ATOM     24  C   UNL     1       3.298   4.213  18.234  0.00  0.00    +0.000 C 
ATOM     25  C   UNL     1       2.784   2.853  18.623  0.00  0.00    +0.000 C 
ATOM     26  C   UNL     1       2.727   3.295  17.190  0.00  0.00    +0.000 C 
ENDBRANCH  22  24
ENDBRANCH  14  21
ENDBRANCH   1  17
BRANCH   9  27
ATOM     27  C   UNL     1      -4.275  10.713  17.205  0.00  0.00    +0.000 C 
ATOM     28  C   UNL     1      -3.834  11.608  16.056  0.00  0.00    +0.000 C 
ATOM     29  C   UNL     1      -3.221  10.650  15.047  0.00  0.00    +0.000 C 
ATOM     30  C   UNL     1      -2.663   9.483  15.855  0.00  0.00    +0.000 C 
ATOM     31  C   UNL     1      -3.164   9.663  17.285  0.00  0.00    +0.000 C 
ENDBRANCH   9  27
BRANCH   6  32
ATOM     32  C   UNL     1      -4.039  15.105  21.854  0.00  0.00    +0.000 C 
BRANCH  32  33
ATOM     33  C   UNL     1      -4.570  14.401  23.113  0.00  0.00    +0.000 C 
ATOM     34  C   UNL     1      -3.542  13.426  23.710  0.00  0.00    +0.000 C 
ATOM     35  C   UNL     1      -4.147  12.635  24.864  0.00  0.00    +0.000 C 
ATOM     36  O   UNL     1      -5.322  11.945  24.444  0.00  0.00    +0.000 OA
ATOM     37  C   UNL     1      -6.341  12.837  23.999  0.00  0.00    +0.000 C 
ATOM     38  C   UNL     1      -5.865  13.634  22.791  0.00  0.00    +0.000 C 
ENDBRANCH  32  33
ENDBRANCH   6  32
TORSDOF 6
ENDMDL
MODEL 8
REMARK VINA RESULT:      -8.5      2.180      2.609
REMARK  Name = 
REMARK  6 active torsions:
REMARK  status: ('A' for Active; 'I' for Inactive)
REMARK    1  A    between atoms: C_2  and  C_7
REMARK    2  A    between atoms: N_3  and  C_4
REMARK    3  A    between atoms: C_10  and  C_11
REMARK    4  A    between atoms: N_16  and  C_17
REMARK    5  A    between atoms: C_17  and  C_18
REMARK    6  A    between atoms: N_26  and  C_27
REMARK                            x       y       z     vdW  Elec       q    Type
REMARK                         _______ _______ _______ _____ _____    ______ ____
ROOT
ATOM      1  C   UNL     1       1.020   8.955  20.976  0.00  0.00    +0.000 A 
ATOM      2  C   UNL     1       1.380   9.280  22.316  0.00  0.00    +0.000 A 
ATOM      3  N   UNL     1       0.704  10.322  22.814  0.00  0.00    +0.000 NA
ATOM      4  N   UNL     1      -0.136  10.628  21.796  0.00  0.00    +0.000 N 
ATOM      5  C   UNL     1      -1.184  11.562  21.888  0.00  0.00    +0.000 A 
ATOM      6  N   UNL     1      -1.341  12.271  23.063  0.00  0.00    +0.000 N 
ATOM      7  N   UNL     1      -1.972  11.688  20.866  0.00  0.00    +0.000 NA
ATOM      8  C   UNL     1      -1.709  10.986  19.712  0.00  0.00    +0.000 A 
ATOM      9  N   UNL     1      -2.545  11.279  18.683  0.00  0.00    +0.000 N 
ATOM     10  N   UNL     1      -0.742  10.120  19.578  0.00  0.00    +0.000 NA
ATOM     11  C   UNL     1       0.038   9.878  20.665  0.00  0.00    +0.000 A 
ATOM     12  H   UNL     1      -0.518  12.386  23.646  0.00  0.00    +0.000 HD
ATOM     13  H   UNL     1      -3.287  11.923  18.920  0.00  0.00    +0.000 HD
ENDROOT
BRANCH   1  17
ATOM     14  C   UNL     1       2.716   5.908  18.501  0.00  0.00    +0.000 A 
ATOM     15  C   UNL     1       2.154   5.582  19.740  0.00  0.00    +0.000 A 
ATOM     16  C   UNL     1       1.571   6.579  20.531  0.00  0.00    +0.000 A 
ATOM     17  C   UNL     1       1.531   7.913  20.097  0.00  0.00    +0.000 A 
ATOM     18  C   UNL     1       2.038   8.216  18.825  0.00  0.00    +0.000 A 
ATOM     19  C   UNL     1       2.624   7.221  18.031  0.00  0.00    +0.000 A 
BRANCH  14  21
ATOM     20  O   UNL     1       3.043   3.729  17.660  0.00  0.00    +0.000 OA
ATOM     21  C   UNL     1       3.418   4.897  17.660  0.00  0.00    +0.000 C 
ATOM     22  N   UNL     1       4.447   5.380  16.873  0.00  0.00    +0.000 N 
ATOM     23  H   UNL     1       4.584   6.379  16.800  0.00  0.00    +0.000 HD
BRANCH  22  24
ATOM     24  C   UNL     1       5.189   4.544  15.980  0.00  0.00    +0.000 C 
ATOM     25  C   UNL     1       6.133   5.145  14.974  0.00  0.00    +0.000 C 
ATOM     26  C   UNL     1       6.673   4.388  16.152  0.00  0.00    +0.000 C 
ENDBRANCH  22  24
ENDBRANCH  14  21
ENDBRANCH   1  17
BRANCH   9  27
ATOM     27  C   UNL     1      -2.224  11.088  17.291  0.00  0.00    +0.000 C 
ATOM     28  C   UNL     1      -2.154   9.609  16.942  0.00  0.00    +0.000 C 
ATOM     29  C   UNL     1      -2.406   9.564  15.443  0.00  0.00    +0.000 C 
ATOM     30  C   UNL     1      -3.293  10.764  15.126  0.00  0.00    +0.000 C 
ATOM     31  C   UNL     1      -3.347  11.613  16.393  0.00  0.00    +0.000 C 
ENDBRANCH   9  27
BRANCH   6  32
ATOM     32  C   UNL     1      -2.555  12.983  23.395  0.00  0.00    +0.000 C 
BRANCH  32  33
ATOM     33  C   UNL     1      -2.328  14.503  23.390  0.00  0.00    +0.000 C 
ATOM     34  C   UNL     1      -1.229  14.930  24.377  0.00  0.00    +0.000 C 
ATOM     35  C   UNL     1      -1.129  16.448  24.459  0.00  0.00    +0.000 C 
ATOM     36  O   UNL     1      -2.386  17.020  24.816  0.00  0.00    +0.000 OA
ATOM     37  C   UNL     1      -3.398  16.741  23.851  0.00  0.00    +0.000 C 
ATOM     38  C   UNL     1      -3.633  15.239  23.739  0.00  0.00    +0.000 C 
ENDBRANCH  32  33
ENDBRANCH   6  32
TORSDOF 6
ENDMDL
MODEL 9
REMARK VINA RESULT:      -8.4      2.404      9.444
REMARK  Name = 
REMARK  6 active torsions:
REMARK  status: ('A' for Active; 'I' for Inactive)
REMARK    1  A    between atoms: C_2  and  C_7
REMARK    2  A    between atoms: N_3  and  C_4
REMARK    3  A    between atoms: C_10  and  C_11
REMARK    4  A    between atoms: N_16  and  C_17
REMARK    5  A    between atoms: C_17  and  C_18
REMARK    6  A    between atoms: N_26  and  C_27
REMARK                            x       y       z     vdW  Elec       q    Type
REMARK                         _______ _______ _______ _____ _____    ______ ____
ROOT
ATOM      1  C   UNL     1      -0.846  10.964  22.684  0.00  0.00    +0.000 A 
ATOM      2  C   UNL     1      -0.134  10.021  23.480  0.00  0.00    +0.000 A 
ATOM      3  N   UNL     1       0.479   9.071  22.764  0.00  0.00    +0.000 NA
ATOM      4  N   UNL     1       0.200   9.449  21.494  0.00  0.00    +0.000 N 
ATOM      5  C   UNL     1       0.767   8.860  20.349  0.00  0.00    +0.000 A 
ATOM      6  N   UNL     1       1.616   7.781  20.509  0.00  0.00    +0.000 N 
ATOM      7  N   UNL     1       0.484   9.382  19.197  0.00  0.00    +0.000 NA
ATOM      8  C   UNL     1      -0.418  10.419  19.122  0.00  0.00    +0.000 A 
ATOM      9  N   UNL     1      -0.707  10.811  17.854  0.00  0.00    +0.000 N 
ATOM     10  N   UNL     1      -0.978  10.987  20.155  0.00  0.00    +0.000 NA
ATOM     11  C   UNL     1      -0.620  10.540  21.388  0.00  0.00    +0.000 A 
ATOM     12  H   UNL     1       1.505   7.227  21.352  0.00  0.00    +0.000 HD
ATOM     13  H   UNL     1      -0.173  10.336  17.140  0.00  0.00    +0.000 HD
ENDROOT
BRANCH   1  17
ATOM     14  C   UNL     1      -3.260  14.356  23.662  0.00  0.00    +0.000 A 
ATOM     15  C   UNL     1      -3.787  13.063  23.753  0.00  0.00    +0.000 A 
ATOM     16  C   UNL     1      -2.981  11.954  23.463  0.00  0.00    +0.000 A 
ATOM     17  C   UNL     1      -1.639  12.117  23.086  0.00  0.00    +0.000 A 
ATOM     18  C   UNL     1      -1.105  13.414  23.064  0.00  0.00    +0.000 A 
ATOM     19  C   UNL     1      -1.908  14.525  23.351  0.00  0.00    +0.000 A 
BRANCH  14  21
ATOM     20  O   UNL     1      -3.973  16.225  24.910  0.00  0.00    +0.000 OA
ATOM     21  C   UNL     1      -4.099  15.568  23.882  0.00  0.00    +0.000 C 
ATOM     22  N   UNL     1      -4.952  15.905  22.847  0.00  0.00    +0.000 N 
ATOM     23  H   UNL     1      -4.875  15.414  21.966  0.00  0.00    +0.000 HD
BRANCH  22  24
ATOM     24  C   UNL     1      -5.789  17.063  22.888  0.00  0.00    +0.000 C 
ATOM     25  C   UNL     1      -6.851  17.279  21.844  0.00  0.00    +0.000 C 
ATOM     26  C   UNL     1      -7.242  16.931  23.250  0.00  0.00    +0.000 C 
ENDBRANCH  22  24
ENDBRANCH  14  21
ENDBRANCH   1  17
BRANCH   9  27
ATOM     27  C   UNL     1      -1.917  11.491  17.466  0.00  0.00    +0.000 C 
ATOM     28  C   UNL     1      -2.494  10.898  16.189  0.00  0.00    +0.000 C 
ATOM     29  C   UNL     1      -3.969  11.262  16.238  0.00  0.00    +0.000 C 
ATOM     30  C   UNL     1      -4.335  11.348  17.717  0.00  0.00    +0.000 C 
ATOM     31  C   UNL     1      -3.026  11.266  18.496  0.00  0.00    +0.000 C 
ENDBRANCH   9  27
BRANCH   6  32
ATOM     32  C   UNL     1       2.509   7.323  19.468  0.00  0.00    +0.000 C 
BRANCH  32  33
ATOM     33  C   UNL     1       2.524   5.789  19.382  0.00  0.00    +0.000 C 
ATOM     34  C   UNL     1       2.050   5.280  18.011  0.00  0.00    +0.000 C 
ATOM     35  C   UNL     1       1.933   3.760  18.004  0.00  0.00    +0.000 C 
ATOM     36  O   UNL     1       1.063   3.315  19.043  0.00  0.00    +0.000 OA
ATOM     37  C   UNL     1       1.545   3.669  20.337  0.00  0.00    +0.000 C 
ATOM     38  C   UNL     1       1.633   5.184  20.480  0.00  0.00    +0.000 C 
ENDBRANCH  32  33
ENDBRANCH   6  32
TORSDOF 6
ENDMDL
