MODEL 1
REMARK VINA RESULT:      -7.6      0.000      0.000
REMARK  Name = 
REMARK  4 active torsions:
REMARK  status: ('A' for Active; 'I' for Inactive)
REMARK    1  A    between atoms: C_1  and  N_2
REMARK    2  A    between atoms: C_6  and  C_7
REMARK    3  A    between atoms: C_7  and  O_8
REMARK    4  A    between atoms: O_8  and  C_9
REMARK                            x       y       z     vdW  Elec       q    Type
REMARK                         _______ _______ _______ _____ _____    ______ ____
ROOT
ATOM      1  C   UNL     1       2.961   4.660  17.478  0.00  0.00    +0.000 A 
ATOM      2  C   UNL     1       3.604   3.639  16.746  0.00  0.00    +0.000 A 
ATOM      3  C   UNL     1       4.931   3.767  16.333  0.00  0.00    +0.000 A 
ATOM      4  C   UNL     1       5.581   4.932  16.671  0.00  0.00    +0.000 A 
ATOM      5  C   UNL     1       4.981   5.962  17.386  0.00  0.00    +0.000 A 
ATOM      6  C   UNL     1       3.662   5.834  17.798  0.00  0.00    +0.000 A 
ATOM      7  O   UNL     1       5.724   7.109  17.670  0.00  0.00    +0.000 OA
ATOM      8  C   UNL     1       6.990   6.908  17.111  0.00  0.00    +0.000 C 
ATOM      9  O   UNL     1       7.897   7.733  17.165  0.00  0.00    +0.000 OA
ATOM     10  S   UNL     1       7.216   5.342  16.291  0.00  0.00    +0.000 S 
ATOM     11  O   UNL     1       7.312   5.546  14.860  0.00  0.00    +0.000 OA
ATOM     12  O   UNL     1       8.094   4.501  17.076  0.00  0.00    +0.000 OA
ENDROOT
BRANCH   1  13
ATOM     13  O   UNL     1       1.659   4.603  17.922  0.00  0.00    +0.000 OA
BRANCH  13  14
ATOM     14  C   UNL     1       1.155   3.280  18.141  0.00  0.00    +0.000 C 
BRANCH  14  20
ATOM     15  C   UNL     1       3.356   1.312  19.175  0.00  0.00    +0.000 C 
ATOM     16  N   UNL     1       2.854   2.524  19.808  0.00  0.00    +0.000 NA
ATOM     17  C   UNL     1       2.999   2.478  21.262  0.00  0.00    +0.000 C 
ATOM     18  C   UNL     1       2.130   3.633  21.728  0.00  0.00    +0.000 C 
ATOM     19  C   UNL     1       1.068   3.804  20.644  0.00  0.00    +0.000 C 
ATOM     20  C   UNL     1       1.418   2.772  19.567  0.00  0.00    +0.000 C 
ENDBRANCH  14  20
ENDBRANCH  13  14
ENDBRANCH   1  13
TORSDOF 3
ENDMDL
MODEL 2
REMARK VINA RESULT:      -7.5      4.759      6.376
REMARK  Name = 
REMARK  4 active torsions:
REMARK  status: ('A' for Active; 'I' for Inactive)
REMARK    1  A    between atoms: C_1  and  N_2
REMARK    2  A    between atoms: C_6  and  C_7
REMARK    3  A    between atoms: C_7  and  O_8
REMARK    4  A    between atoms: O_8  and  C_9
REMARK                            x       y       z     vdW  Elec       q    Type
REMARK                         _______ _______ _______ _____ _____    ______ ____
ROOT
ATOM      1  C   UNL     1       2.311   7.605  18.616  0.00  0.00    +0.000 A 
ATOM      2  C   UNL     1       1.868   8.756  17.930  0.00  0.00    +0.000 A 
ATOM      3  C   UNL     1       1.229   9.800  18.601  0.00  0.00    +0.000 A 
ATOM      4  C   UNL     1       1.050   9.655  19.958  0.00  0.00    +0.000 A 
ATOM      5  C   UNL     1       1.467   8.535  20.667  0.00  0.00    +0.000 A 
ATOM      6  C   UNL     1       2.104   7.497  20.002  0.00  0.00    +0.000 A 
ATOM      7  O   UNL     1       1.229   8.479  22.042  0.00  0.00    +0.000 OA
ATOM      8  C   UNL     1       0.573   9.669  22.378  0.00  0.00    +0.000 C 
ATOM      9  O   UNL     1       0.203   9.944  23.514  0.00  0.00    +0.000 OA
ATOM     10  S   UNL     1       0.299  10.790  21.021  0.00  0.00    +0.000 S 
ATOM     11  O   UNL     1      -1.115  10.842  20.705  0.00  0.00    +0.000 OA
ATOM     12  O   UNL     1       1.167  11.940  21.152  0.00  0.00    +0.000 OA
ENDROOT
BRANCH   1  13
ATOM     13  O   UNL     1       2.951   6.539  18.025  0.00  0.00    +0.000 OA
BRANCH  13  14
ATOM     14  C   UNL     1       3.333   5.492  18.926  0.00  0.00    +0.000 C 
BRANCH  14  20
ATOM     15  C   UNL     1       4.420   2.664  19.707  0.00  0.00    +0.000 C 
ATOM     16  N   UNL     1       3.038   3.082  19.510  0.00  0.00    +0.000 NA
ATOM     17  C   UNL     1       2.186   1.966  19.105  0.00  0.00    +0.000 C 
ATOM     18  C   UNL     1       0.920   2.658  18.632  0.00  0.00    +0.000 C 
ATOM     19  C   UNL     1       1.365   4.044  18.167  0.00  0.00    +0.000 C 
ATOM     20  C   UNL     1       2.868   4.105  18.458  0.00  0.00    +0.000 C 
ENDBRANCH  14  20
ENDBRANCH  13  14
ENDBRANCH   1  13
TORSDOF 3
ENDMDL
MODEL 3
REMARK VINA RESULT:      -7.5      1.690      2.579
REMARK  Name = 
REMARK  4 active torsions:
REMARK  status: ('A' for Active; 'I' for Inactive)
REMARK    1  A    between atoms: C_1  and  N_2
REMARK    2  A    between atoms: C_6  and  C_7
REMARK    3  A    between atoms: C_7  and  O_8
REMARK    4  A    between atoms: O_8  and  C_9
REMARK                            x       y       z     vdW  Elec       q    Type
REMARK                         _______ _______ _______ _____ _____    ______ ____
ROOT
ATOM      1  C   UNL     1       3.433   6.370  19.156  0.00  0.00    +0.000 A 
ATOM      2  C   UNL     1       3.411   6.936  17.863  0.00  0.00    +0.000 A 
ATOM      3  C   UNL     1       4.450   6.718  16.957  0.00  0.00    +0.000 A 
ATOM      4  C   UNL     1       5.494   5.928  17.381  0.00  0.00    +0.000 A 
ATOM      5  C   UNL     1       5.554   5.358  18.647  0.00  0.00    +0.000 A 
ATOM      6  C   UNL     1       4.521   5.572  19.548  0.00  0.00    +0.000 A 
ATOM      7  O   UNL     1       6.663   4.580  18.984  0.00  0.00    +0.000 OA
ATOM      8  C   UNL     1       7.500   4.578  17.863  0.00  0.00    +0.000 C 
ATOM      9  O   UNL     1       8.579   3.995  17.820  0.00  0.00    +0.000 OA
ATOM     10  S   UNL     1       6.893   5.500  16.464  0.00  0.00    +0.000 S 
ATOM     11  O   UNL     1       7.696   6.691  16.276  0.00  0.00    +0.000 OA
ATOM     12  O   UNL     1       6.493   4.588  15.414  0.00  0.00    +0.000 OA
ENDROOT
BRANCH   1  13
ATOM     13  O   UNL     1       2.445   6.535  20.101  0.00  0.00    +0.000 OA
BRANCH  13  14
ATOM     14  C   UNL     1       1.372   5.590  20.021  0.00  0.00    +0.000 C 
BRANCH  14  20
ATOM     15  C   UNL     1       2.167   3.168  21.835  0.00  0.00    +0.000 C 
ATOM     16  N   UNL     1       1.411   3.159  20.590  0.00  0.00    +0.000 NA
ATOM     17  C   UNL     1       1.539   1.883  19.887  0.00  0.00    +0.000 C 
ATOM     18  C   UNL     1       0.988   2.199  18.507  0.00  0.00    +0.000 C 
ATOM     19  C   UNL     1       1.223   3.695  18.309  0.00  0.00    +0.000 C 
ATOM     20  C   UNL     1       1.846   4.184  19.621  0.00  0.00    +0.000 C 
ENDBRANCH  14  20
ENDBRANCH  13  14
ENDBRANCH   1  13
TORSDOF 3
ENDMDL
MODEL 4
REMARK VINA RESULT:      -7.4      1.612      2.333
REMARK  Name = 
REMARK  4 active torsions:
REMARK  status: ('A' for Active; 'I' for Inactive)
REMARK    1  A    between atoms: C_1  and  N_2
REMARK    2  A    between atoms: C_6  and  C_7
REMARK    3  A    between atoms: C_7  and  O_8
REMARK    4  A    between atoms: O_8  and  C_9
REMARK                            x       y       z     vdW  Elec       q    Type
REMARK                         _______ _______ _______ _____ _____    ______ ____
ROOT
ATOM      1  C   UNL     1       3.331   6.167  19.207  0.00  0.00    +0.000 A 
ATOM      2  C   UNL     1       3.321   6.884  17.991  0.00  0.00    +0.000 A 
ATOM      3  C   UNL     1       4.381   6.795  17.088  0.00  0.00    +0.000 A 
ATOM      4  C   UNL     1       5.433   5.979  17.436  0.00  0.00    +0.000 A 
ATOM      5  C   UNL     1       5.481   5.262  18.625  0.00  0.00    +0.000 A 
ATOM      6  C   UNL     1       4.427   5.348  19.524  0.00  0.00    +0.000 A 
ATOM      7  O   UNL     1       6.599   4.469  18.889  0.00  0.00    +0.000 OA
ATOM      8  C   UNL     1       7.457   4.617  17.794  0.00  0.00    +0.000 C 
ATOM      9  O   UNL     1       8.548   4.063  17.704  0.00  0.00    +0.000 OA
ATOM     10  S   UNL     1       6.857   5.689  16.503  0.00  0.00    +0.000 S 
ATOM     11  O   UNL     1       7.639   6.909  16.475  0.00  0.00    +0.000 OA
ATOM     12  O   UNL     1       6.495   4.903  15.343  0.00  0.00    +0.000 OA
ENDROOT
BRANCH   1  13
ATOM     13  O   UNL     1       2.323   6.201  20.144  0.00  0.00    +0.000 OA
BRANCH  13  14
ATOM     14  C   UNL     1       1.159   5.438  19.803  0.00  0.00    +0.000 C 
BRANCH  14  20
ATOM     15  C   UNL     1       0.840   2.638  18.445  0.00  0.00    +0.000 C 
ATOM     16  N   UNL     1       1.728   3.021  19.535  0.00  0.00    +0.000 NA
ATOM     17  C   UNL     1       2.057   1.884  20.393  0.00  0.00    +0.000 C 
ATOM     18  C   UNL     1       2.676   2.545  21.611  0.00  0.00    +0.000 C 
ATOM     19  C   UNL     1       2.060   3.941  21.672  0.00  0.00    +0.000 C 
ATOM     20  C   UNL     1       1.156   4.040  20.439  0.00  0.00    +0.000 C 
ENDBRANCH  14  20
ENDBRANCH  13  14
ENDBRANCH   1  13
TORSDOF 3
ENDMDL
MODEL 5
REMARK VINA RESULT:      -7.4      1.112      2.099
REMARK  Name = 
REMARK  4 active torsions:
REMARK  status: ('A' for Active; 'I' for Inactive)
REMARK    1  A    between atoms: C_1  and  N_2
REMARK    2  A    between atoms: C_6  and  C_7
REMARK    3  A    between atoms: C_7  and  O_8
REMARK    4  A    between atoms: O_8  and  C_9
REMARK                            x       y       z     vdW  Elec       q    Type
REMARK                         _______ _______ _______ _____ _____    ______ ____
ROOT
ATOM      1  C   UNL     1       2.402   4.557  17.775  0.00  0.00    +0.000 A 
ATOM      2  C   UNL     1       2.721   5.727  18.499  0.00  0.00    +0.000 A 
ATOM      3  C   UNL     1       3.983   6.315  18.408  0.00  0.00    +0.000 A 
ATOM      4  C   UNL     1       4.900   5.704  17.583  0.00  0.00    +0.000 A 
ATOM      5  C   UNL     1       4.625   4.550  16.859  0.00  0.00    +0.000 A 
ATOM      6  C   UNL     1       3.370   3.965  16.948  0.00  0.00    +0.000 A 
ATOM      7  O   UNL     1       5.628   4.001  16.058  0.00  0.00    +0.000 OA
ATOM      8  C   UNL     1       6.748   4.826  16.206  0.00  0.00    +0.000 C 
ATOM      9  O   UNL     1       7.820   4.625  15.645  0.00  0.00    +0.000 OA
ATOM     10  S   UNL     1       6.520   6.224  17.288  0.00  0.00    +0.000 S 
ATOM     11  O   UNL     1       7.286   6.034  18.503  0.00  0.00    +0.000 OA
ATOM     12  O   UNL     1       6.477   7.443  16.511  0.00  0.00    +0.000 OA
ENDROOT
BRANCH   1  13
ATOM     13  O   UNL     1       1.180   3.923  17.811  0.00  0.00    +0.000 OA
BRANCH  13  14
ATOM     14  C   UNL     1       1.238   2.523  18.108  0.00  0.00    +0.000 C 
BRANCH  14  20
ATOM     15  C   UNL     1       3.859   1.346  19.345  0.00  0.00    +0.000 C 
ATOM     16  N   UNL     1       3.020   2.424  19.853  0.00  0.00    +0.000 NA
ATOM     17  C   UNL     1       3.122   2.551  21.306  0.00  0.00    +0.000 C 
ATOM     18  C   UNL     1       1.953   3.457  21.651  0.00  0.00    +0.000 C 
ATOM     19  C   UNL     1       0.923   3.227  20.547  0.00  0.00    +0.000 C 
ATOM     20  C   UNL     1       1.581   2.239  19.578  0.00  0.00    +0.000 C 
ENDBRANCH  14  20
ENDBRANCH  13  14
ENDBRANCH   1  13
TORSDOF 3
ENDMDL
MODEL 6
REMARK VINA RESULT:      -7.4      0.969      1.975
REMARK  Name = 
REMARK  4 active torsions:
REMARK  status: ('A' for Active; 'I' for Inactive)
REMARK    1  A    between atoms: C_1  and  N_2
REMARK    2  A    between atoms: C_6  and  C_7
REMARK    3  A    between atoms: C_7  and  O_8
REMARK    4  A    between atoms: O_8  and  C_9
REMARK                            x       y       z     vdW  Elec       q    Type
REMARK                         _______ _______ _______ _____ _____    ______ ____
ROOT
ATOM      1  C   UNL     1       3.085   5.031  18.130  0.00  0.00    +0.000 A 
ATOM      2  C   UNL     1       4.002   5.487  19.101  0.00  0.00    +0.000 A 
ATOM      3  C   UNL     1       5.356   5.643  18.804  0.00  0.00    +0.000 A 
ATOM      4  C   UNL     1       5.756   5.331  17.525  0.00  0.00    +0.000 A 
ATOM      5  C   UNL     1       4.885   4.873  16.543  0.00  0.00    +0.000 A 
ATOM      6  C   UNL     1       3.537   4.720  16.837  0.00  0.00    +0.000 A 
ATOM      7  O   UNL     1       5.392   4.574  15.278  0.00  0.00    +0.000 OA
ATOM      8  C   UNL     1       6.766   4.832  15.331  0.00  0.00    +0.000 C 
ATOM      9  O   UNL     1       7.527   4.662  14.384  0.00  0.00    +0.000 OA
ATOM     10  S   UNL     1       7.362   5.437  16.897  0.00  0.00    +0.000 S 
ATOM     11  O   UNL     1       8.169   4.421  17.541  0.00  0.00    +0.000 OA
ATOM     12  O   UNL     1       7.717   6.835  16.779  0.00  0.00    +0.000 OA
ENDROOT
BRANCH   1  13
ATOM     13  O   UNL     1       1.736   4.857  18.347  0.00  0.00    +0.000 OA
BRANCH  13  14
ATOM     14  C   UNL     1       1.282   3.501  18.255  0.00  0.00    +0.000 C 
BRANCH  14  20
ATOM     15  C   UNL     1       3.565   1.459  18.894  0.00  0.00    +0.000 C 
ATOM     16  N   UNL     1       2.984   2.473  19.765  0.00  0.00    +0.000 NA
ATOM     17  C   UNL     1       3.101   2.107  21.176  0.00  0.00    +0.000 C 
ATOM     18  C   UNL     1       2.162   3.084  21.860  0.00  0.00    +0.000 C 
ATOM     19  C   UNL     1       1.114   3.444  20.808  0.00  0.00    +0.000 C 
ATOM     20  C   UNL     1       1.543   2.698  19.539  0.00  0.00    +0.000 C 
ENDBRANCH  14  20
ENDBRANCH  13  14
ENDBRANCH   1  13
TORSDOF 3
ENDMDL
MODEL 7
REMARK VINA RESULT:      -7.4      4.576      6.249
REMARK  Name = 
REMARK  4 active torsions:
REMARK  status: ('A' for Active; 'I' for Inactive)
REMARK    1  A    between atoms: C_1  and  N_2
REMARK    2  A    between atoms: C_6  and  C_7
REMARK    3  A    between atoms: C_7  and  O_8
REMARK    4  A    between atoms: O_8  and  C_9
REMARK                            x       y       z     vdW  Elec       q    Type
REMARK                         _______ _______ _______ _____ _____    ______ ____
ROOT
ATOM      1  C   UNL     1       2.470   7.212  18.647  0.00  0.00    +0.000 A 
ATOM      2  C   UNL     1       2.093   8.290  17.817  0.00  0.00    +0.000 A 
ATOM      3  C   UNL     1       1.451   9.416  18.335  0.00  0.00    +0.000 A 
ATOM      4  C   UNL     1       1.202   9.426  19.689  0.00  0.00    +0.000 A 
ATOM      5  C   UNL     1       1.553   8.383  20.537  0.00  0.00    +0.000 A 
ATOM      6  C   UNL     1       2.193   7.264  20.023  0.00  0.00    +0.000 A 
ATOM      7  O   UNL     1       1.246   8.486  21.895  0.00  0.00    +0.000 OA
ATOM      8  C   UNL     1       0.608   9.719  22.064  0.00  0.00    +0.000 C 
ATOM      9  O   UNL     1       0.190  10.127  23.143  0.00  0.00    +0.000 OA
ATOM     10  S   UNL     1       0.431  10.689  20.580  0.00  0.00    +0.000 S 
ATOM     11  O   UNL     1      -0.963  10.736  20.187  0.00  0.00    +0.000 OA
ATOM     12  O   UNL     1       1.323  11.827  20.629  0.00  0.00    +0.000 OA
ENDROOT
BRANCH   1  13
ATOM     13  O   UNL     1       3.108   6.073  18.210  0.00  0.00    +0.000 OA
BRANCH  13  14
ATOM     14  C   UNL     1       3.836   5.367  19.222  0.00  0.00    +0.000 C 
BRANCH  14  20
ATOM     15  C   UNL     1       2.242   3.547  21.206  0.00  0.00    +0.000 C 
ATOM     16  N   UNL     1       2.286   3.481  19.752  0.00  0.00    +0.000 NA
ATOM     17  C   UNL     1       2.016   2.131  19.261  0.00  0.00    +0.000 C 
ATOM     18  C   UNL     1       2.442   2.206  17.805  0.00  0.00    +0.000 C 
ATOM     19  C   UNL     1       3.506   3.300  17.750  0.00  0.00    +0.000 C 
ATOM     20  C   UNL     1       3.596   3.850  19.178  0.00  0.00    +0.000 C 
ENDBRANCH  14  20
ENDBRANCH  13  14
ENDBRANCH   1  13
TORSDOF 3
ENDMDL
MODEL 8
REMARK VINA RESULT:      -7.3      1.688      2.109
REMARK  Name = 
REMARK  4 active torsions:
REMARK  status: ('A' for Active; 'I' for Inactive)
REMARK    1  A    between atoms: C_1  and  N_2
REMARK    2  A    between atoms: C_6  and  C_7
REMARK    3  A    between atoms: C_7  and  O_8
REMARK    4  A    between atoms: O_8  and  C_9
REMARK                            x       y       z     vdW  Elec       q    Type
REMARK                         _______ _______ _______ _____ _____    ______ ____
ROOT
ATOM      1  C   UNL     1       3.811   2.801  18.204  0.00  0.00    +0.000 A 
ATOM      2  C   UNL     1       3.739   3.183  16.847  0.00  0.00    +0.000 A 
ATOM      3  C   UNL     1       4.611   4.133  16.313  0.00  0.00    +0.000 A 
ATOM      4  C   UNL     1       5.539   4.681  17.169  0.00  0.00    +0.000 A 
ATOM      5  C   UNL     1       5.637   4.335  18.512  0.00  0.00    +0.000 A 
ATOM      6  C   UNL     1       4.773   3.388  19.043  0.00  0.00    +0.000 A 
ATOM      7  O   UNL     1       6.608   4.956  19.299  0.00  0.00    +0.000 OA
ATOM      8  C   UNL     1       7.289   5.845  18.460  0.00  0.00    +0.000 C 
ATOM      9  O   UNL     1       8.206   6.568  18.836  0.00  0.00    +0.000 OA
ATOM     10  S   UNL     1       6.730   5.866  16.768  0.00  0.00    +0.000 S 
ATOM     11  O   UNL     1       6.051   7.116  16.491  0.00  0.00    +0.000 OA
ATOM     12  O   UNL     1       7.724   5.249  15.916  0.00  0.00    +0.000 OA
ENDROOT
BRANCH   1  13
ATOM     13  O   UNL     1       2.990   1.870  18.800  0.00  0.00    +0.000 OA
BRANCH  13  14
ATOM     14  C   UNL     1       1.591   2.166  18.725  0.00  0.00    +0.000 C 
BRANCH  14  20
ATOM     15  C   UNL     1       1.641   2.574  21.826  0.00  0.00    +0.000 C 
ATOM     16  N   UNL     1       2.010   3.519  20.781  0.00  0.00    +0.000 NA
ATOM     17  C   UNL     1       1.844   4.904  21.218  0.00  0.00    +0.000 C 
ATOM     18  C   UNL     1       1.941   5.685  19.920  0.00  0.00    +0.000 C 
ATOM     19  C   UNL     1       1.479   4.720  18.830  0.00  0.00    +0.000 C 
ATOM     20  C   UNL     1       1.198   3.398  19.553  0.00  0.00    +0.000 C 
ENDBRANCH  14  20
ENDBRANCH  13  14
ENDBRANCH   1  13
TORSDOF 3
ENDMDL
MODEL 9
REMARK VINA RESULT:      -7.3      4.980      6.422
REMARK  Name = 
REMARK  4 active torsions:
REMARK  status: ('A' for Active; 'I' for Inactive)
REMARK    1  A    between atoms: C_1  and  N_2
REMARK    2  A    between atoms: C_6  and  C_7
REMARK    3  A    between atoms: C_7  and  O_8
REMARK    4  A    between atoms: O_8  and  C_9
REMARK                            x       y       z     vdW  Elec       q    Type
REMARK                         _______ _______ _______ _____ _____    ______ ____
ROOT
ATOM      1  C   UNL     1       2.231   7.471  19.242  0.00  0.00    +0.000 A 
ATOM      2  C   UNL     1       1.893   8.371  18.209  0.00  0.00    +0.000 A 
ATOM      3  C   UNL     1       1.186   9.545  18.472  0.00  0.00    +0.000 A 
ATOM      4  C   UNL     1       0.834   9.784  19.781  0.00  0.00    +0.000 A 
ATOM      5  C   UNL     1       1.144   8.919  20.824  0.00  0.00    +0.000 A 
ATOM      6  C   UNL     1       1.849   7.752  20.564  0.00  0.00    +0.000 A 
ATOM      7  O   UNL     1       0.733   9.247  22.117  0.00  0.00    +0.000 OA
ATOM      8  C   UNL     1       0.053  10.466  22.018  0.00  0.00    +0.000 C 
ATOM      9  O   UNL     1      -0.455  11.041  22.975  0.00  0.00    +0.000 OA
ATOM     10  S   UNL     1      -0.034  11.153  20.376  0.00  0.00    +0.000 S 
ATOM     11  O   UNL     1      -1.394  11.078  19.884  0.00  0.00    +0.000 OA
ATOM     12  O   UNL     1       0.824  12.315  20.286  0.00  0.00    +0.000 OA
ENDROOT
BRANCH   1  13
ATOM     13  O   UNL     1       2.929   6.298  19.061  0.00  0.00    +0.000 OA
BRANCH  13  14
ATOM     14  C   UNL     1       2.234   5.294  18.312  0.00  0.00    +0.000 C 
BRANCH  14  20
ATOM     15  C   UNL     1       4.441   3.204  19.051  0.00  0.00    +0.000 C 
ATOM     16  N   UNL     1       3.318   3.660  19.858  0.00  0.00    +0.000 NA
ATOM     17  C   UNL     1       2.903   2.651  20.832  0.00  0.00    +0.000 C 
ATOM     18  C   UNL     1       1.556   3.167  21.305  0.00  0.00    +0.000 C 
ATOM     19  C   UNL     1       1.008   3.994  20.143  0.00  0.00    +0.000 C 
ATOM     20  C   UNL     1       2.105   3.966  19.073  0.00  0.00    +0.000 C 
ENDBRANCH  14  20
ENDBRANCH  13  14
ENDBRANCH   1  13
TORSDOF 3
ENDMDL
