MODEL 1
REMARK VINA RESULT:      -8.4      0.000      0.000
REMARK  Name = 
REMARK  7 active torsions:
REMARK  status: ('A' for Active; 'I' for Inactive)
REMARK    1  A    between atoms: O_1  and  C_2
REMARK    2  A    between atoms: C_2  and  C_3
REMARK    3  A    between atoms: C_2  and  C_11
REMARK    4  A    between atoms: C_3  and  C_4
REMARK    5  A    between atoms: C_4  and  C_5
REMARK    6  A    between atoms: C_13  and  C_14
REMARK    7  A    between atoms: C_20  and  C_21
REMARK                            x       y       z     vdW  Elec       q    Type
REMARK                         _______ _______ _______ _____ _____    ______ ____
ROOT
ATOM      1  C   UNL     1       3.362   6.425  18.195  0.00  0.00    +0.000 A 
ATOM      2  C   UNL     1       3.219   5.286  19.001  0.00  0.00    +0.000 A 
ATOM      3  C   UNL     1       2.402   5.326  20.119  0.00  0.00    +0.000 A 
ATOM      4  N   UNL     1       1.717   6.453  20.448  0.00  0.00    +0.000 NA
ATOM      5  C   UNL     1       1.817   7.561  19.700  0.00  0.00    +0.000 A 
ATOM      6  C   UNL     1       1.099   8.695  20.075  0.00  0.00    +0.000 A 
ATOM      7  C   UNL     1       1.177   9.877  19.311  0.00  0.00    +0.000 A 
ATOM      8  C   UNL     1       1.965   9.930  18.173  0.00  0.00    +0.000 A 
ATOM      9  C   UNL     1       2.685   8.801  17.789  0.00  0.00    +0.000 A 
ATOM     10  C   UNL     1       2.636   7.601  18.538  0.00  0.00    +0.000 A 
ENDROOT
BRANCH   3  11
ATOM     11  C   UNL     1       2.258   4.098  21.008  0.00  0.00    +0.000 C 
ATOM     12  F   UNL     1       3.090   3.072  20.654  0.00  0.00    +0.000 F 
ATOM     13  F   UNL     1       2.536   4.351  22.319  0.00  0.00    +0.000 F 
ATOM     14  F   UNL     1       1.002   3.566  20.983  0.00  0.00    +0.000 F 
ENDBRANCH   3  11
BRANCH   6  15
ATOM     15  C   UNL     1       0.210   8.716  21.294  0.00  0.00    +0.000 C 
ATOM     16  F   UNL     1      -0.677   7.698  21.447  0.00  0.00    +0.000 F 
ATOM     17  F   UNL     1       0.945   8.727  22.447  0.00  0.00    +0.000 F 
ATOM     18  F   UNL     1      -0.540   9.859  21.346  0.00  0.00    +0.000 F 
ENDBRANCH   6  15
BRANCH   1  19
ATOM     19  C   UNL     1       4.254   6.328  16.961  0.00  0.00    +0.000 C 
BRANCH  19  20
ATOM     20  O   UNL     1       5.431   7.111  17.170  0.00  0.00    +0.000 OA
ATOM     21  H   UNL     1       5.879   7.198  16.313  0.00  0.00    +0.000 HD
ENDBRANCH  19  20
BRANCH  19  22
ATOM     22  C   UNL     1       4.646   4.869  16.693  0.00  0.00    +0.000 C 
BRANCH  22  23
ATOM     23  C   UNL     1       6.085   4.710  16.173  0.00  0.00    +0.000 C 
BRANCH  23  24
ATOM     24  C   UNL     1       6.199   4.850  14.638  0.00  0.00    +0.000 C 
ATOM     25  C   UNL     1       5.743   3.549  13.952  0.00  0.00    +0.000 C 
ATOM     26  C   UNL     1       5.891   3.635  12.434  0.00  0.00    +0.000 C 
ATOM     27  C   UNL     1       7.304   4.064  12.057  0.00  0.00    +0.000 C 
ATOM     28  C   UNL     1       7.707   5.333  12.799  0.00  0.00    +0.000 C 
ATOM     29  N   UNL     1       7.579   5.170  14.248  0.00  0.00    +0.000 NA
ATOM     30  H   UNL     1       7.866   6.047  14.682  0.00  0.00    +0.000 HD
ENDBRANCH  23  24
ENDBRANCH  22  23
ENDBRANCH  19  22
ENDBRANCH   1  19
TORSDOF 7
ENDMDL
MODEL 2
REMARK VINA RESULT:      -8.2      1.973      3.155
REMARK  Name = 
REMARK  7 active torsions:
REMARK  status: ('A' for Active; 'I' for Inactive)
REMARK    1  A    between atoms: O_1  and  C_2
REMARK    2  A    between atoms: C_2  and  C_3
REMARK    3  A    between atoms: C_2  and  C_11
REMARK    4  A    between atoms: C_3  and  C_4
REMARK    5  A    between atoms: C_4  and  C_5
REMARK    6  A    between atoms: C_13  and  C_14
REMARK    7  A    between atoms: C_20  and  C_21
REMARK                            x       y       z     vdW  Elec       q    Type
REMARK                         _______ _______ _______ _____ _____    ______ ____
ROOT
ATOM      1  C   UNL     1       4.607   5.012  16.797  0.00  0.00    +0.000 A 
ATOM      2  C   UNL     1       4.592   3.649  17.128  0.00  0.00    +0.000 A 
ATOM      3  C   UNL     1       3.847   3.207  18.209  0.00  0.00    +0.000 A 
ATOM      4  N   UNL     1       3.113   4.072  18.957  0.00  0.00    +0.000 NA
ATOM      5  C   UNL     1       3.092   5.382  18.670  0.00  0.00    +0.000 A 
ATOM      6  C   UNL     1       2.327   6.234  19.463  0.00  0.00    +0.000 A 
ATOM      7  C   UNL     1       2.278   7.615  19.189  0.00  0.00    +0.000 A 
ATOM      8  C   UNL     1       2.986   8.149  18.124  0.00  0.00    +0.000 A 
ATOM      9  C   UNL     1       3.752   7.304  17.325  0.00  0.00    +0.000 A 
ATOM     10  C   UNL     1       3.829   5.914  17.577  0.00  0.00    +0.000 A 
ENDROOT
BRANCH   3  11
ATOM     11  C   UNL     1       3.842   1.731  18.584  0.00  0.00    +0.000 C 
ATOM     12  F   UNL     1       2.612   1.270  18.960  0.00  0.00    +0.000 F 
ATOM     13  F   UNL     1       4.234   0.918  17.561  0.00  0.00    +0.000 F 
ATOM     14  F   UNL     1       4.668   1.444  19.632  0.00  0.00    +0.000 F 
ENDBRANCH   3  11
BRANCH   6  15
ATOM     15  C   UNL     1       1.518   5.731  20.634  0.00  0.00    +0.000 C 
ATOM     16  F   UNL     1       2.184   5.115  21.645  0.00  0.00    +0.000 F 
ATOM     17  F   UNL     1       0.821   6.746  21.231  0.00  0.00    +0.000 F 
ATOM     18  F   UNL     1       0.562   4.838  20.234  0.00  0.00    +0.000 F 
ENDBRANCH   6  15
BRANCH   1  19
ATOM     19  C   UNL     1       5.423   5.450  15.584  0.00  0.00    +0.000 C 
BRANCH  19  20
ATOM     20  O   UNL     1       6.632   6.068  16.030  0.00  0.00    +0.000 OA
ATOM     21  H   UNL     1       7.070   6.447  15.250  0.00  0.00    +0.000 HD
ENDBRANCH  19  20
BRANCH  19  22
ATOM     22  C   UNL     1       5.757   4.245  14.695  0.00  0.00    +0.000 C 
BRANCH  22  23
ATOM     23  C   UNL     1       6.717   4.584  13.542  0.00  0.00    +0.000 C 
BRANCH  23  24
ATOM     24  C   UNL     1       6.467   3.741  12.271  0.00  0.00    +0.000 C 
ATOM     25  C   UNL     1       5.038   3.166  12.290  0.00  0.00    +0.000 C 
ATOM     26  C   UNL     1       4.774   2.284  11.071  0.00  0.00    +0.000 C 
ATOM     27  C   UNL     1       5.860   1.223  10.932  0.00  0.00    +0.000 C 
ATOM     28  C   UNL     1       7.247   1.853  10.960  0.00  0.00    +0.000 C 
ATOM     29  N   UNL     1       7.448   2.652  12.170  0.00  0.00    +0.000 NA
ATOM     30  H   UNL     1       8.391   3.039  12.129  0.00  0.00    +0.000 HD
ENDBRANCH  23  24
ENDBRANCH  22  23
ENDBRANCH  19  22
ENDBRANCH   1  19
TORSDOF 7
ENDMDL
MODEL 3
REMARK VINA RESULT:      -8.2      3.899      7.787
REMARK  Name = 
REMARK  7 active torsions:
REMARK  status: ('A' for Active; 'I' for Inactive)
REMARK    1  A    between atoms: O_1  and  C_2
REMARK    2  A    between atoms: C_2  and  C_3
REMARK    3  A    between atoms: C_2  and  C_11
REMARK    4  A    between atoms: C_3  and  C_4
REMARK    5  A    between atoms: C_4  and  C_5
REMARK    6  A    between atoms: C_13  and  C_14
REMARK    7  A    between atoms: C_20  and  C_21
REMARK                            x       y       z     vdW  Elec       q    Type
REMARK                         _______ _______ _______ _____ _____    ______ ____
ROOT
ATOM      1  C   UNL     1       2.376   6.803  19.167  0.00  0.00    +0.000 A 
ATOM      2  C   UNL     1       3.322   7.116  18.179  0.00  0.00    +0.000 A 
ATOM      3  C   UNL     1       4.097   6.113  17.620  0.00  0.00    +0.000 A 
ATOM      4  N   UNL     1       3.949   4.817  18.000  0.00  0.00    +0.000 NA
ATOM      5  C   UNL     1       3.050   4.473  18.933  0.00  0.00    +0.000 A 
ATOM      6  C   UNL     1       2.933   3.132  19.295  0.00  0.00    +0.000 A 
ATOM      7  C   UNL     1       1.996   2.733  20.269  0.00  0.00    +0.000 A 
ATOM      8  C   UNL     1       1.174   3.665  20.881  0.00  0.00    +0.000 A 
ATOM      9  C   UNL     1       1.283   5.007  20.525  0.00  0.00    +0.000 A 
ATOM     10  C   UNL     1       2.218   5.443  19.556  0.00  0.00    +0.000 A 
ENDROOT
BRANCH   3  11
ATOM     11  C   UNL     1       5.139   6.450  16.561  0.00  0.00    +0.000 C 
ATOM     12  F   UNL     1       6.172   7.208  17.038  0.00  0.00    +0.000 F 
ATOM     13  F   UNL     1       5.724   5.345  16.016  0.00  0.00    +0.000 F 
ATOM     14  F   UNL     1       4.625   7.161  15.515  0.00  0.00    +0.000 F 
ENDBRANCH   3  11
BRANCH   6  15
ATOM     15  C   UNL     1       3.783   2.054  18.668  0.00  0.00    +0.000 C 
ATOM     16  F   UNL     1       4.244   2.264  17.408  0.00  0.00    +0.000 F 
ATOM     17  F   UNL     1       4.897   1.798  19.420  0.00  0.00    +0.000 F 
ATOM     18  F   UNL     1       3.116   0.861  18.614  0.00  0.00    +0.000 F 
ENDBRANCH   6  15
BRANCH   1  19
ATOM     19  C   UNL     1       1.529   7.936  19.738  0.00  0.00    +0.000 C 
BRANCH  19  20
ATOM     20  O   UNL     1       2.040   8.303  21.022  0.00  0.00    +0.000 OA
ATOM     21  H   UNL     1       2.275   9.244  20.984  0.00  0.00    +0.000 HD
ENDBRANCH  19  20
BRANCH  19  22
ATOM     22  C   UNL     1       1.558   9.155  18.805  0.00  0.00    +0.000 C 
BRANCH  22  23
ATOM     23  C   UNL     1       0.868  10.395  19.399  0.00  0.00    +0.000 C 
BRANCH  23  24
ATOM     24  C   UNL     1      -0.651  10.440  19.119  0.00  0.00    +0.000 C 
ATOM     25  C   UNL     1      -0.945   9.916  17.700  0.00  0.00    +0.000 C 
ATOM     26  C   UNL     1      -2.434   9.996  17.371  0.00  0.00    +0.000 C 
ATOM     27  C   UNL     1      -2.965  11.401  17.626  0.00  0.00    +0.000 C 
ATOM     28  C   UNL     1      -2.608  11.874  19.031  0.00  0.00    +0.000 C 
ATOM     29  N   UNL     1      -1.165  11.809  19.268  0.00  0.00    +0.000 NA
ATOM     30  H   UNL     1      -0.994  12.141  20.216  0.00  0.00    +0.000 HD
ENDBRANCH  23  24
ENDBRANCH  22  23
ENDBRANCH  19  22
ENDBRANCH   1  19
TORSDOF 7
ENDMDL
MODEL 4
REMARK VINA RESULT:      -8.2      1.408      4.114
REMARK  Name = 
REMARK  7 active torsions:
REMARK  status: ('A' for Active; 'I' for Inactive)
REMARK    1  A    between atoms: O_1  and  C_2
REMARK    2  A    between atoms: C_2  and  C_3
REMARK    3  A    between atoms: C_2  and  C_11
REMARK    4  A    between atoms: C_3  and  C_4
REMARK    5  A    between atoms: C_4  and  C_5
REMARK    6  A    between atoms: C_13  and  C_14
REMARK    7  A    between atoms: C_20  and  C_21
REMARK                            x       y       z     vdW  Elec       q    Type
REMARK                         _______ _______ _______ _____ _____    ______ ____
ROOT
ATOM      1  C   UNL     1       3.704   6.018  17.844  0.00  0.00    +0.000 A 
ATOM      2  C   UNL     1       3.065   7.067  18.522  0.00  0.00    +0.000 A 
ATOM      3  C   UNL     1       2.320   6.805  19.660  0.00  0.00    +0.000 A 
ATOM      4  N   UNL     1       2.203   5.542  20.147  0.00  0.00    +0.000 NA
ATOM      5  C   UNL     1       2.804   4.511  19.536  0.00  0.00    +0.000 A 
ATOM      6  C   UNL     1       2.656   3.232  20.069  0.00  0.00    +0.000 A 
ATOM      7  C   UNL     1       3.277   2.126  19.456  0.00  0.00    +0.000 A 
ATOM      8  C   UNL     1       4.047   2.291  18.316  0.00  0.00    +0.000 A 
ATOM      9  C   UNL     1       4.201   3.566  17.777  0.00  0.00    +0.000 A 
ATOM     10  C   UNL     1       3.586   4.697  18.363  0.00  0.00    +0.000 A 
ENDROOT
BRANCH   3  11
ATOM     11  C   UNL     1       1.610   7.939  20.389  0.00  0.00    +0.000 C 
ATOM     12  F   UNL     1       1.272   8.982  19.572  0.00  0.00    +0.000 F 
ATOM     13  F   UNL     1       0.443   7.548  20.976  0.00  0.00    +0.000 F 
ATOM     14  F   UNL     1       2.367   8.491  21.381  0.00  0.00    +0.000 F 
ENDBRANCH   3  11
BRANCH   6  15
ATOM     15  C   UNL     1       1.845   2.969  21.314  0.00  0.00    +0.000 C 
ATOM     16  F   UNL     1       1.892   1.721  21.848  0.00  0.00    +0.000 F 
ATOM     17  F   UNL     1       2.207   3.808  22.331  0.00  0.00    +0.000 F 
ATOM     18  F   UNL     1       0.517   3.224  21.107  0.00  0.00    +0.000 F 
ENDBRANCH   6  15
BRANCH   1  19
ATOM     19  C   UNL     1       4.532   6.356  16.609  0.00  0.00    +0.000 C 
BRANCH  19  20
ATOM     20  O   UNL     1       4.072   7.591  16.058  0.00  0.00    +0.000 OA
ATOM     21  H   UNL     1       4.530   7.723  15.212  0.00  0.00    +0.000 HD
ENDBRANCH  19  20
BRANCH  19  22
ATOM     22  C   UNL     1       6.019   6.476  16.973  0.00  0.00    +0.000 C 
BRANCH  22  23
ATOM     23  C   UNL     1       6.897   5.395  16.321  0.00  0.00    +0.000 C 
BRANCH  23  24
ATOM     24  C   UNL     1       6.639   5.231  14.806  0.00  0.00    +0.000 C 
ATOM     25  C   UNL     1       6.058   3.835  14.515  0.00  0.00    +0.000 C 
ATOM     26  C   UNL     1       5.839   3.621  13.018  0.00  0.00    +0.000 C 
ATOM     27  C   UNL     1       7.113   3.928  12.241  0.00  0.00    +0.000 C 
ATOM     28  C   UNL     1       7.656   5.306  12.603  0.00  0.00    +0.000 C 
ATOM     29  N   UNL     1       7.879   5.431  14.044  0.00  0.00    +0.000 NA
ATOM     30  H   UNL     1       8.245   6.367  14.218  0.00  0.00    +0.000 HD
ENDBRANCH  23  24
ENDBRANCH  22  23
ENDBRANCH  19  22
ENDBRANCH   1  19
TORSDOF 7
ENDMDL
MODEL 5
REMARK VINA RESULT:      -8.1      3.911      7.790
REMARK  Name = 
REMARK  7 active torsions:
REMARK  status: ('A' for Active; 'I' for Inactive)
REMARK    1  A    between atoms: O_1  and  C_2
REMARK    2  A    between atoms: C_2  and  C_3
REMARK    3  A    between atoms: C_2  and  C_11
REMARK    4  A    between atoms: C_3  and  C_4
REMARK    5  A    between atoms: C_4  and  C_5
REMARK    6  A    between atoms: C_13  and  C_14
REMARK    7  A    between atoms: C_20  and  C_21
REMARK                            x       y       z     vdW  Elec       q    Type
REMARK                         _______ _______ _______ _____ _____    ______ ____
ROOT
ATOM      1  C   UNL     1       2.381   6.832  19.129  0.00  0.00    +0.000 A 
ATOM      2  C   UNL     1       3.345   7.141  18.157  0.00  0.00    +0.000 A 
ATOM      3  C   UNL     1       4.126   6.135  17.612  0.00  0.00    +0.000 A 
ATOM      4  N   UNL     1       3.969   4.840  17.993  0.00  0.00    +0.000 NA
ATOM      5  C   UNL     1       3.054   4.500  18.912  0.00  0.00    +0.000 A 
ATOM      6  C   UNL     1       2.928   3.160  19.274  0.00  0.00    +0.000 A 
ATOM      7  C   UNL     1       1.975   2.765  20.233  0.00  0.00    +0.000 A 
ATOM      8  C   UNL     1       1.144   3.700  20.829  0.00  0.00    +0.000 A 
ATOM      9  C   UNL     1       1.262   5.041  20.473  0.00  0.00    +0.000 A 
ATOM     10  C   UNL     1       2.214   5.473  19.519  0.00  0.00    +0.000 A 
ENDROOT
BRANCH   3  11
ATOM     11  C   UNL     1       5.186   6.468  16.571  0.00  0.00    +0.000 C 
ATOM     12  F   UNL     1       5.807   5.364  16.055  0.00  0.00    +0.000 F 
ATOM     13  F   UNL     1       4.685   7.136  15.493  0.00  0.00    +0.000 F 
ATOM     14  F   UNL     1       6.192   7.247  17.064  0.00  0.00    +0.000 F 
ENDBRANCH   3  11
BRANCH   6  15
ATOM     15  C   UNL     1       3.786   2.079  18.663  0.00  0.00    +0.000 C 
ATOM     16  F   UNL     1       3.281   0.818  18.623  0.00  0.00    +0.000 F 
ATOM     17  F   UNL     1       4.114   2.374  17.369  0.00  0.00    +0.000 F 
ATOM     18  F   UNL     1       4.985   1.967  19.311  0.00  0.00    +0.000 F 
ENDBRANCH   6  15
BRANCH   1  19
ATOM     19  C   UNL     1       1.528   7.968  19.685  0.00  0.00    +0.000 C 
BRANCH  19  20
ATOM     20  O   UNL     1       2.028   8.346  20.969  0.00  0.00    +0.000 OA
ATOM     21  H   UNL     1       1.498   7.881  21.637  0.00  0.00    +0.000 HD
ENDBRANCH  19  20
BRANCH  19  22
ATOM     22  C   UNL     1       1.562   9.179  18.742  0.00  0.00    +0.000 C 
BRANCH  22  23
ATOM     23  C   UNL     1       0.884  10.429  19.329  0.00  0.00    +0.000 C 
BRANCH  23  24
ATOM     24  C   UNL     1      -0.643  10.461  19.097  0.00  0.00    +0.000 C 
ATOM     25  C   UNL     1      -0.978   9.911  17.698  0.00  0.00    +0.000 C 
ATOM     26  C   UNL     1      -2.478   9.976  17.415  0.00  0.00    +0.000 C 
ATOM     27  C   UNL     1      -3.010  11.382  17.664  0.00  0.00    +0.000 C 
ATOM     28  C   UNL     1      -2.611  11.880  19.049  0.00  0.00    +0.000 C 
ATOM     29  N   UNL     1      -1.161  11.828  19.240  0.00  0.00    +0.000 NA
ATOM     30  H   UNL     1      -0.962  12.177  20.177  0.00  0.00    +0.000 HD
ENDBRANCH  23  24
ENDBRANCH  22  23
ENDBRANCH  19  22
ENDBRANCH   1  19
TORSDOF 7
ENDMDL
MODEL 6
REMARK VINA RESULT:      -8.1      3.903      7.752
REMARK  Name = 
REMARK  7 active torsions:
REMARK  status: ('A' for Active; 'I' for Inactive)
REMARK    1  A    between atoms: O_1  and  C_2
REMARK    2  A    between atoms: C_2  and  C_3
REMARK    3  A    between atoms: C_2  and  C_11
REMARK    4  A    between atoms: C_3  and  C_4
REMARK    5  A    between atoms: C_4  and  C_5
REMARK    6  A    between atoms: C_13  and  C_14
REMARK    7  A    between atoms: C_20  and  C_21
REMARK                            x       y       z     vdW  Elec       q    Type
REMARK                         _______ _______ _______ _____ _____    ______ ____
ROOT
ATOM      1  C   UNL     1       2.383   6.817  19.085  0.00  0.00    +0.000 A 
ATOM      2  C   UNL     1       3.356   7.111  18.117  0.00  0.00    +0.000 A 
ATOM      3  C   UNL     1       4.132   6.096  17.584  0.00  0.00    +0.000 A 
ATOM      4  N   UNL     1       3.963   4.805  17.972  0.00  0.00    +0.000 NA
ATOM      5  C   UNL     1       3.039   4.478  18.887  0.00  0.00    +0.000 A 
ATOM      6  C   UNL     1       2.900   3.142  19.257  0.00  0.00    +0.000 A 
ATOM      7  C   UNL     1       1.937   2.760  20.213  0.00  0.00    +0.000 A 
ATOM      8  C   UNL     1       1.111   3.706  20.797  0.00  0.00    +0.000 A 
ATOM      9  C   UNL     1       1.241   5.043  20.433  0.00  0.00    +0.000 A 
ATOM     10  C   UNL     1       2.203   5.461  19.482  0.00  0.00    +0.000 A 
ENDROOT
BRANCH   3  11
ATOM     11  C   UNL     1       5.202   6.414  16.547  0.00  0.00    +0.000 C 
ATOM     12  F   UNL     1       5.840   5.304  16.067  0.00  0.00    +0.000 F 
ATOM     13  F   UNL     1       4.707   7.049  15.446  0.00  0.00    +0.000 F 
ATOM     14  F   UNL     1       6.194   7.216  17.033  0.00  0.00    +0.000 F 
ENDBRANCH   3  11
BRANCH   6  15
ATOM     15  C   UNL     1       3.753   2.049  18.659  0.00  0.00    +0.000 C 
ATOM     16  F   UNL     1       4.118   2.173  17.356  0.00  0.00    +0.000 F 
ATOM     17  F   UNL     1       4.926   1.901  19.347  0.00  0.00    +0.000 F 
ATOM     18  F   UNL     1       3.139   0.831  18.748  0.00  0.00    +0.000 F 
ENDBRANCH   6  15
BRANCH   1  19
ATOM     19  C   UNL     1       1.536   7.963  19.628  0.00  0.00    +0.000 C 
BRANCH  19  20
ATOM     20  O   UNL     1       2.054   8.371  20.896  0.00  0.00    +0.000 OA
ATOM     21  H   UNL     1       1.655   7.799  21.571  0.00  0.00    +0.000 HD
ENDBRANCH  19  20
BRANCH  19  22
ATOM     22  C   UNL     1       1.552   9.153  18.658  0.00  0.00    +0.000 C 
BRANCH  22  23
ATOM     23  C   UNL     1       0.986  10.446  19.268  0.00  0.00    +0.000 C 
BRANCH  23  24
ATOM     24  C   UNL     1      -0.277  10.961  18.542  0.00  0.00    +0.000 C 
ATOM     25  C   UNL     1      -1.372  11.311  19.568  0.00  0.00    +0.000 C 
ATOM     26  C   UNL     1      -2.654  11.776  18.882  0.00  0.00    +0.000 C 
ATOM     27  C   UNL     1      -3.099  10.762  17.835  0.00  0.00    +0.000 C 
ATOM     28  C   UNL     1      -1.961  10.430  16.876  0.00  0.00    +0.000 C 
ATOM     29  N   UNL     1      -0.777   9.955  17.595  0.00  0.00    +0.000 NA
ATOM     30  H   UNL     1      -0.060   9.747  16.901  0.00  0.00    +0.000 HD
ENDBRANCH  23  24
ENDBRANCH  22  23
ENDBRANCH  19  22
ENDBRANCH   1  19
TORSDOF 7
ENDMDL
MODEL 7
REMARK VINA RESULT:      -7.9      3.892      7.961
REMARK  Name = 
REMARK  7 active torsions:
REMARK  status: ('A' for Active; 'I' for Inactive)
REMARK    1  A    between atoms: O_1  and  C_2
REMARK    2  A    between atoms: C_2  and  C_3
REMARK    3  A    between atoms: C_2  and  C_11
REMARK    4  A    between atoms: C_3  and  C_4
REMARK    5  A    between atoms: C_4  and  C_5
REMARK    6  A    between atoms: C_13  and  C_14
REMARK    7  A    between atoms: C_20  and  C_21
REMARK                            x       y       z     vdW  Elec       q    Type
REMARK                         _______ _______ _______ _____ _____    ______ ____
ROOT
ATOM      1  C   UNL     1       2.475   6.773  18.963  0.00  0.00    +0.000 A 
ATOM      2  C   UNL     1       3.432   7.012  17.965  0.00  0.00    +0.000 A 
ATOM      3  C   UNL     1       4.177   5.963  17.453  0.00  0.00    +0.000 A 
ATOM      4  N   UNL     1       3.991   4.690  17.892  0.00  0.00    +0.000 NA
ATOM      5  C   UNL     1       3.081   4.415  18.837  0.00  0.00    +0.000 A 
ATOM      6  C   UNL     1       2.924   3.097  19.259  0.00  0.00    +0.000 A 
ATOM      7  C   UNL     1       1.974   2.770  20.248  0.00  0.00    +0.000 A 
ATOM      8  C   UNL     1       1.179   3.753  20.814  0.00  0.00    +0.000 A 
ATOM      9  C   UNL     1       1.328   5.073  20.398  0.00  0.00    +0.000 A 
ATOM     10  C   UNL     1       2.277   5.437  19.413  0.00  0.00    +0.000 A 
ENDROOT
BRANCH   3  11
ATOM     11  C   UNL     1       5.230   6.221  16.384  0.00  0.00    +0.000 C 
ATOM     12  F   UNL     1       5.686   5.080  15.784  0.00  0.00    +0.000 F 
ATOM     13  F   UNL     1       4.776   7.006  15.365  0.00  0.00    +0.000 F 
ATOM     14  F   UNL     1       6.344   6.840  16.871  0.00  0.00    +0.000 F 
ENDBRANCH   3  11
BRANCH   6  15
ATOM     15  C   UNL     1       3.742   1.966  18.685  0.00  0.00    +0.000 C 
ATOM     16  F   UNL     1       4.182   2.090  17.405  0.00  0.00    +0.000 F 
ATOM     17  F   UNL     1       4.867   1.737  19.429  0.00  0.00    +0.000 F 
ATOM     18  F   UNL     1       3.055   0.785  18.718  0.00  0.00    +0.000 F 
ENDBRANCH   6  15
BRANCH   1  19
ATOM     19  C   UNL     1       1.662   7.955  19.480  0.00  0.00    +0.000 C 
BRANCH  19  20
ATOM     20  O   UNL     1       2.068   8.256  20.817  0.00  0.00    +0.000 OA
ATOM     21  H   UNL     1       1.568   7.673  21.412  0.00  0.00    +0.000 HD
ENDBRANCH  19  20
BRANCH  19  22
ATOM     22  C   UNL     1       1.873   9.187  18.589  0.00  0.00    +0.000 C 
BRANCH  22  23
ATOM     23  C   UNL     1       0.559   9.867  18.167  0.00  0.00    +0.000 C 
BRANCH  23  24
ATOM     24  C   UNL     1       0.261  11.160  18.958  0.00  0.00    +0.000 C 
ATOM     25  C   UNL     1      -0.712  10.861  20.115  0.00  0.00    +0.000 C 
ATOM     26  C   UNL     1      -1.069  12.129  20.888  0.00  0.00    +0.000 C 
ATOM     27  C   UNL     1      -1.562  13.214  19.939  0.00  0.00    +0.000 C 
ATOM     28  C   UNL     1      -0.574  13.433  18.798  0.00  0.00    +0.000 C 
ATOM     29  N   UNL     1      -0.306  12.189  18.076  0.00  0.00    +0.000 NA
ATOM     30  H   UNL     1       0.353  12.405  17.328  0.00  0.00    +0.000 HD
ENDBRANCH  23  24
ENDBRANCH  22  23
ENDBRANCH  19  22
ENDBRANCH   1  19
TORSDOF 7
ENDMDL
MODEL 8
REMARK VINA RESULT:      -7.9      3.910      7.950
REMARK  Name = 
REMARK  7 active torsions:
REMARK  status: ('A' for Active; 'I' for Inactive)
REMARK    1  A    between atoms: O_1  and  C_2
REMARK    2  A    between atoms: C_2  and  C_3
REMARK    3  A    between atoms: C_2  and  C_11
REMARK    4  A    between atoms: C_3  and  C_4
REMARK    5  A    between atoms: C_4  and  C_5
REMARK    6  A    between atoms: C_13  and  C_14
REMARK    7  A    between atoms: C_20  and  C_21
REMARK                            x       y       z     vdW  Elec       q    Type
REMARK                         _______ _______ _______ _____ _____    ______ ____
ROOT
ATOM      1  C   UNL     1       2.437   6.859  19.057  0.00  0.00    +0.000 A 
ATOM      2  C   UNL     1       3.409   7.140  18.085  0.00  0.00    +0.000 A 
ATOM      3  C   UNL     1       4.177   6.116  17.556  0.00  0.00    +0.000 A 
ATOM      4  N   UNL     1       3.998   4.828  17.952  0.00  0.00    +0.000 NA
ATOM      5  C   UNL     1       3.074   4.513  18.871  0.00  0.00    +0.000 A 
ATOM      6  C   UNL     1       2.926   3.181  19.249  0.00  0.00    +0.000 A 
ATOM      7  C   UNL     1       1.962   2.812  20.209  0.00  0.00    +0.000 A 
ATOM      8  C   UNL     1       1.145   3.768  20.790  0.00  0.00    +0.000 A 
ATOM      9  C   UNL     1       1.285   5.102  20.418  0.00  0.00    +0.000 A 
ATOM     10  C   UNL     1       2.247   5.507  19.462  0.00  0.00    +0.000 A 
ENDROOT
BRANCH   3  11
ATOM     11  C   UNL     1       5.246   6.419  16.514  0.00  0.00    +0.000 C 
ATOM     12  F   UNL     1       4.754   7.019  15.389  0.00  0.00    +0.000 F 
ATOM     13  F   UNL     1       6.217   7.258  16.975  0.00  0.00    +0.000 F 
ATOM     14  F   UNL     1       5.891   5.301  16.072  0.00  0.00    +0.000 F 
ENDBRANCH   3  11
BRANCH   6  15
ATOM     15  C   UNL     1       3.769   2.078  18.656  0.00  0.00    +0.000 C 
ATOM     16  F   UNL     1       4.203   2.233  17.377  0.00  0.00    +0.000 F 
ATOM     17  F   UNL     1       4.900   1.863  19.395  0.00  0.00    +0.000 F 
ATOM     18  F   UNL     1       3.108   0.881  18.670  0.00  0.00    +0.000 F 
ENDBRANCH   6  15
BRANCH   1  19
ATOM     19  C   UNL     1       1.600   8.015  19.595  0.00  0.00    +0.000 C 
BRANCH  19  20
ATOM     20  O   UNL     1       2.014   8.313  20.930  0.00  0.00    +0.000 OA
ATOM     21  H   UNL     1       1.926   9.272  21.055  0.00  0.00    +0.000 HD
ENDBRANCH  19  20
BRANCH  19  22
ATOM     22  C   UNL     1       1.769   9.260  18.713  0.00  0.00    +0.000 C 
BRANCH  22  23
ATOM     23  C   UNL     1       0.458   9.726  18.057  0.00  0.00    +0.000 C 
BRANCH  23  24
ATOM     24  C   UNL     1      -0.544  10.336  19.062  0.00  0.00    +0.000 C 
ATOM     25  C   UNL     1      -1.446  11.364  18.353  0.00  0.00    +0.000 C 
ATOM     26  C   UNL     1      -2.416  12.025  19.330  0.00  0.00    +0.000 C 
ATOM     27  C   UNL     1      -1.666  12.592  20.529  0.00  0.00    +0.000 C 
ATOM     28  C   UNL     1      -0.764  11.537  21.160  0.00  0.00    +0.000 C 
ATOM     29  N   UNL     1       0.165  10.973  20.180  0.00  0.00    +0.000 NA
ATOM     30  H   UNL     1       0.739  10.282  20.664  0.00  0.00    +0.000 HD
ENDBRANCH  23  24
ENDBRANCH  22  23
ENDBRANCH  19  22
ENDBRANCH   1  19
TORSDOF 7
ENDMDL
MODEL 9
REMARK VINA RESULT:      -7.9      3.896      7.696
REMARK  Name = 
REMARK  7 active torsions:
REMARK  status: ('A' for Active; 'I' for Inactive)
REMARK    1  A    between atoms: O_1  and  C_2
REMARK    2  A    between atoms: C_2  and  C_3
REMARK    3  A    between atoms: C_2  and  C_11
REMARK    4  A    between atoms: C_3  and  C_4
REMARK    5  A    between atoms: C_4  and  C_5
REMARK    6  A    between atoms: C_13  and  C_14
REMARK    7  A    between atoms: C_20  and  C_21
REMARK                            x       y       z     vdW  Elec       q    Type
REMARK                         _______ _______ _______ _____ _____    ______ ____
ROOT
ATOM      1  C   UNL     1       2.452   6.777  18.920  0.00  0.00    +0.000 A 
ATOM      2  C   UNL     1       3.434   7.015  17.946  0.00  0.00    +0.000 A 
ATOM      3  C   UNL     1       4.196   5.965  17.459  0.00  0.00    +0.000 A 
ATOM      4  N   UNL     1       4.002   4.694  17.899  0.00  0.00    +0.000 NA
ATOM      5  C   UNL     1       3.068   4.421  18.821  0.00  0.00    +0.000 A 
ATOM      6  C   UNL     1       2.905   3.104  19.245  0.00  0.00    +0.000 A 
ATOM      7  C   UNL     1       1.931   2.778  20.210  0.00  0.00    +0.000 A 
ATOM      8  C   UNL     1       1.117   3.761  20.751  0.00  0.00    +0.000 A 
ATOM      9  C   UNL     1       1.273   5.080  20.332  0.00  0.00    +0.000 A 
ATOM     10  C   UNL     1       2.246   5.442  19.371  0.00  0.00    +0.000 A 
ENDROOT
BRANCH   3  11
ATOM     11  C   UNL     1       5.276   6.222  16.417  0.00  0.00    +0.000 C 
ATOM     12  F   UNL     1       6.346   6.920  16.903  0.00  0.00    +0.000 F 
ATOM     13  F   UNL     1       5.800   5.075  15.897  0.00  0.00    +0.000 F 
ATOM     14  F   UNL     1       4.827   6.949  15.352  0.00  0.00    +0.000 F 
ENDBRANCH   3  11
BRANCH   6  15
ATOM     15  C   UNL     1       3.742   1.973  18.698  0.00  0.00    +0.000 C 
ATOM     16  F   UNL     1       4.169   2.068  17.412  0.00  0.00    +0.000 F 
ATOM     17  F   UNL     1       4.876   1.789  19.440  0.00  0.00    +0.000 F 
ATOM     18  F   UNL     1       3.079   0.780  18.771  0.00  0.00    +0.000 F 
ENDBRANCH   6  15
BRANCH   1  19
ATOM     19  C   UNL     1       1.621   7.958  19.410  0.00  0.00    +0.000 C 
BRANCH  19  20
ATOM     20  O   UNL     1       2.070   8.340  20.712  0.00  0.00    +0.000 OA
ATOM     21  H   UNL     1       2.887   7.848  20.894  0.00  0.00    +0.000 HD
ENDBRANCH  19  20
BRANCH  19  22
ATOM     22  C   UNL     1       1.756   9.148  18.449  0.00  0.00    +0.000 C 
BRANCH  22  23
ATOM     23  C   UNL     1       0.503  10.038  18.399  0.00  0.00    +0.000 C 
BRANCH  23  24
ATOM     24  C   UNL     1       0.736  11.454  18.973  0.00  0.00    +0.000 C 
ATOM     25  C   UNL     1       2.042  12.045  18.409  0.00  0.00    +0.000 C 
ATOM     26  C   UNL     1       2.330  13.426  18.996  0.00  0.00    +0.000 C 
ATOM     27  C   UNL     1       2.285  13.381  20.519  0.00  0.00    +0.000 C 
ATOM     28  C   UNL     1       0.986  12.751  21.009  0.00  0.00    +0.000 C 
ATOM     29  N   UNL     1       0.790  11.417  20.440  0.00  0.00    +0.000 NA
ATOM     30  H   UNL     1      -0.087  11.051  20.810  0.00  0.00    +0.000 HD
ENDBRANCH  23  24
ENDBRANCH  22  23
ENDBRANCH  19  22
ENDBRANCH   1  19
TORSDOF 7
ENDMDL
