MODEL 1
REMARK VINA RESULT:      -7.7      0.000      0.000
REMARK  Name = 
REMARK  8 active torsions:
REMARK  status: ('A' for Active; 'I' for Inactive)
REMARK    1  A    between atoms: C_1  and  C_2
REMARK    2  A    between atoms: C_5  and  N_6
REMARK    3  A    between atoms: N_6  and  C_16
REMARK    4  A    between atoms: C_7  and  C_9
REMARK    5  A    between atoms: C_9  and  N_10
REMARK    6  A    between atoms: C_16  and  C_17
REMARK    7  A    between atoms: N_19  and  C_20
REMARK    8  A    between atoms: C_25  and  C_26
REMARK                            x       y       z     vdW  Elec       q    Type
REMARK                         _______ _______ _______ _____ _____    ______ ____
ROOT
ATOM      1  N   UNL     1      -0.050  11.048  19.069  0.00  0.00    +0.000 N 
ATOM      2  C   UNL     1      -1.455  10.815  18.777  0.00  0.00    +0.000 C 
ATOM      3  O   UNL     1      -1.908   9.665  18.678  0.00  0.00    +0.000 OA
ENDROOT
BRANCH   1   8
ATOM      4  C   UNL     1       3.056   6.237  19.114  0.00  0.00    +0.000 C 
ATOM      5  C   UNL     1       2.332   7.552  19.115  0.00  0.00    +0.000 A 
ATOM      6  C   UNL     1       2.233   8.328  17.954  0.00  0.00    +0.000 A 
ATOM      7  C   UNL     1       1.469   9.501  17.949  0.00  0.00    +0.000 A 
ATOM      8  C   UNL     1       0.826   9.931  19.113  0.00  0.00    +0.000 A 
ATOM      9  C   UNL     1       0.963   9.187  20.287  0.00  0.00    +0.000 A 
ATOM     10  C   UNL     1       1.709   8.002  20.285  0.00  0.00    +0.000 A 
ENDBRANCH   1   8
BRANCH   1  11
ATOM     11  C   UNL     1       0.501  12.434  19.288  0.00  0.00    +0.000 C 
ATOM     12  C   UNL     1      -0.001  13.706  18.530  0.00  0.00    +0.000 C 
ATOM     13  C   UNL     1       0.944  14.901  18.890  0.00  0.00    +0.000 C 
ATOM     14  C   UNL     1       2.386  14.692  18.416  0.00  0.00    +0.000 C 
ATOM     15  C   UNL     1       2.934  13.373  18.912  0.00  0.00    +0.000 C 
ATOM     16  C   UNL     1       1.927  12.290  18.642  0.00  0.00    +0.000 C 
BRANCH  11  17
ATOM     17  C   UNL     1      -0.011  12.572  20.867  0.00  0.00    +0.000 C 
ATOM     18  O   UNL     1       0.346  11.739  21.705  0.00  0.00    +0.000 OA
ATOM     19  N   UNL     1      -1.040  13.468  21.180  0.00  0.00    +0.000 N 
ATOM     20  H   UNL     1      -1.283  14.187  20.520  0.00  0.00    +0.000 HD
BRANCH  19  21
ATOM     21  C   UNL     1      -1.896  13.444  22.335  0.00  0.00    +0.000 A 
ATOM     22  C   UNL     1      -2.935  12.511  22.498  0.00  0.00    +0.000 A 
ATOM     23  C   UNL     1      -3.779  12.538  23.619  0.00  0.00    +0.000 A 
ATOM     24  C   UNL     1      -3.596  13.488  24.612  0.00  0.00    +0.000 A 
ATOM     25  C   UNL     1      -2.571  14.418  24.483  0.00  0.00    +0.000 A 
ATOM     26  C   UNL     1      -1.723  14.415  23.352  0.00  0.00    +0.000 A 
ATOM     27  C   UNL     1      -0.677  15.498  23.283  0.00  0.00    +0.000 C 
ENDBRANCH  19  21
ENDBRANCH  11  17
ENDBRANCH   1  11
BRANCH   2  28
ATOM     28  C   UNL     1      -2.448  12.021  18.774  0.00  0.00    +0.000 C 
BRANCH  28  29
ATOM     29  N   UNL     1      -3.793  11.878  18.256  0.00  0.00    +0.000 N 
ATOM     30  N   UNL     1      -4.804  11.934  19.180  0.00  0.00    +0.000 NA
ATOM     31  N   UNL     1      -5.902  11.740  18.481  0.00  0.00    +0.000 NA
ATOM     32  N   UNL     1      -5.613  11.536  17.150  0.00  0.00    +0.000 NA
ATOM     33  C   UNL     1      -4.318  11.618  17.030  0.00  0.00    +0.000 A 
ATOM     34  N   UNL     1      -3.582  11.461  15.912  0.00  0.00    +0.000 N 
ATOM     35  H   UNL     1      -4.052  11.016  15.130  0.00  0.00    +0.000 HD
ATOM     36  H   UNL     1      -2.594  11.188  15.973  0.00  0.00    +0.000 HD
ENDBRANCH  28  29
ENDBRANCH   2  28
TORSDOF 6
ENDMDL
MODEL 2
REMARK VINA RESULT:      -7.7      2.501      6.363
REMARK  Name = 
REMARK  8 active torsions:
REMARK  status: ('A' for Active; 'I' for Inactive)
REMARK    1  A    between atoms: C_1  and  C_2
REMARK    2  A    between atoms: C_5  and  N_6
REMARK    3  A    between atoms: N_6  and  C_16
REMARK    4  A    between atoms: C_7  and  C_9
REMARK    5  A    between atoms: C_9  and  N_10
REMARK    6  A    between atoms: C_16  and  C_17
REMARK    7  A    between atoms: N_19  and  C_20
REMARK    8  A    between atoms: C_25  and  C_26
REMARK                            x       y       z     vdW  Elec       q    Type
REMARK                         _______ _______ _______ _____ _____    ______ ____
ROOT
ATOM      1  N   UNL     1       1.340  12.364  19.681  0.00  0.00    +0.000 N 
ATOM      2  C   UNL     1       1.798  11.384  18.709  0.00  0.00    +0.000 C 
ATOM      3  O   UNL     1       2.833  11.568  18.051  0.00  0.00    +0.000 OA
ENDROOT
BRANCH   1   8
ATOM      4  C   UNL     1       4.514  17.131  19.734  0.00  0.00    +0.000 C 
ATOM      5  C   UNL     1       3.606  15.935  19.771  0.00  0.00    +0.000 A 
ATOM      6  C   UNL     1       2.602  15.757  18.812  0.00  0.00    +0.000 A 
ATOM      7  C   UNL     1       1.832  14.587  18.803  0.00  0.00    +0.000 A 
ATOM      8  C   UNL     1       2.032  13.601  19.772  0.00  0.00    +0.000 A 
ATOM      9  C   UNL     1       3.000  13.798  20.761  0.00  0.00    +0.000 A 
ATOM     10  C   UNL     1       3.784  14.957  20.756  0.00  0.00    +0.000 A 
ENDBRANCH   1   8
BRANCH   1  11
ATOM     11  C   UNL     1       0.140  12.117  20.560  0.00  0.00    +0.000 C 
ATOM     12  C   UNL     1      -0.282  13.044  21.745  0.00  0.00    +0.000 C 
ATOM     13  C   UNL     1      -1.448  12.350  22.525  0.00  0.00    +0.000 C 
ATOM     14  C   UNL     1      -1.033  11.027  23.176  0.00  0.00    +0.000 C 
ATOM     15  C   UNL     1      -0.402  10.097  22.164  0.00  0.00    +0.000 C 
ATOM     16  C   UNL     1       0.624  10.859  21.371  0.00  0.00    +0.000 C 
BRANCH  11  17
ATOM     17  C   UNL     1      -0.994  12.313  19.356  0.00  0.00    +0.000 C 
ATOM     18  O   UNL     1      -1.018  13.356  18.698  0.00  0.00    +0.000 OA
ATOM     19  N   UNL     1      -2.066  11.416  19.270  0.00  0.00    +0.000 N 
ATOM     20  H   UNL     1      -2.012  10.538  19.756  0.00  0.00    +0.000 HD
BRANCH  19  21
ATOM     21  C   UNL     1      -3.330  11.629  18.620  0.00  0.00    +0.000 A 
ATOM     22  C   UNL     1      -4.424  12.243  19.256  0.00  0.00    +0.000 A 
ATOM     23  C   UNL     1      -5.658  12.402  18.608  0.00  0.00    +0.000 A 
ATOM     24  C   UNL     1      -5.826  11.965  17.303  0.00  0.00    +0.000 A 
ATOM     25  C   UNL     1      -4.760  11.362  16.645  0.00  0.00    +0.000 A 
ATOM     26  C   UNL     1      -3.516  11.179  17.290  0.00  0.00    +0.000 A 
ATOM     27  C   UNL     1      -2.442  10.467  16.507  0.00  0.00    +0.000 C 
ENDBRANCH  19  21
ENDBRANCH  11  17
ENDBRANCH   1  11
BRANCH   2  28
ATOM     28  C   UNL     1       1.086   9.996  18.626  0.00  0.00    +0.000 C 
BRANCH  28  29
ATOM     29  N   UNL     1       1.853   8.769  18.549  0.00  0.00    +0.000 N 
ATOM     30  N   UNL     1       2.390   8.470  17.324  0.00  0.00    +0.000 NA
ATOM     31  N   UNL     1       2.991   7.313  17.500  0.00  0.00    +0.000 NA
ATOM     32  N   UNL     1       2.826   6.859  18.790  0.00  0.00    +0.000 NA
ATOM     33  C   UNL     1       2.123   7.760  19.417  0.00  0.00    +0.000 A 
ATOM     34  N   UNL     1       1.698   7.731  20.696  0.00  0.00    +0.000 N 
ATOM     35  H   UNL     1       1.732   6.826  21.154  0.00  0.00    +0.000 HD
ATOM     36  H   UNL     1       0.878   8.277  20.985  0.00  0.00    +0.000 HD
ENDBRANCH  28  29
ENDBRANCH   2  28
TORSDOF 6
ENDMDL
MODEL 3
REMARK VINA RESULT:      -7.6      2.681      6.550
REMARK  Name = 
REMARK  8 active torsions:
REMARK  status: ('A' for Active; 'I' for Inactive)
REMARK    1  A    between atoms: C_1  and  C_2
REMARK    2  A    between atoms: C_5  and  N_6
REMARK    3  A    between atoms: N_6  and  C_16
REMARK    4  A    between atoms: C_7  and  C_9
REMARK    5  A    between atoms: C_9  and  N_10
REMARK    6  A    between atoms: C_16  and  C_17
REMARK    7  A    between atoms: N_19  and  C_20
REMARK    8  A    between atoms: C_25  and  C_26
REMARK                            x       y       z     vdW  Elec       q    Type
REMARK                         _______ _______ _______ _____ _____    ______ ____
ROOT
ATOM      1  N   UNL     1       0.268  11.593  19.320  0.00  0.00    +0.000 N 
ATOM      2  C   UNL     1      -0.887  12.049  18.565  0.00  0.00    +0.000 C 
ATOM      3  O   UNL     1      -0.830  13.064  17.855  0.00  0.00    +0.000 OA
ENDROOT
BRANCH   1   8
ATOM      4  C   UNL     1       4.655  15.271  19.174  0.00  0.00    +0.000 C 
ATOM      5  C   UNL     1       3.569  14.238  19.262  0.00  0.00    +0.000 A 
ATOM      6  C   UNL     1       2.798  14.092  20.421  0.00  0.00    +0.000 A 
ATOM      7  C   UNL     1       1.725  13.193  20.448  0.00  0.00    +0.000 A 
ATOM      8  C   UNL     1       1.433  12.405  19.332  0.00  0.00    +0.000 A 
ATOM      9  C   UNL     1       2.232  12.512  18.191  0.00  0.00    +0.000 A 
ATOM     10  C   UNL     1       3.290  13.427  18.156  0.00  0.00    +0.000 A 
ENDBRANCH   1   8
BRANCH   1  11
ATOM     11  C   UNL     1       0.249  10.309  20.112  0.00  0.00    +0.000 C 
ATOM     12  C   UNL     1      -1.044   9.483  20.408  0.00  0.00    +0.000 C 
ATOM     13  C   UNL     1      -0.681   8.338  21.412  0.00  0.00    +0.000 C 
ATOM     14  C   UNL     1      -0.215   8.860  22.776  0.00  0.00    +0.000 C 
ATOM     15  C   UNL     1       0.915   9.852  22.620  0.00  0.00    +0.000 C 
ATOM     16  C   UNL     1       0.550  10.851  21.557  0.00  0.00    +0.000 C 
BRANCH  11  17
ATOM     17  C   UNL     1       1.157   9.429  19.029  0.00  0.00    +0.000 C 
ATOM     18  O   UNL     1       0.808   9.360  17.847  0.00  0.00    +0.000 OA
ATOM     19  N   UNL     1       2.153   8.569  19.506  0.00  0.00    +0.000 N 
ATOM     20  H   UNL     1       2.480   8.673  20.451  0.00  0.00    +0.000 HD
BRANCH  19  21
ATOM     21  C   UNL     1       2.737   7.447  18.823  0.00  0.00    +0.000 A 
ATOM     22  C   UNL     1       3.510   7.578  17.656  0.00  0.00    +0.000 A 
ATOM     23  C   UNL     1       4.034   6.460  16.989  0.00  0.00    +0.000 A 
ATOM     24  C   UNL     1       3.811   5.184  17.481  0.00  0.00    +0.000 A 
ATOM     25  C   UNL     1       3.057   5.022  18.638  0.00  0.00    +0.000 A 
ATOM     26  C   UNL     1       2.509   6.137  19.311  0.00  0.00    +0.000 A 
ATOM     27  C   UNL     1       1.664   5.850  20.526  0.00  0.00    +0.000 C 
ENDBRANCH  19  21
ENDBRANCH  11  17
ENDBRANCH   1  11
BRANCH   2  28
ATOM     28  C   UNL     1      -2.162  11.148  18.495  0.00  0.00    +0.000 C 
BRANCH  28  29
ATOM     29  N   UNL     1      -2.769  10.817  17.223  0.00  0.00    +0.000 N 
ATOM     30  N   UNL     1      -2.106   9.891  16.461  0.00  0.00    +0.000 NA
ATOM     31  N   UNL     1      -2.820   9.794  15.360  0.00  0.00    +0.000 NA
ATOM     32  N   UNL     1      -3.898  10.650  15.392  0.00  0.00    +0.000 NA
ATOM     33  C   UNL     1      -3.849  11.272  16.536  0.00  0.00    +0.000 A 
ATOM     34  N   UNL     1      -4.689  12.222  16.994  0.00  0.00    +0.000 N 
ATOM     35  H   UNL     1      -5.285  12.660  16.299  0.00  0.00    +0.000 HD
ATOM     36  H   UNL     1      -4.379  12.889  17.710  0.00  0.00    +0.000 HD
ENDBRANCH  28  29
ENDBRANCH   2  28
TORSDOF 6
ENDMDL
MODEL 4
REMARK VINA RESULT:      -7.5      1.586      5.834
REMARK  Name = 
REMARK  8 active torsions:
REMARK  status: ('A' for Active; 'I' for Inactive)
REMARK    1  A    between atoms: C_1  and  C_2
REMARK    2  A    between atoms: C_5  and  N_6
REMARK    3  A    between atoms: N_6  and  C_16
REMARK    4  A    between atoms: C_7  and  C_9
REMARK    5  A    between atoms: C_9  and  N_10
REMARK    6  A    between atoms: C_16  and  C_17
REMARK    7  A    between atoms: N_19  and  C_20
REMARK    8  A    between atoms: C_25  and  C_26
REMARK                            x       y       z     vdW  Elec       q    Type
REMARK                         _______ _______ _______ _____ _____    ______ ____
ROOT
ATOM      1  N   UNL     1      -1.141  12.066  20.751  0.00  0.00    +0.000 N 
ATOM      2  C   UNL     1      -1.906  12.404  19.562  0.00  0.00    +0.000 C 
ATOM      3  O   UNL     1      -2.776  13.288  19.588  0.00  0.00    +0.000 OA
ENDROOT
BRANCH   1   8
ATOM      4  C   UNL     1      -2.874  14.889  25.423  0.00  0.00    +0.000 C 
ATOM      5  C   UNL     1      -2.375  14.078  24.262  0.00  0.00    +0.000 A 
ATOM      6  C   UNL     1      -3.084  12.964  23.797  0.00  0.00    +0.000 A 
ATOM      7  C   UNL     1      -2.656  12.281  22.652  0.00  0.00    +0.000 A 
ATOM      8  C   UNL     1      -1.497  12.680  21.982  0.00  0.00    +0.000 A 
ATOM      9  C   UNL     1      -0.759  13.760  22.472  0.00  0.00    +0.000 A 
ATOM     10  C   UNL     1      -1.199  14.456  23.603  0.00  0.00    +0.000 A 
ENDBRANCH   1   8
BRANCH   1  11
ATOM     11  C   UNL     1      -0.014  11.065  20.718  0.00  0.00    +0.000 C 
ATOM     12  C   UNL     1       0.107   9.919  19.662  0.00  0.00    +0.000 C 
ATOM     13  C   UNL     1       1.292   8.985  20.080  0.00  0.00    +0.000 C 
ATOM     14  C   UNL     1       1.058   8.277  21.418  0.00  0.00    +0.000 C 
ATOM     15  C   UNL     1       0.714   9.271  22.505  0.00  0.00    +0.000 C 
ATOM     16  C   UNL     1      -0.344  10.210  21.996  0.00  0.00    +0.000 C 
BRANCH  11  17
ATOM     17  C   UNL     1       1.185  12.170  20.381  0.00  0.00    +0.000 C 
ATOM     18  O   UNL     1       1.833  12.675  21.303  0.00  0.00    +0.000 OA
ATOM     19  N   UNL     1       1.278  12.712  19.094  0.00  0.00    +0.000 N 
ATOM     20  H   UNL     1       0.800  12.259  18.334  0.00  0.00    +0.000 HD
BRANCH  19  21
ATOM     21  C   UNL     1       1.922  13.938  18.709  0.00  0.00    +0.000 A 
ATOM     22  C   UNL     1       3.264  13.999  18.290  0.00  0.00    +0.000 A 
ATOM     23  C   UNL     1       3.877  15.216  17.958  0.00  0.00    +0.000 A 
ATOM     24  C   UNL     1       3.161  16.401  18.021  0.00  0.00    +0.000 A 
ATOM     25  C   UNL     1       1.831  16.372  18.422  0.00  0.00    +0.000 A 
ATOM     26  C   UNL     1       1.204  15.156  18.777  0.00  0.00    +0.000 A 
ATOM     27  C   UNL     1      -0.225  15.240  19.249  0.00  0.00    +0.000 C 
ENDBRANCH  19  21
ENDBRANCH  11  17
ENDBRANCH   1  11
BRANCH   2  28
ATOM     28  C   UNL     1      -1.501  11.783  18.187  0.00  0.00    +0.000 C 
BRANCH  28  29
ATOM     29  N   UNL     1      -2.480  11.117  17.353  0.00  0.00    +0.000 N 
ATOM     30  N   UNL     1      -2.030  10.033  16.645  0.00  0.00    +0.000 NA
ATOM     31  N   UNL     1      -3.074   9.637  15.948  0.00  0.00    +0.000 NA
ATOM     32  N   UNL     1      -4.159  10.453  16.173  0.00  0.00    +0.000 NA
ATOM     33  C   UNL     1      -3.778  11.357  17.031  0.00  0.00    +0.000 A 
ATOM     34  N   UNL     1      -4.501  12.380  17.528  0.00  0.00    +0.000 N 
ATOM     35  H   UNL     1      -5.351  12.608  17.023  0.00  0.00    +0.000 HD
ATOM     36  H   UNL     1      -4.034  13.217  17.894  0.00  0.00    +0.000 HD
ENDBRANCH  28  29
ENDBRANCH   2  28
TORSDOF 6
ENDMDL
MODEL 5
REMARK VINA RESULT:      -7.5      2.246      5.812
REMARK  Name = 
REMARK  8 active torsions:
REMARK  status: ('A' for Active; 'I' for Inactive)
REMARK    1  A    between atoms: C_1  and  C_2
REMARK    2  A    between atoms: C_5  and  N_6
REMARK    3  A    between atoms: N_6  and  C_16
REMARK    4  A    between atoms: C_7  and  C_9
REMARK    5  A    between atoms: C_9  and  N_10
REMARK    6  A    between atoms: C_16  and  C_17
REMARK    7  A    between atoms: N_19  and  C_20
REMARK    8  A    between atoms: C_25  and  C_26
REMARK                            x       y       z     vdW  Elec       q    Type
REMARK                         _______ _______ _______ _____ _____    ______ ____
ROOT
ATOM      1  N   UNL     1      -1.368  11.188  19.770  0.00  0.00    +0.000 N 
ATOM      2  C   UNL     1      -1.967  12.080  20.750  0.00  0.00    +0.000 C 
ATOM      3  O   UNL     1      -3.092  12.568  20.569  0.00  0.00    +0.000 OA
ENDROOT
BRANCH   1   8
ATOM      4  C   UNL     1      -3.646  10.105  14.629  0.00  0.00    +0.000 C 
ATOM      5  C   UNL     1      -3.143  10.428  16.006  0.00  0.00    +0.000 A 
ATOM      6  C   UNL     1      -3.360   9.558  17.081  0.00  0.00    +0.000 A 
ATOM      7  C   UNL     1      -2.797   9.827  18.334  0.00  0.00    +0.000 A 
ATOM      8  C   UNL     1      -2.043  10.986  18.537  0.00  0.00    +0.000 A 
ATOM      9  C   UNL     1      -1.865  11.882  17.480  0.00  0.00    +0.000 A 
ATOM     10  C   UNL     1      -2.410  11.601  16.221  0.00  0.00    +0.000 A 
ENDBRANCH   1   8
BRANCH   1  11
ATOM     11  C   UNL     1      -0.044  10.507  20.013  0.00  0.00    +0.000 C 
ATOM     12  C   UNL     1       0.620   9.505  19.015  0.00  0.00    +0.000 C 
ATOM     13  C   UNL     1       1.874   8.874  19.709  0.00  0.00    +0.000 C 
ATOM     14  C   UNL     1       1.520   8.038  20.944  0.00  0.00    +0.000 C 
ATOM     15  C   UNL     1       0.680   8.835  21.917  0.00  0.00    +0.000 C 
ATOM     16  C   UNL     1      -0.434   9.510  21.165  0.00  0.00    +0.000 C 
BRANCH  11  17
ATOM     17  C   UNL     1       0.869  11.900  19.990  0.00  0.00    +0.000 C 
ATOM     18  O   UNL     1       1.491  12.244  20.999  0.00  0.00    +0.000 OA
ATOM     19  N   UNL     1       0.722  12.800  18.928  0.00  0.00    +0.000 N 
ATOM     20  H   UNL     1       0.271  12.494  18.083  0.00  0.00    +0.000 HD
BRANCH  19  21
ATOM     21  C   UNL     1       1.066  14.196  18.915  0.00  0.00    +0.000 A 
ATOM     22  C   UNL     1       0.151  15.213  19.240  0.00  0.00    +0.000 A 
ATOM     23  C   UNL     1       0.506  16.569  19.180  0.00  0.00    +0.000 A 
ATOM     24  C   UNL     1       1.788  16.942  18.807  0.00  0.00    +0.000 A 
ATOM     25  C   UNL     1       2.717  15.959  18.488  0.00  0.00    +0.000 A 
ATOM     26  C   UNL     1       2.370  14.590  18.528  0.00  0.00    +0.000 A 
ATOM     27  C   UNL     1       3.434  13.606  18.112  0.00  0.00    +0.000 C 
ENDBRANCH  19  21
ENDBRANCH  11  17
ENDBRANCH   1  11
BRANCH   2  28
ATOM     28  C   UNL     1      -1.270  12.277  22.134  0.00  0.00    +0.000 C 
BRANCH  28  29
ATOM     29  N   UNL     1      -1.836  13.160  23.133  0.00  0.00    +0.000 N 
ATOM     30  N   UNL     1      -1.001  14.132  23.620  0.00  0.00    +0.000 NA
ATOM     31  N   UNL     1      -1.720  14.763  24.524  0.00  0.00    +0.000 NA
ATOM     32  N   UNL     1      -2.971  14.202  24.643  0.00  0.00    +0.000 NA
ATOM     33  C   UNL     1      -3.024  13.219  23.789  0.00  0.00    +0.000 A 
ATOM     34  N   UNL     1      -4.049  12.370  23.570  0.00  0.00    +0.000 N 
ATOM     35  H   UNL     1      -4.765  12.345  24.289  0.00  0.00    +0.000 HD
ATOM     36  H   UNL     1      -3.879  11.443  23.164  0.00  0.00    +0.000 HD
ENDBRANCH  28  29
ENDBRANCH   2  28
TORSDOF 6
ENDMDL
MODEL 6
REMARK VINA RESULT:      -7.5      2.453      5.484
REMARK  Name = 
REMARK  8 active torsions:
REMARK  status: ('A' for Active; 'I' for Inactive)
REMARK    1  A    between atoms: C_1  and  C_2
REMARK    2  A    between atoms: C_5  and  N_6
REMARK    3  A    between atoms: N_6  and  C_16
REMARK    4  A    between atoms: C_7  and  C_9
REMARK    5  A    between atoms: C_9  and  N_10
REMARK    6  A    between atoms: C_16  and  C_17
REMARK    7  A    between atoms: N_19  and  C_20
REMARK    8  A    between atoms: C_25  and  C_26
REMARK                            x       y       z     vdW  Elec       q    Type
REMARK                         _______ _______ _______ _____ _____    ______ ____
ROOT
ATOM      1  N   UNL     1      -0.326  10.821  20.103  0.00  0.00    +0.000 N 
ATOM      2  C   UNL     1      -0.239  11.256  21.488  0.00  0.00    +0.000 C 
ATOM      3  O   UNL     1       0.730  10.949  22.197  0.00  0.00    +0.000 OA
ENDROOT
BRANCH   1   8
ATOM      4  C   UNL     1       3.249   6.928  17.898  0.00  0.00    +0.000 C 
ATOM      5  C   UNL     1       2.397   8.005  18.505  0.00  0.00    +0.000 A 
ATOM      6  C   UNL     1       2.082   9.169  17.794  0.00  0.00    +0.000 A 
ATOM      7  C   UNL     1       1.204  10.114  18.338  0.00  0.00    +0.000 A 
ATOM      8  C   UNL     1       0.662   9.926  19.612  0.00  0.00    +0.000 A 
ATOM      9  C   UNL     1       1.013   8.790  20.345  0.00  0.00    +0.000 A 
ATOM     10  C   UNL     1       1.872   7.834  19.791  0.00  0.00    +0.000 A 
ENDBRANCH   1   8
BRANCH   1  11
ATOM     11  C   UNL     1      -1.446  11.263  19.195  0.00  0.00    +0.000 C 
ATOM     12  C   UNL     1      -2.838  11.761  19.702  0.00  0.00    +0.000 C 
ATOM     13  C   UNL     1      -3.780  11.938  18.464  0.00  0.00    +0.000 C 
ATOM     14  C   UNL     1      -4.065  10.622  17.733  0.00  0.00    +0.000 C 
ATOM     15  C   UNL     1      -2.779   9.916  17.365  0.00  0.00    +0.000 C 
ATOM     16  C   UNL     1      -1.873   9.888  18.565  0.00  0.00    +0.000 C 
BRANCH  11  17
ATOM     17  C   UNL     1      -0.648  12.587  18.575  0.00  0.00    +0.000 C 
ATOM     18  O   UNL     1      -0.744  12.856  17.374  0.00  0.00    +0.000 OA
ATOM     19  N   UNL     1       0.325  13.229  19.351  0.00  0.00    +0.000 N 
ATOM     20  H   UNL     1       0.357  13.055  20.340  0.00  0.00    +0.000 HD
BRANCH  19  21
ATOM     21  C   UNL     1       1.390  14.075  18.888  0.00  0.00    +0.000 A 
ATOM     22  C   UNL     1       2.653  13.582  18.514  0.00  0.00    +0.000 A 
ATOM     23  C   UNL     1       3.686  14.438  18.103  0.00  0.00    +0.000 A 
ATOM     24  C   UNL     1       3.478  15.807  18.041  0.00  0.00    +0.000 A 
ATOM     25  C   UNL     1       2.238  16.324  18.396  0.00  0.00    +0.000 A 
ATOM     26  C   UNL     1       1.193  15.477  18.828  0.00  0.00    +0.000 A 
ATOM     27  C   UNL     1      -0.096  16.141  19.240  0.00  0.00    +0.000 C 
ENDBRANCH  19  21
ENDBRANCH  11  17
ENDBRANCH   1  11
BRANCH   2  28
ATOM     28  C   UNL     1      -1.283  12.281  22.036  0.00  0.00    +0.000 C 
BRANCH  28  29
ATOM     29  N   UNL     1      -0.857  13.518  22.657  0.00  0.00    +0.000 N 
ATOM     30  N   UNL     1       0.362  14.002  22.260  0.00  0.00    +0.000 NA
ATOM     31  N   UNL     1       0.538  15.088  22.982  0.00  0.00    +0.000 NA
ATOM     32  N   UNL     1      -0.518  15.288  23.842  0.00  0.00    +0.000 NA
ATOM     33  C   UNL     1      -1.361  14.315  23.635  0.00  0.00    +0.000 A 
ATOM     34  N   UNL     1      -2.530  14.088  24.265  0.00  0.00    +0.000 N 
ATOM     35  H   UNL     1      -2.667  14.587  25.139  0.00  0.00    +0.000 HD
ATOM     36  H   UNL     1      -2.929  13.143  24.296  0.00  0.00    +0.000 HD
ENDBRANCH  28  29
ENDBRANCH   2  28
TORSDOF 6
ENDMDL
MODEL 7
REMARK VINA RESULT:      -7.5      1.232      5.541
REMARK  Name = 
REMARK  8 active torsions:
REMARK  status: ('A' for Active; 'I' for Inactive)
REMARK    1  A    between atoms: C_1  and  C_2
REMARK    2  A    between atoms: C_5  and  N_6
REMARK    3  A    between atoms: N_6  and  C_16
REMARK    4  A    between atoms: C_7  and  C_9
REMARK    5  A    between atoms: C_9  and  N_10
REMARK    6  A    between atoms: C_16  and  C_17
REMARK    7  A    between atoms: N_19  and  C_20
REMARK    8  A    between atoms: C_25  and  C_26
REMARK                            x       y       z     vdW  Elec       q    Type
REMARK                         _______ _______ _______ _____ _____    ______ ____
ROOT
ATOM      1  N   UNL     1      -0.454  12.945  19.253  0.00  0.00    +0.000 N 
ATOM      2  C   UNL     1      -1.391  12.458  18.253  0.00  0.00    +0.000 C 
ATOM      3  O   UNL     1      -1.193  12.646  17.044  0.00  0.00    +0.000 OA
ENDROOT
BRANCH   1   8
ATOM      4  C   UNL     1       4.081  16.229  18.052  0.00  0.00    +0.000 C 
ATOM      5  C   UNL     1       2.875  15.359  18.263  0.00  0.00    +0.000 A 
ATOM      6  C   UNL     1       2.963  13.965  18.188  0.00  0.00    +0.000 A 
ATOM      7  C   UNL     1       1.852  13.168  18.487  0.00  0.00    +0.000 A 
ATOM      8  C   UNL     1       0.631  13.756  18.827  0.00  0.00    +0.000 A 
ATOM      9  C   UNL     1       0.525  15.149  18.853  0.00  0.00    +0.000 A 
ATOM     10  C   UNL     1       1.642  15.944  18.577  0.00  0.00    +0.000 A 
ENDBRANCH   1   8
BRANCH   1  11
ATOM     11  C   UNL     1      -0.624  12.643  20.721  0.00  0.00    +0.000 C 
ATOM     12  C   UNL     1      -1.970  12.181  21.369  0.00  0.00    +0.000 C 
ATOM     13  C   UNL     1      -1.789  12.162  22.924  0.00  0.00    +0.000 C 
ATOM     14  C   UNL     1      -1.512  13.549  23.514  0.00  0.00    +0.000 C 
ATOM     15  C   UNL     1      -0.344  14.212  22.820  0.00  0.00    +0.000 C 
ATOM     16  C   UNL     1      -0.522  14.088  21.332  0.00  0.00    +0.000 C 
BRANCH  11  17
ATOM     17  C   UNL     1       0.406  11.335  20.745  0.00  0.00    +0.000 C 
ATOM     18  O   UNL     1       1.492  11.418  21.326  0.00  0.00    +0.000 OA
ATOM     19  N   UNL     1       0.157  10.248  19.899  0.00  0.00    +0.000 N 
ATOM     20  H   UNL     1      -0.752  10.150  19.480  0.00  0.00    +0.000 HD
BRANCH  19  21
ATOM     21  C   UNL     1       1.096   9.254  19.458  0.00  0.00    +0.000 A 
ATOM     22  C   UNL     1       1.738   9.308  18.208  0.00  0.00    +0.000 A 
ATOM     23  C   UNL     1       2.620   8.301  17.788  0.00  0.00    +0.000 A 
ATOM     24  C   UNL     1       2.895   7.222  18.614  0.00  0.00    +0.000 A 
ATOM     25  C   UNL     1       2.282   7.145  19.859  0.00  0.00    +0.000 A 
ATOM     26  C   UNL     1       1.378   8.142  20.289  0.00  0.00    +0.000 A 
ATOM     27  C   UNL     1       0.727   7.937  21.633  0.00  0.00    +0.000 C 
ENDBRANCH  19  21
ENDBRANCH  11  17
ENDBRANCH   1  11
BRANCH   2  28
ATOM     28  C   UNL     1      -2.562  11.521  18.691  0.00  0.00    +0.000 C 
BRANCH  28  29
ATOM     29  N   UNL     1      -3.913  11.748  18.221  0.00  0.00    +0.000 N 
ATOM     30  N   UNL     1      -4.844  12.040  19.182  0.00  0.00    +0.000 NA
ATOM     31  N   UNL     1      -5.976  12.159  18.521  0.00  0.00    +0.000 NA
ATOM     32  N   UNL     1      -5.793  11.924  17.177  0.00  0.00    +0.000 NA
ATOM     33  C   UNL     1      -4.526  11.668  17.011  0.00  0.00    +0.000 A 
ATOM     34  N   UNL     1      -3.891  11.357  15.863  0.00  0.00    +0.000 N 
ATOM     35  H   UNL     1      -4.485  11.071  15.091  0.00  0.00    +0.000 HD
ATOM     36  H   UNL     1      -3.008  10.833  15.882  0.00  0.00    +0.000 HD
ENDBRANCH  28  29
ENDBRANCH   2  28
TORSDOF 6
ENDMDL
MODEL 8
REMARK VINA RESULT:      -7.4      2.499      6.220
REMARK  Name = 
REMARK  8 active torsions:
REMARK  status: ('A' for Active; 'I' for Inactive)
REMARK    1  A    between atoms: C_1  and  C_2
REMARK    2  A    between atoms: C_5  and  N_6
REMARK    3  A    between atoms: N_6  and  C_16
REMARK    4  A    between atoms: C_7  and  C_9
REMARK    5  A    between atoms: C_9  and  N_10
REMARK    6  A    between atoms: C_16  and  C_17
REMARK    7  A    between atoms: N_19  and  C_20
REMARK    8  A    between atoms: C_25  and  C_26
REMARK                            x       y       z     vdW  Elec       q    Type
REMARK                         _______ _______ _______ _____ _____    ______ ____
ROOT
ATOM      1  N   UNL     1       1.351  12.373  19.630  0.00  0.00    +0.000 N 
ATOM      2  C   UNL     1       1.812  11.384  18.669  0.00  0.00    +0.000 C 
ATOM      3  O   UNL     1       2.847  11.563  18.010  0.00  0.00    +0.000 OA
ENDROOT
BRANCH   1   8
ATOM      4  C   UNL     1       4.527  17.138  19.655  0.00  0.00    +0.000 C 
ATOM      5  C   UNL     1       3.617  15.944  19.695  0.00  0.00    +0.000 A 
ATOM      6  C   UNL     1       2.642  15.741  18.712  0.00  0.00    +0.000 A 
ATOM      7  C   UNL     1       1.872  14.572  18.710  0.00  0.00    +0.000 A 
ATOM      8  C   UNL     1       2.041  13.611  19.710  0.00  0.00    +0.000 A 
ATOM      9  C   UNL     1       2.979  13.834  20.722  0.00  0.00    +0.000 A 
ATOM     10  C   UNL     1       3.764  14.992  20.711  0.00  0.00    +0.000 A 
ENDBRANCH   1   8
BRANCH   1  11
ATOM     11  C   UNL     1       0.150  12.133  20.510  0.00  0.00    +0.000 C 
ATOM     12  C   UNL     1      -0.278  13.075  21.682  0.00  0.00    +0.000 C 
ATOM     13  C   UNL     1      -1.444  12.386  22.468  0.00  0.00    +0.000 C 
ATOM     14  C   UNL     1      -1.024  11.074  23.139  0.00  0.00    +0.000 C 
ATOM     15  C   UNL     1      -0.387  10.134  22.140  0.00  0.00    +0.000 C 
ATOM     16  C   UNL     1       0.637  10.888  21.339  0.00  0.00    +0.000 C 
BRANCH  11  17
ATOM     17  C   UNL     1      -0.982  12.308  19.301  0.00  0.00    +0.000 C 
ATOM     18  O   UNL     1      -0.992  13.330  18.611  0.00  0.00    +0.000 OA
ATOM     19  N   UNL     1      -2.067  11.425  19.244  0.00  0.00    +0.000 N 
ATOM     20  H   UNL     1      -2.026  10.562  19.758  0.00  0.00    +0.000 HD
BRANCH  19  21
ATOM     21  C   UNL     1      -3.329  11.636  18.588  0.00  0.00    +0.000 A 
ATOM     22  C   UNL     1      -3.559  11.299  17.242  0.00  0.00    +0.000 A 
ATOM     23  C   UNL     1      -4.789  11.554  16.619  0.00  0.00    +0.000 A 
ATOM     24  C   UNL     1      -5.827  12.139  17.329  0.00  0.00    +0.000 A 
ATOM     25  C   UNL     1      -5.633  12.475  18.664  0.00  0.00    +0.000 A 
ATOM     26  C   UNL     1      -4.393  12.241  19.301  0.00  0.00    +0.000 A 
ATOM     27  C   UNL     1      -4.269  12.691  20.734  0.00  0.00    +0.000 C 
ENDBRANCH  19  21
ENDBRANCH  11  17
ENDBRANCH   1  11
BRANCH   2  28
ATOM     28  C   UNL     1       1.101   9.994  18.598  0.00  0.00    +0.000 C 
BRANCH  28  29
ATOM     29  N   UNL     1       1.869   8.766  18.563  0.00  0.00    +0.000 N 
ATOM     30  N   UNL     1       2.453   8.456  17.362  0.00  0.00    +0.000 NA
ATOM     31  N   UNL     1       3.046   7.300  17.572  0.00  0.00    +0.000 NA
ATOM     32  N   UNL     1       2.831   6.858  18.857  0.00  0.00    +0.000 NA
ATOM     33  C   UNL     1       2.104   7.764  19.449  0.00  0.00    +0.000 A 
ATOM     34  N   UNL     1       1.630   7.747  20.711  0.00  0.00    +0.000 N 
ATOM     35  H   UNL     1       1.645   6.845  21.178  0.00  0.00    +0.000 HD
ATOM     36  H   UNL     1       0.800   8.296  20.962  0.00  0.00    +0.000 HD
ENDBRANCH  28  29
ENDBRANCH   2  28
TORSDOF 6
ENDMDL
MODEL 9
REMARK VINA RESULT:      -7.4      0.483      1.044
REMARK  Name = 
REMARK  8 active torsions:
REMARK  status: ('A' for Active; 'I' for Inactive)
REMARK    1  A    between atoms: C_1  and  C_2
REMARK    2  A    between atoms: C_5  and  N_6
REMARK    3  A    between atoms: N_6  and  C_16
REMARK    4  A    between atoms: C_7  and  C_9
REMARK    5  A    between atoms: C_9  and  N_10
REMARK    6  A    between atoms: C_16  and  C_17
REMARK    7  A    between atoms: N_19  and  C_20
REMARK    8  A    between atoms: C_25  and  C_26
REMARK                            x       y       z     vdW  Elec       q    Type
REMARK                         _______ _______ _______ _____ _____    ______ ____
ROOT
ATOM      1  N   UNL     1      -0.050  11.038  19.097  0.00  0.00    +0.000 N 
ATOM      2  C   UNL     1      -1.461  10.800  18.839  0.00  0.00    +0.000 C 
ATOM      3  O   UNL     1      -1.911   9.648  18.750  0.00  0.00    +0.000 OA
ENDROOT
BRANCH   1   8
ATOM      4  C   UNL     1       3.076   6.240  19.057  0.00  0.00    +0.000 C 
ATOM      5  C   UNL     1       2.347   7.552  19.078  0.00  0.00    +0.000 A 
ATOM      6  C   UNL     1       2.216   8.330  17.921  0.00  0.00    +0.000 A 
ATOM      7  C   UNL     1       1.448   9.500  17.937  0.00  0.00    +0.000 A 
ATOM      8  C   UNL     1       0.832   9.925  19.117  0.00  0.00    +0.000 A 
ATOM      9  C   UNL     1       1.000   9.179  20.286  0.00  0.00    +0.000 A 
ATOM     10  C   UNL     1       1.750   7.997  20.264  0.00  0.00    +0.000 A 
ENDBRANCH   1   8
BRANCH   1  11
ATOM     11  C   UNL     1       0.501  12.426  19.305  0.00  0.00    +0.000 C 
ATOM     12  C   UNL     1      -0.019  13.695  18.554  0.00  0.00    +0.000 C 
ATOM     13  C   UNL     1       0.928  14.894  18.896  0.00  0.00    +0.000 C 
ATOM     14  C   UNL     1       2.362  14.689  18.397  0.00  0.00    +0.000 C 
ATOM     15  C   UNL     1       2.924  13.372  18.884  0.00  0.00    +0.000 C 
ATOM     16  C   UNL     1       1.915  12.285  18.633  0.00  0.00    +0.000 C 
BRANCH  11  17
ATOM     17  C   UNL     1       0.016  12.564  20.893  0.00  0.00    +0.000 C 
ATOM     18  O   UNL     1       0.399  11.738  21.726  0.00  0.00    +0.000 OA
ATOM     19  N   UNL     1      -1.016  13.450  21.222  0.00  0.00    +0.000 N 
ATOM     20  H   UNL     1      -1.280  14.163  20.564  0.00  0.00    +0.000 HD
BRANCH  19  21
ATOM     21  C   UNL     1      -1.850  13.421  22.392  0.00  0.00    +0.000 A 
ATOM     22  C   UNL     1      -2.776  12.394  22.647  0.00  0.00    +0.000 A 
ATOM     23  C   UNL     1      -3.604  12.413  23.780  0.00  0.00    +0.000 A 
ATOM     24  C   UNL     1      -3.517  13.452  24.694  0.00  0.00    +0.000 A 
ATOM     25  C   UNL     1      -2.604  14.477  24.474  0.00  0.00    +0.000 A 
ATOM     26  C   UNL     1      -1.776  14.481  23.329  0.00  0.00    +0.000 A 
ATOM     27  C   UNL     1      -0.859  15.664  23.157  0.00  0.00    +0.000 C 
ENDBRANCH  19  21
ENDBRANCH  11  17
ENDBRANCH   1  11
BRANCH   2  28
ATOM     28  C   UNL     1      -2.459  12.002  18.863  0.00  0.00    +0.000 C 
BRANCH  28  29
ATOM     29  N   UNL     1      -3.806  11.862  18.351  0.00  0.00    +0.000 N 
ATOM     30  N   UNL     1      -3.917  11.594  17.012  0.00  0.00    +0.000 NA
ATOM     31  N   UNL     1      -5.213  11.555  16.788  0.00  0.00    +0.000 NA
ATOM     32  N   UNL     1      -5.923  11.816  17.938  0.00  0.00    +0.000 NA
ATOM     33  C   UNL     1      -5.048  12.007  18.885  0.00  0.00    +0.000 A 
ATOM     34  N   UNL     1      -5.282  12.314  20.176  0.00  0.00    +0.000 N 
ATOM     35  H   UNL     1      -6.216  12.652  20.388  0.00  0.00    +0.000 HD
ATOM     36  H   UNL     1      -4.565  12.788  20.736  0.00  0.00    +0.000 HD
ENDBRANCH  28  29
ENDBRANCH   2  28
TORSDOF 6
ENDMDL
