MODEL 1
REMARK VINA RESULT:      -7.5      0.000      0.000
REMARK  Name = 
REMARK  8 active torsions:
REMARK  status: ('A' for Active; 'I' for Inactive)
REMARK    1  A    between atoms: S_1  and  C_2
REMARK    2  A    between atoms: C_5  and  C_6
REMARK    3  A    between atoms: C_6  and  O_7
REMARK    4  A    between atoms: O_7  and  C_8
REMARK    5  A    between atoms: C_12  and  O_13
REMARK    6  A    between atoms: O_13  and  C_14
REMARK    7  A    between atoms: C_14  and  C_15
REMARK    8  A    between atoms: C_20  and  S_21
REMARK                            x       y       z     vdW  Elec       q    Type
REMARK                         _______ _______ _______ _____ _____    ______ ____
ROOT
ATOM      1  C   UNL     1       1.596   7.297  20.319  0.00  0.00    +0.000 A 
ATOM      2  C   UNL     1       1.886   8.213  19.308  0.00  0.00    +0.000 A 
ATOM      3  C   UNL     1       2.569   7.809  18.163  0.00  0.00    +0.000 A 
ATOM      4  C   UNL     1       2.931   6.471  18.009  0.00  0.00    +0.000 A 
ATOM      5  C   UNL     1       2.590   5.532  18.984  0.00  0.00    +0.000 A 
ATOM      6  C   UNL     1       1.946   5.950  20.158  0.00  0.00    +0.000 A 
ENDROOT
BRANCH   1   7
ATOM      7  O   UNL     1       0.925   7.816  21.390  0.00  0.00    +0.000 OA
BRANCH   7   8
ATOM      8  C   UNL     1       1.497   8.983  21.984  0.00  0.00    +0.000 C 
BRANCH   8  12
ATOM      9  C   UNL     1      -0.965  11.833  19.800  0.00  0.00    +0.000 A 
ATOM     10  N   UNL     1      -0.073  10.931  20.092  0.00  0.00    +0.000 NA
ATOM     11  N   UNL     1      -0.238  10.701  21.420  0.00  0.00    +0.000 N 
ATOM     12  C   UNL     1       0.375   9.887  22.330  0.00  0.00    +0.000 A 
ATOM     13  N   UNL     1      -0.182  10.097  23.518  0.00  0.00    +0.000 NA
ATOM     14  N   UNL     1      -1.179  11.060  23.376  0.00  0.00    +0.000 NA
ATOM     15  C   UNL     1      -1.177  11.382  22.116  0.00  0.00    +0.000 A 
ATOM     16  S   UNL     1      -2.012  12.456  21.084  0.00  0.00    +0.000 S 
BRANCH   9  17
ATOM     17  S   UNL     1      -1.153  12.440  18.193  0.00  0.00    +0.000 S 
ATOM     18  H   UNL     1      -2.461  12.704  18.314  0.00  0.00    +0.000 HD
ENDBRANCH   9  17
ENDBRANCH   8  12
ENDBRANCH   7   8
ENDBRANCH   1   7
BRANCH   5  19
ATOM     19  O   UNL     1       2.937   4.237  18.682  0.00  0.00    +0.000 OA
BRANCH  19  20
ATOM     20  C   UNL     1       4.037   3.716  19.427  0.00  0.00    +0.000 C 
BRANCH  20  21
ATOM     21  C   UNL     1       5.288   4.326  18.917  0.00  0.00    +0.000 A 
ATOM     22  N   UNL     1       6.274   4.845  19.643  0.00  0.00    +0.000 NA
ATOM     23  N   UNL     1       7.317   5.195  18.794  0.00  0.00    +0.000 NA
ATOM     24  C   UNL     1       6.913   4.879  17.600  0.00  0.00    +0.000 A 
ATOM     25  S   UNL     1       7.545   4.923  16.017  0.00  0.00    +0.000 S 
ATOM     26  C   UNL     1       6.010   4.192  15.523  0.00  0.00    +0.000 A 
ATOM     27  N   UNL     1       5.119   3.920  16.434  0.00  0.00    +0.000 NA
ATOM     28  N   UNL     1       5.670   4.338  17.602  0.00  0.00    +0.000 N 
BRANCH  26  29
ATOM     29  S   UNL     1       5.780   3.867  13.841  0.00  0.00    +0.000 S 
ATOM     30  H   UNL     1       5.631   2.541  13.971  0.00  0.00    +0.000 HD
ENDBRANCH  26  29
ENDBRANCH  20  21
ENDBRANCH  19  20
ENDBRANCH   5  19
TORSDOF 8
ENDMDL
MODEL 2
REMARK VINA RESULT:      -7.5      0.629      8.863
REMARK  Name = 
REMARK  8 active torsions:
REMARK  status: ('A' for Active; 'I' for Inactive)
REMARK    1  A    between atoms: S_1  and  C_2
REMARK    2  A    between atoms: C_5  and  C_6
REMARK    3  A    between atoms: C_6  and  O_7
REMARK    4  A    between atoms: O_7  and  C_8
REMARK    5  A    between atoms: C_12  and  O_13
REMARK    6  A    between atoms: O_13  and  C_14
REMARK    7  A    between atoms: C_14  and  C_15
REMARK    8  A    between atoms: C_20  and  S_21
REMARK                            x       y       z     vdW  Elec       q    Type
REMARK                         _______ _______ _______ _____ _____    ______ ____
ROOT
ATOM      1  C   UNL     1       2.553   5.867  18.853  0.00  0.00    +0.000 A 
ATOM      2  C   UNL     1       2.761   6.757  17.799  0.00  0.00    +0.000 A 
ATOM      3  C   UNL     1       2.444   8.107  17.941  0.00  0.00    +0.000 A 
ATOM      4  C   UNL     1       1.952   8.577  19.158  0.00  0.00    +0.000 A 
ATOM      5  C   UNL     1       1.800   7.708  20.241  0.00  0.00    +0.000 A 
ATOM      6  C   UNL     1       2.073   6.342  20.080  0.00  0.00    +0.000 A 
ENDROOT
BRANCH   1   7
ATOM      7  O   UNL     1       2.901   4.572  18.587  0.00  0.00    +0.000 OA
BRANCH   7   8
ATOM      8  C   UNL     1       3.868   3.989  19.463  0.00  0.00    +0.000 C 
BRANCH   8  12
ATOM      9  C   UNL     1       5.909   4.225  15.624  0.00  0.00    +0.000 A 
ATOM     10  N   UNL     1       5.007   4.018  16.540  0.00  0.00    +0.000 NA
ATOM     11  N   UNL     1       5.596   4.414  17.699  0.00  0.00    +0.000 N 
ATOM     12  C   UNL     1       5.200   4.450  19.005  0.00  0.00    +0.000 A 
ATOM     13  N   UNL     1       6.211   4.911  19.734  0.00  0.00    +0.000 NA
ATOM     14  N   UNL     1       7.280   5.187  18.884  0.00  0.00    +0.000 NA
ATOM     15  C   UNL     1       6.866   4.882  17.689  0.00  0.00    +0.000 A 
ATOM     16  S   UNL     1       7.486   4.873  16.099  0.00  0.00    +0.000 S 
BRANCH   9  17
ATOM     17  S   UNL     1       5.607   3.884  13.958  0.00  0.00    +0.000 S 
ATOM     18  H   UNL     1       6.836   3.414  13.705  0.00  0.00    +0.000 HD
ENDBRANCH   9  17
ENDBRANCH   8  12
ENDBRANCH   7   8
ENDBRANCH   1   7
BRANCH   5  19
ATOM     19  O   UNL     1       1.378   8.306  21.403  0.00  0.00    +0.000 OA
BRANCH  19  20
ATOM     20  C   UNL     1      -0.038   8.399  21.556  0.00  0.00    +0.000 C 
BRANCH  20  21
ATOM     21  C   UNL     1      -0.375   9.754  22.051  0.00  0.00    +0.000 A 
ATOM     22  N   UNL     1      -0.543  10.119  23.319  0.00  0.00    +0.000 NA
ATOM     23  N   UNL     1      -0.722  11.497  23.367  0.00  0.00    +0.000 NA
ATOM     24  C   UNL     1      -0.662  11.897  22.132  0.00  0.00    +0.000 A 
ATOM     25  S   UNL     1      -0.738  13.382  21.297  0.00  0.00    +0.000 S 
ATOM     26  C   UNL     1      -0.474  12.423  19.832  0.00  0.00    +0.000 A 
ATOM     27  N   UNL     1      -0.324  11.134  19.941  0.00  0.00    +0.000 NA
ATOM     28  N   UNL     1      -0.450  10.875  21.268  0.00  0.00    +0.000 N 
BRANCH  26  29
ATOM     29  S   UNL     1      -0.421  13.263  18.322  0.00  0.00    +0.000 S 
ATOM     30  H   UNL     1      -1.724  13.575  18.286  0.00  0.00    +0.000 HD
ENDBRANCH  26  29
ENDBRANCH  20  21
ENDBRANCH  19  20
ENDBRANCH   5  19
TORSDOF 8
ENDMDL
MODEL 3
REMARK VINA RESULT:      -7.5      1.726      8.814
REMARK  Name = 
REMARK  8 active torsions:
REMARK  status: ('A' for Active; 'I' for Inactive)
REMARK    1  A    between atoms: S_1  and  C_2
REMARK    2  A    between atoms: C_5  and  C_6
REMARK    3  A    between atoms: C_6  and  O_7
REMARK    4  A    between atoms: O_7  and  C_8
REMARK    5  A    between atoms: C_12  and  O_13
REMARK    6  A    between atoms: O_13  and  C_14
REMARK    7  A    between atoms: C_14  and  C_15
REMARK    8  A    between atoms: C_20  and  S_21
REMARK                            x       y       z     vdW  Elec       q    Type
REMARK                         _______ _______ _______ _____ _____    ______ ____
ROOT
ATOM      1  C   UNL     1       2.316   4.931  18.705  0.00  0.00    +0.000 A 
ATOM      2  C   UNL     1       1.818   4.785  20.001  0.00  0.00    +0.000 A 
ATOM      3  C   UNL     1       1.607   5.903  20.806  0.00  0.00    +0.000 A 
ATOM      4  C   UNL     1       1.859   7.178  20.300  0.00  0.00    +0.000 A 
ATOM      5  C   UNL     1       2.296   7.340  18.984  0.00  0.00    +0.000 A 
ATOM      6  C   UNL     1       2.554   6.212  18.192  0.00  0.00    +0.000 A 
ENDROOT
BRANCH   1   7
ATOM      7  O   UNL     1       2.480   3.761  18.019  0.00  0.00    +0.000 OA
BRANCH   7   8
ATOM      8  C   UNL     1       3.517   2.896  18.489  0.00  0.00    +0.000 C 
BRANCH   8  12
ATOM      9  C   UNL     1       6.082   4.099  15.183  0.00  0.00    +0.000 A 
ATOM     10  N   UNL     1       5.098   3.596  15.871  0.00  0.00    +0.000 NA
ATOM     11  N   UNL     1       5.398   3.887  17.163  0.00  0.00    +0.000 N 
ATOM     12  C   UNL     1       4.792   3.641  18.362  0.00  0.00    +0.000 A 
ATOM     13  N   UNL     1       5.559   4.137  19.326  0.00  0.00    +0.000 NA
ATOM     14  N   UNL     1       6.680   4.723  18.744  0.00  0.00    +0.000 NA
ATOM     15  C   UNL     1       6.537   4.555  17.462  0.00  0.00    +0.000 A 
ATOM     16  S   UNL     1       7.403   4.912  16.035  0.00  0.00    +0.000 S 
BRANCH   9  17
ATOM     17  S   UNL     1       6.133   3.992  13.459  0.00  0.00    +0.000 S 
ATOM     18  H   UNL     1       4.808   3.867  13.304  0.00  0.00    +0.000 HD
ENDBRANCH   9  17
ENDBRANCH   8  12
ENDBRANCH   7   8
ENDBRANCH   1   7
BRANCH   5  19
ATOM     19  O   UNL     1       2.437   8.646  18.582  0.00  0.00    +0.000 OA
BRANCH  19  20
ATOM     20  C   UNL     1       1.360   9.157  17.798  0.00  0.00    +0.000 C 
BRANCH  20  21
ATOM     21  C   UNL     1       0.526  10.036  18.650  0.00  0.00    +0.000 A 
ATOM     22  N   UNL     1       0.897  10.635  19.779  0.00  0.00    +0.000 NA
ATOM     23  N   UNL     1      -0.133  11.468  20.201  0.00  0.00    +0.000 NA
ATOM     24  C   UNL     1      -1.075  11.330  19.317  0.00  0.00    +0.000 A 
ATOM     25  S   UNL     1      -2.625  11.983  19.035  0.00  0.00    +0.000 S 
ATOM     26  C   UNL     1      -2.642  10.973  17.580  0.00  0.00    +0.000 A 
ATOM     27  N   UNL     1      -1.601  10.237  17.311  0.00  0.00    +0.000 NA
ATOM     28  N   UNL     1      -0.737  10.462  18.333  0.00  0.00    +0.000 N 
BRANCH  26  29
ATOM     29  S   UNL     1      -4.052  11.027  16.581  0.00  0.00    +0.000 S 
ATOM     30  H   UNL     1      -4.915  10.640  17.532  0.00  0.00    +0.000 HD
ENDBRANCH  26  29
ENDBRANCH  20  21
ENDBRANCH  19  20
ENDBRANCH   5  19
TORSDOF 8
ENDMDL
MODEL 4
REMARK VINA RESULT:      -7.4      1.855      2.908
REMARK  Name = 
REMARK  8 active torsions:
REMARK  status: ('A' for Active; 'I' for Inactive)
REMARK    1  A    between atoms: S_1  and  C_2
REMARK    2  A    between atoms: C_5  and  C_6
REMARK    3  A    between atoms: C_6  and  O_7
REMARK    4  A    between atoms: O_7  and  C_8
REMARK    5  A    between atoms: C_12  and  O_13
REMARK    6  A    between atoms: O_13  and  C_14
REMARK    7  A    between atoms: C_14  and  C_15
REMARK    8  A    between atoms: C_20  and  S_21
REMARK                            x       y       z     vdW  Elec       q    Type
REMARK                         _______ _______ _______ _____ _____    ______ ____
ROOT
ATOM      1  C   UNL     1       1.896   5.345  19.930  0.00  0.00    +0.000 A 
ATOM      2  C   UNL     1       1.162   4.358  20.589  0.00  0.00    +0.000 A 
ATOM      3  C   UNL     1       0.922   3.130  19.978  0.00  0.00    +0.000 A 
ATOM      4  C   UNL     1       1.451   2.871  18.714  0.00  0.00    +0.000 A 
ATOM      5  C   UNL     1       2.241   3.826  18.071  0.00  0.00    +0.000 A 
ATOM      6  C   UNL     1       2.440   5.080  18.667  0.00  0.00    +0.000 A 
ENDROOT
BRANCH   1   7
ATOM      7  O   UNL     1       2.060   6.505  20.634  0.00  0.00    +0.000 OA
BRANCH   7   8
ATOM      8  C   UNL     1       1.912   7.718  19.892  0.00  0.00    +0.000 C 
BRANCH   8  12
ATOM      9  C   UNL     1      -0.831  11.056  19.361  0.00  0.00    +0.000 A 
ATOM     10  N   UNL     1      -0.063  10.032  19.128  0.00  0.00    +0.000 NA
ATOM     11  N   UNL     1       0.414   9.673  20.348  0.00  0.00    +0.000 N 
ATOM     12  C   UNL     1       1.260   8.698  20.792  0.00  0.00    +0.000 A 
ATOM     13  N   UNL     1       1.400   8.834  22.106  0.00  0.00    +0.000 NA
ATOM     14  N   UNL     1       0.625   9.914  22.524  0.00  0.00    +0.000 NA
ATOM     15  C   UNL     1       0.056  10.374  21.449  0.00  0.00    +0.000 A 
ATOM     16  S   UNL     1      -1.001  11.645  21.022  0.00  0.00    +0.000 S 
BRANCH   9  17
ATOM     17  S   UNL     1      -1.688  11.858  18.093  0.00  0.00    +0.000 S 
ATOM     18  H   UNL     1      -2.563  12.469  18.904  0.00  0.00    +0.000 HD
ENDBRANCH   9  17
ENDBRANCH   8  12
ENDBRANCH   7   8
ENDBRANCH   1   7
BRANCH   5  19
ATOM     19  O   UNL     1       2.763   3.424  16.866  0.00  0.00    +0.000 OA
BRANCH  19  20
ATOM     20  C   UNL     1       4.140   3.049  16.898  0.00  0.00    +0.000 C 
BRANCH  20  21
ATOM     21  C   UNL     1       4.961   4.219  16.505  0.00  0.00    +0.000 A 
ATOM     22  N   UNL     1       4.834   4.944  15.397  0.00  0.00    +0.000 NA
ATOM     23  N   UNL     1       5.707   6.023  15.466  0.00  0.00    +0.000 NA
ATOM     24  C   UNL     1       6.323   5.897  16.604  0.00  0.00    +0.000 A 
ATOM     25  S   UNL     1       7.493   6.764  17.491  0.00  0.00    +0.000 S 
ATOM     26  C   UNL     1       7.293   5.513  18.728  0.00  0.00    +0.000 A 
ATOM     27  N   UNL     1       6.433   4.556  18.524  0.00  0.00    +0.000 NA
ATOM     28  N   UNL     1       5.912   4.806  17.296  0.00  0.00    +0.000 N 
BRANCH  26  29
ATOM     29  S   UNL     1       8.252   5.639  20.161  0.00  0.00    +0.000 S 
ATOM     30  H   UNL     1       9.013   6.658  19.734  0.00  0.00    +0.000 HD
ENDBRANCH  26  29
ENDBRANCH  20  21
ENDBRANCH  19  20
ENDBRANCH   5  19
TORSDOF 8
ENDMDL
MODEL 5
REMARK VINA RESULT:      -7.4      0.992      8.566
REMARK  Name = 
REMARK  8 active torsions:
REMARK  status: ('A' for Active; 'I' for Inactive)
REMARK    1  A    between atoms: S_1  and  C_2
REMARK    2  A    between atoms: C_5  and  C_6
REMARK    3  A    between atoms: C_6  and  O_7
REMARK    4  A    between atoms: O_7  and  C_8
REMARK    5  A    between atoms: C_12  and  O_13
REMARK    6  A    between atoms: O_13  and  C_14
REMARK    7  A    between atoms: C_14  and  C_15
REMARK    8  A    between atoms: C_20  and  S_21
REMARK                            x       y       z     vdW  Elec       q    Type
REMARK                         _______ _______ _______ _____ _____    ______ ____
ROOT
ATOM      1  C   UNL     1       2.499   5.587  18.907  0.00  0.00    +0.000 A 
ATOM      2  C   UNL     1       2.708   6.452  17.832  0.00  0.00    +0.000 A 
ATOM      3  C   UNL     1       2.454   7.816  17.963  0.00  0.00    +0.000 A 
ATOM      4  C   UNL     1       2.024   8.326  19.187  0.00  0.00    +0.000 A 
ATOM      5  C   UNL     1       1.872   7.480  20.289  0.00  0.00    +0.000 A 
ATOM      6  C   UNL     1       2.081   6.101  20.142  0.00  0.00    +0.000 A 
ENDROOT
BRANCH   1   7
ATOM      7  O   UNL     1       2.782   4.275  18.652  0.00  0.00    +0.000 OA
BRANCH   7   8
ATOM      8  C   UNL     1       3.786   3.677  19.475  0.00  0.00    +0.000 C 
BRANCH   8  12
ATOM      9  C   UNL     1       5.929   4.193  15.720  0.00  0.00    +0.000 A 
ATOM     10  N   UNL     1       5.020   3.880  16.597  0.00  0.00    +0.000 NA
ATOM     11  N   UNL     1       5.526   4.304  17.784  0.00  0.00    +0.000 N 
ATOM     12  C   UNL     1       5.083   4.272  19.075  0.00  0.00    +0.000 A 
ATOM     13  N   UNL     1       6.019   4.811  19.850  0.00  0.00    +0.000 NA
ATOM     14  N   UNL     1       7.086   5.206  19.047  0.00  0.00    +0.000 NA
ATOM     15  C   UNL     1       6.745   4.890  17.831  0.00  0.00    +0.000 A 
ATOM     16  S   UNL     1       7.419   4.977  16.265  0.00  0.00    +0.000 S 
BRANCH   9  17
ATOM     17  S   UNL     1       5.720   3.862  14.037  0.00  0.00    +0.000 S 
ATOM     18  H   UNL     1       5.004   2.745  14.219  0.00  0.00    +0.000 HD
ENDBRANCH   9  17
ENDBRANCH   8  12
ENDBRANCH   7   8
ENDBRANCH   1   7
BRANCH   5  19
ATOM     19  O   UNL     1       1.515   8.113  21.454  0.00  0.00    +0.000 OA
BRANCH  19  20
ATOM     20  C   UNL     1       0.155   8.540  21.519  0.00  0.00    +0.000 C 
BRANCH  20  21
ATOM     21  C   UNL     1       0.103  10.002  21.286  0.00  0.00    +0.000 A 
ATOM     22  N   UNL     1       0.723  10.943  21.993  0.00  0.00    +0.000 NA
ATOM     23  N   UNL     1       0.520  12.172  21.376  0.00  0.00    +0.000 NA
ATOM     24  C   UNL     1      -0.214  11.919  20.334  0.00  0.00    +0.000 A 
ATOM     25  S   UNL     1      -0.883  12.800  19.036  0.00  0.00    +0.000 S 
ATOM     26  C   UNL     1      -1.509  11.242  18.472  0.00  0.00    +0.000 A 
ATOM     27  N   UNL     1      -1.239  10.168  19.158  0.00  0.00    +0.000 NA
ATOM     28  N   UNL     1      -0.509  10.601  20.218  0.00  0.00    +0.000 N 
BRANCH  26  29
ATOM     29  S   UNL     1      -2.446  11.232  17.019  0.00  0.00    +0.000 S 
ATOM     30  H   UNL     1      -3.432  12.015  17.480  0.00  0.00    +0.000 HD
ENDBRANCH  26  29
ENDBRANCH  20  21
ENDBRANCH  19  20
ENDBRANCH   5  19
TORSDOF 8
ENDMDL
MODEL 6
REMARK VINA RESULT:      -7.4      1.573      8.755
REMARK  Name = 
REMARK  8 active torsions:
REMARK  status: ('A' for Active; 'I' for Inactive)
REMARK    1  A    between atoms: S_1  and  C_2
REMARK    2  A    between atoms: C_5  and  C_6
REMARK    3  A    between atoms: C_6  and  O_7
REMARK    4  A    between atoms: O_7  and  C_8
REMARK    5  A    between atoms: C_12  and  O_13
REMARK    6  A    between atoms: O_13  and  C_14
REMARK    7  A    between atoms: C_14  and  C_15
REMARK    8  A    between atoms: C_20  and  S_21
REMARK                            x       y       z     vdW  Elec       q    Type
REMARK                         _______ _______ _______ _____ _____    ______ ____
ROOT
ATOM      1  C   UNL     1       2.516   5.177  18.945  0.00  0.00    +0.000 A 
ATOM      2  C   UNL     1       1.948   5.276  20.215  0.00  0.00    +0.000 A 
ATOM      3  C   UNL     1       1.625   6.521  20.750  0.00  0.00    +0.000 A 
ATOM      4  C   UNL     1       1.836   7.674  19.994  0.00  0.00    +0.000 A 
ATOM      5  C   UNL     1       2.343   7.584  18.696  0.00  0.00    +0.000 A 
ATOM      6  C   UNL     1       2.713   6.333  18.179  0.00  0.00    +0.000 A 
ENDROOT
BRANCH   1   7
ATOM      7  O   UNL     1       2.788   3.902  18.535  0.00  0.00    +0.000 OA
BRANCH   7   8
ATOM      8  C   UNL     1       3.854   3.237  19.215  0.00  0.00    +0.000 C 
BRANCH   8  12
ATOM      9  C   UNL     1       5.981   4.146  15.527  0.00  0.00    +0.000 A 
ATOM     10  N   UNL     1       5.093   3.710  16.372  0.00  0.00    +0.000 NA
ATOM     11  N   UNL     1       5.553   4.100  17.589  0.00  0.00    +0.000 N 
ATOM     12  C   UNL     1       5.103   3.956  18.870  0.00  0.00    +0.000 A 
ATOM     13  N   UNL     1       5.986   4.520  19.687  0.00  0.00    +0.000 NA
ATOM     14  N   UNL     1       7.025   5.046  18.923  0.00  0.00    +0.000 NA
ATOM     15  C   UNL     1       6.721   4.777  17.686  0.00  0.00    +0.000 A 
ATOM     16  S   UNL     1       7.399   5.011  16.138  0.00  0.00    +0.000 S 
BRANCH   9  17
ATOM     17  S   UNL     1       5.814   3.901  13.825  0.00  0.00    +0.000 S 
ATOM     18  H   UNL     1       6.052   2.584  13.866  0.00  0.00    +0.000 HD
ENDBRANCH   9  17
ENDBRANCH   8  12
ENDBRANCH   7   8
ENDBRANCH   1   7
BRANCH   5  19
ATOM     19  O   UNL     1       2.435   8.781  18.030  0.00  0.00    +0.000 OA
BRANCH  19  20
ATOM     20  C   UNL     1       1.232   9.547  17.993  0.00  0.00    +0.000 C 
BRANCH  20  21
ATOM     21  C   UNL     1       1.480  10.855  18.644  0.00  0.00    +0.000 A 
ATOM     22  N   UNL     1       2.243  11.842  18.181  0.00  0.00    +0.000 NA
ATOM     23  N   UNL     1       2.111  12.941  19.022  0.00  0.00    +0.000 NA
ATOM     24  C   UNL     1       1.284  12.567  19.952  0.00  0.00    +0.000 A 
ATOM     25  S   UNL     1       0.551  13.267  21.324  0.00  0.00    +0.000 S 
ATOM     26  C   UNL     1      -0.268  11.710  21.520  0.00  0.00    +0.000 A 
ATOM     27  N   UNL     1      -0.044  10.765  20.651  0.00  0.00    +0.000 NA
ATOM     28  N   UNL     1       0.856  11.293  19.781  0.00  0.00    +0.000 N 
BRANCH  26  29
ATOM     29  S   UNL     1      -1.340  11.529  22.864  0.00  0.00    +0.000 S 
ATOM     30  H   UNL     1      -1.200  10.201  22.981  0.00  0.00    +0.000 HD
ENDBRANCH  26  29
ENDBRANCH  20  21
ENDBRANCH  19  20
ENDBRANCH   5  19
TORSDOF 8
ENDMDL
MODEL 7
REMARK VINA RESULT:      -7.3      1.619      9.120
REMARK  Name = 
REMARK  8 active torsions:
REMARK  status: ('A' for Active; 'I' for Inactive)
REMARK    1  A    between atoms: S_1  and  C_2
REMARK    2  A    between atoms: C_5  and  C_6
REMARK    3  A    between atoms: C_6  and  O_7
REMARK    4  A    between atoms: O_7  and  C_8
REMARK    5  A    between atoms: C_12  and  O_13
REMARK    6  A    between atoms: O_13  and  C_14
REMARK    7  A    between atoms: C_14  and  C_15
REMARK    8  A    between atoms: C_20  and  S_21
REMARK                            x       y       z     vdW  Elec       q    Type
REMARK                         _______ _______ _______ _____ _____    ______ ____
ROOT
ATOM      1  C   UNL     1       2.740   5.090  18.518  0.00  0.00    +0.000 A 
ATOM      2  C   UNL     1       2.036   4.146  19.267  0.00  0.00    +0.000 A 
ATOM      3  C   UNL     1       1.389   4.517  20.444  0.00  0.00    +0.000 A 
ATOM      4  C   UNL     1       1.413   5.849  20.856  0.00  0.00    +0.000 A 
ATOM      5  C   UNL     1       2.059   6.815  20.082  0.00  0.00    +0.000 A 
ATOM      6  C   UNL     1       2.751   6.431  18.924  0.00  0.00    +0.000 A 
ENDROOT
BRANCH   1   7
ATOM      7  O   UNL     1       3.332   4.602  17.388  0.00  0.00    +0.000 OA
BRANCH   7   8
ATOM      8  C   UNL     1       4.536   3.856  17.580  0.00  0.00    +0.000 C 
BRANCH   8  12
ATOM      9  C   UNL     1       6.183   3.868  13.550  0.00  0.00    +0.000 A 
ATOM     10  N   UNL     1       5.449   3.597  14.590  0.00  0.00    +0.000 NA
ATOM     11  N   UNL     1       5.934   4.399  15.573  0.00  0.00    +0.000 N 
ATOM     12  C   UNL     1       5.617   4.595  16.886  0.00  0.00    +0.000 A 
ATOM     13  N   UNL     1       6.457   5.495  17.387  0.00  0.00    +0.000 NA
ATOM     14  N   UNL     1       7.330   5.896  16.379  0.00  0.00    +0.000 NA
ATOM     15  C   UNL     1       6.978   5.223  15.322  0.00  0.00    +0.000 A 
ATOM     16  S   UNL     1       7.483   5.060  13.700  0.00  0.00    +0.000 S 
BRANCH   9  17
ATOM     17  S   UNL     1       5.924   3.093  12.027  0.00  0.00    +0.000 S 
ATOM     18  H   UNL     1       5.174   2.100  12.521  0.00  0.00    +0.000 HD
ENDBRANCH   9  17
ENDBRANCH   8  12
ENDBRANCH   7   8
ENDBRANCH   1   7
BRANCH   5  19
ATOM     19  O   UNL     1       1.949   8.100  20.556  0.00  0.00    +0.000 OA
BRANCH  19  20
ATOM     20  C   UNL     1       0.681   8.428  21.125  0.00  0.00    +0.000 C 
BRANCH  20  21
ATOM     21  C   UNL     1       0.490   9.895  21.047  0.00  0.00    +0.000 A 
ATOM     22  N   UNL     1       1.095  10.817  21.790  0.00  0.00    +0.000 NA
ATOM     23  N   UNL     1       0.738  12.075  21.320  0.00  0.00    +0.000 NA
ATOM     24  C   UNL     1      -0.067  11.857  20.324  0.00  0.00    +0.000 A 
ATOM     25  S   UNL     1      -0.922  12.792  19.183  0.00  0.00    +0.000 S 
ATOM     26  C   UNL     1      -1.471  11.245  18.519  0.00  0.00    +0.000 A 
ATOM     27  N   UNL     1      -1.053  10.140  19.067  0.00  0.00    +0.000 NA
ATOM     28  N   UNL     1      -0.265  10.535  20.100  0.00  0.00    +0.000 N 
BRANCH  26  29
ATOM     29  S   UNL     1      -2.535  11.288  17.157  0.00  0.00    +0.000 S 
ATOM     30  H   UNL     1      -3.651  10.995  17.839  0.00  0.00    +0.000 HD
ENDBRANCH  26  29
ENDBRANCH  20  21
ENDBRANCH  19  20
ENDBRANCH   5  19
TORSDOF 8
ENDMDL
MODEL 8
REMARK VINA RESULT:      -7.3      1.669      2.170
REMARK  Name = 
REMARK  8 active torsions:
REMARK  status: ('A' for Active; 'I' for Inactive)
REMARK    1  A    between atoms: S_1  and  C_2
REMARK    2  A    between atoms: C_5  and  C_6
REMARK    3  A    between atoms: C_6  and  O_7
REMARK    4  A    between atoms: O_7  and  C_8
REMARK    5  A    between atoms: C_12  and  O_13
REMARK    6  A    between atoms: O_13  and  C_14
REMARK    7  A    between atoms: C_14  and  C_15
REMARK    8  A    between atoms: C_20  and  S_21
REMARK                            x       y       z     vdW  Elec       q    Type
REMARK                         _______ _______ _______ _____ _____    ______ ____
ROOT
ATOM      1  C   UNL     1       2.082   6.720  19.818  0.00  0.00    +0.000 A 
ATOM      2  C   UNL     1       1.417   5.806  20.635  0.00  0.00    +0.000 A 
ATOM      3  C   UNL     1       1.430   4.446  20.332  0.00  0.00    +0.000 A 
ATOM      4  C   UNL     1       2.146   3.992  19.225  0.00  0.00    +0.000 A 
ATOM      5  C   UNL     1       2.869   4.889  18.435  0.00  0.00    +0.000 A 
ATOM      6  C   UNL     1       2.813   6.262  18.715  0.00  0.00    +0.000 A 
ENDROOT
BRANCH   1   7
ATOM      7  O   UNL     1       1.991   8.022  20.221  0.00  0.00    +0.000 OA
BRANCH   7   8
ATOM      8  C   UNL     1       0.887   8.343  21.069  0.00  0.00    +0.000 C 
BRANCH   8  12
ATOM      9  C   UNL     1      -1.339  11.095  18.534  0.00  0.00    +0.000 A 
ATOM     10  N   UNL     1      -0.850  10.008  19.056  0.00  0.00    +0.000 NA
ATOM     11  N   UNL     1      -0.073  10.437  20.083  0.00  0.00    +0.000 N 
ATOM     12  C   UNL     1       0.710   9.813  21.012  0.00  0.00    +0.000 A 
ATOM     13  N   UNL     1       1.278  10.744  21.771  0.00  0.00    +0.000 NA
ATOM     14  N   UNL     1       0.849  11.996  21.333  0.00  0.00    +0.000 NA
ATOM     15  C   UNL     1       0.047  11.761  20.335  0.00  0.00    +0.000 A 
ATOM     16  S   UNL     1      -0.883  12.661  19.222  0.00  0.00    +0.000 S 
BRANCH   9  17
ATOM     17  S   UNL     1      -2.420  11.052  17.187  0.00  0.00    +0.000 S 
ATOM     18  H   UNL     1      -3.534  10.975  17.926  0.00  0.00    +0.000 HD
ENDBRANCH   9  17
ENDBRANCH   8  12
ENDBRANCH   7   8
ENDBRANCH   1   7
BRANCH   5  19
ATOM     19  O   UNL     1       3.591   4.310  17.420  0.00  0.00    +0.000 OA
BRANCH  19  20
ATOM     20  C   UNL     1       4.932   3.958  17.756  0.00  0.00    +0.000 C 
BRANCH  20  21
ATOM     21  C   UNL     1       5.856   4.722  16.886  0.00  0.00    +0.000 A 
ATOM     22  N   UNL     1       6.694   5.684  17.265  0.00  0.00    +0.000 NA
ATOM     23  N   UNL     1       7.471   6.055  16.175  0.00  0.00    +0.000 NA
ATOM     24  C   UNL     1       7.065   5.310  15.191  0.00  0.00    +0.000 A 
ATOM     25  S   UNL     1       7.476   5.075  13.552  0.00  0.00    +0.000 S 
ATOM     26  C   UNL     1       6.217   3.831  13.550  0.00  0.00    +0.000 A 
ATOM     27  N   UNL     1       5.564   3.591  14.652  0.00  0.00    +0.000 NA
ATOM     28  N   UNL     1       6.072   4.465  15.559  0.00  0.00    +0.000 N 
BRANCH  26  29
ATOM     29  S   UNL     1       5.926   2.986  12.070  0.00  0.00    +0.000 S 
ATOM     30  H   UNL     1       6.269   3.997  11.259  0.00  0.00    +0.000 HD
ENDBRANCH  26  29
ENDBRANCH  20  21
ENDBRANCH  19  20
ENDBRANCH   5  19
TORSDOF 8
ENDMDL
MODEL 9
REMARK VINA RESULT:      -7.3      1.850      8.458
REMARK  Name = 
REMARK  8 active torsions:
REMARK  status: ('A' for Active; 'I' for Inactive)
REMARK    1  A    between atoms: S_1  and  C_2
REMARK    2  A    between atoms: C_5  and  C_6
REMARK    3  A    between atoms: C_6  and  O_7
REMARK    4  A    between atoms: O_7  and  C_8
REMARK    5  A    between atoms: C_12  and  O_13
REMARK    6  A    between atoms: O_13  and  C_14
REMARK    7  A    between atoms: C_14  and  C_15
REMARK    8  A    between atoms: C_20  and  S_21
REMARK                            x       y       z     vdW  Elec       q    Type
REMARK                         _______ _______ _______ _____ _____    ______ ____
ROOT
ATOM      1  C   UNL     1       2.489   3.917  18.230  0.00  0.00    +0.000 A 
ATOM      2  C   UNL     1       2.211   2.727  18.905  0.00  0.00    +0.000 A 
ATOM      3  C   UNL     1       1.776   2.751  20.228  0.00  0.00    +0.000 A 
ATOM      4  C   UNL     1       1.581   3.973  20.871  0.00  0.00    +0.000 A 
ATOM      5  C   UNL     1       1.794   5.171  20.186  0.00  0.00    +0.000 A 
ATOM      6  C   UNL     1       2.278   5.145  18.870  0.00  0.00    +0.000 A 
ENDROOT
BRANCH   1   7
ATOM      7  O   UNL     1       2.909   3.760  16.939  0.00  0.00    +0.000 OA
BRANCH   7   8
ATOM      8  C   UNL     1       4.277   3.384  16.764  0.00  0.00    +0.000 C 
BRANCH   8  12
ATOM      9  C   UNL     1       7.381   5.583  18.881  0.00  0.00    +0.000 A 
ATOM     10  N   UNL     1       6.500   4.681  18.557  0.00  0.00    +0.000 NA
ATOM     11  N   UNL     1       5.990   5.108  17.373  0.00  0.00    +0.000 N 
ATOM     12  C   UNL     1       5.039   4.630  16.517  0.00  0.00    +0.000 A 
ATOM     13  N   UNL     1       4.920   5.486  15.507  0.00  0.00    +0.000 NA
ATOM     14  N   UNL     1       5.814   6.535  15.707  0.00  0.00    +0.000 NA
ATOM     15  C   UNL     1       6.429   6.264  16.822  0.00  0.00    +0.000 A 
ATOM     16  S   UNL     1       7.622   6.975  17.814  0.00  0.00    +0.000 S 
BRANCH   9  17
ATOM     17  S   UNL     1       8.320   5.459  20.326  0.00  0.00    +0.000 S 
ATOM     18  H   UNL     1       7.438   4.692  20.980  0.00  0.00    +0.000 HD
ENDBRANCH   9  17
ENDBRANCH   8  12
ENDBRANCH   7   8
ENDBRANCH   1   7
BRANCH   5  19
ATOM     19  O   UNL     1       1.496   6.304  20.904  0.00  0.00    +0.000 OA
BRANCH  19  20
ATOM     20  C   UNL     1       1.834   7.533  20.262  0.00  0.00    +0.000 C 
BRANCH  20  21
ATOM     21  C   UNL     1       1.196   8.647  21.002  0.00  0.00    +0.000 A 
ATOM     22  N   UNL     1       1.387   8.968  22.278  0.00  0.00    +0.000 NA
ATOM     23  N   UNL     1       0.703  10.147  22.550  0.00  0.00    +0.000 NA
ATOM     24  C   UNL     1       0.128  10.479  21.433  0.00  0.00    +0.000 A 
ATOM     25  S   UNL     1      -0.845  11.759  20.864  0.00  0.00    +0.000 S 
ATOM     26  C   UNL     1      -0.792  10.930  19.300  0.00  0.00    +0.000 A 
ATOM     27  N   UNL     1      -0.109   9.826  19.194  0.00  0.00    +0.000 NA
ATOM     28  N   UNL     1       0.389   9.599  20.436  0.00  0.00    +0.000 N 
BRANCH  26  29
ATOM     29  S   UNL     1      -1.653  11.646  17.982  0.00  0.00    +0.000 S 
ATOM     30  H   UNL     1      -1.181  10.819  17.038  0.00  0.00    +0.000 HD
ENDBRANCH  26  29
ENDBRANCH  20  21
ENDBRANCH  19  20
ENDBRANCH   5  19
TORSDOF 8
ENDMDL
