MODEL 1
REMARK VINA RESULT:      -9.0      0.000      0.000
REMARK  Name = 
REMARK  9 active torsions:
REMARK  status: ('A' for Active; 'I' for Inactive)
REMARK    1  A    between atoms: C_1  and  C_2
REMARK    2  A    between atoms: C_2  and  C_3
REMARK    3  A    between atoms: C_8  and  C_9
REMARK    4  A    between atoms: C_9  and  C_22
REMARK    5  A    between atoms: C_10  and  C_11
REMARK    6  A    between atoms: C_11  and  C_12
REMARK    7  A    between atoms: C_12  and  N_13
REMARK    8  A    between atoms: C_17  and  C_18
REMARK    9  A    between atoms: C_18  and  O_20
REMARK                            x       y       z     vdW  Elec       q    Type
REMARK                         _______ _______ _______ _____ _____    ______ ____
ROOT
ATOM      1  C   UNL     1       3.629   5.720  18.015  0.00  0.00    +0.000 C 
ATOM      2  C   UNL     1       3.371   7.048  17.900  0.00  0.00    +0.000 C 
ENDROOT
BRANCH   1   3
ATOM      3  C   UNL     1       2.759   4.913  18.907  0.00  0.00    +0.000 A 
ATOM      4  C   UNL     1       3.103   4.739  20.258  0.00  0.00    +0.000 A 
ATOM      5  C   UNL     1       2.330   3.934  21.097  0.00  0.00    +0.000 A 
ATOM      6  C   UNL     1       1.215   3.267  20.594  0.00  0.00    +0.000 A 
ATOM      7  C   UNL     1       0.877   3.402  19.249  0.00  0.00    +0.000 A 
ATOM      8  C   UNL     1       1.643   4.221  18.418  0.00  0.00    +0.000 A 
ATOM      9  F   UNL     1       1.316   4.288  17.117  0.00  0.00    +0.000 F 
ENDBRANCH   1   3
BRANCH   1  15
ATOM     10  C   UNL     1       6.122   5.122  17.892  0.00  0.00    +0.000 A 
ATOM     11  C   UNL     1       7.185   4.580  17.143  0.00  0.00    +0.000 A 
ATOM     12  C   UNL     1       6.986   4.100  15.850  0.00  0.00    +0.000 A 
ATOM     13  C   UNL     1       5.717   4.145  15.287  0.00  0.00    +0.000 A 
ATOM     14  C   UNL     1       4.648   4.666  16.021  0.00  0.00    +0.000 A 
ATOM     15  C   UNL     1       4.827   5.158  17.329  0.00  0.00    +0.000 A 
BRANCH  10  17
ATOM     16  C   UNL     1       7.932   5.842  19.492  0.00  0.00    +0.000 C 
ATOM     17  C   UNL     1       6.443   5.633  19.276  0.00  0.00    +0.000 C 
ENDBRANCH  10  17
ENDBRANCH   1  15
BRANCH   2  18
ATOM     18  C   UNL     1       2.262   7.751  18.660  0.00  0.00    +0.000 C 
BRANCH  18  19
ATOM     19  C   UNL     1       1.732   9.068  18.058  0.00  0.00    +0.000 C 
BRANCH  19  20
ATOM     20  N   UNL     1       1.255  10.022  19.097  0.00  0.00    +0.000 NA
ATOM     21  C   UNL     1       0.106  10.816  18.628  0.00  0.00    +0.000 C 
ATOM     22  C   UNL     1      -0.365  11.805  19.690  0.00  0.00    +0.000 C 
ATOM     23  C   UNL     1      -0.720  11.101  20.988  0.00  0.00    +0.000 C 
ATOM     24  C   UNL     1       0.446  10.232  21.463  0.00  0.00    +0.000 C 
ATOM     25  C   UNL     1       0.908   9.288  20.334  0.00  0.00    +0.000 C 
BRANCH  24  26
ATOM     26  C   UNL     1       0.037   9.421  22.680  0.00  0.00    +0.000 C 
ATOM     27  O   UNL     1       0.366   9.668  23.831  0.00  0.00    +0.000 OA
BRANCH  26  28
ATOM     28  O   UNL     1      -0.763   8.370  22.381  0.00  0.00    +0.000 OA
ATOM     29  H   UNL     1      -1.701   8.498  22.617  0.00  0.00    +0.000 HD
ENDBRANCH  26  28
ENDBRANCH  24  26
ENDBRANCH  19  20
ENDBRANCH  18  19
ENDBRANCH   2  18
TORSDOF 8
ENDMDL
MODEL 2
REMARK VINA RESULT:      -8.8      2.034      2.484
REMARK  Name = 
REMARK  9 active torsions:
REMARK  status: ('A' for Active; 'I' for Inactive)
REMARK    1  A    between atoms: C_1  and  C_2
REMARK    2  A    between atoms: C_2  and  C_3
REMARK    3  A    between atoms: C_8  and  C_9
REMARK    4  A    between atoms: C_9  and  C_22
REMARK    5  A    between atoms: C_10  and  C_11
REMARK    6  A    between atoms: C_11  and  C_12
REMARK    7  A    between atoms: C_12  and  N_13
REMARK    8  A    between atoms: C_17  and  C_18
REMARK    9  A    between atoms: C_18  and  O_20
REMARK                            x       y       z     vdW  Elec       q    Type
REMARK                         _______ _______ _______ _____ _____    ______ ____
ROOT
ATOM      1  C   UNL     1       3.611   5.817  17.955  0.00  0.00    +0.000 C 
ATOM      2  C   UNL     1       3.370   7.148  17.849  0.00  0.00    +0.000 C 
ENDROOT
BRANCH   1   3
ATOM      3  C   UNL     1       2.753   5.021  18.869  0.00  0.00    +0.000 A 
ATOM      4  C   UNL     1       3.004   5.025  20.252  0.00  0.00    +0.000 A 
ATOM      5  C   UNL     1       2.245   4.237  21.120  0.00  0.00    +0.000 A 
ATOM      6  C   UNL     1       1.243   3.411  20.619  0.00  0.00    +0.000 A 
ATOM      7  C   UNL     1       1.001   3.369  19.247  0.00  0.00    +0.000 A 
ATOM      8  C   UNL     1       1.750   4.171  18.384  0.00  0.00    +0.000 A 
ATOM      9  F   UNL     1       1.523   4.069  17.065  0.00  0.00    +0.000 F 
ENDBRANCH   1   3
BRANCH   1  15
ATOM     10  C   UNL     1       6.062   5.071  17.809  0.00  0.00    +0.000 A 
ATOM     11  C   UNL     1       7.102   4.526  17.028  0.00  0.00    +0.000 A 
ATOM     12  C   UNL     1       6.893   4.170  15.698  0.00  0.00    +0.000 A 
ATOM     13  C   UNL     1       5.639   4.343  15.127  0.00  0.00    +0.000 A 
ATOM     14  C   UNL     1       4.593   4.869  15.891  0.00  0.00    +0.000 A 
ATOM     15  C   UNL     1       4.782   5.238  17.237  0.00  0.00    +0.000 A 
BRANCH  10  17
ATOM     16  C   UNL     1       7.852   5.830  19.416  0.00  0.00    +0.000 C 
ATOM     17  C   UNL     1       6.394   5.444  19.234  0.00  0.00    +0.000 C 
ENDBRANCH  10  17
ENDBRANCH   1  15
BRANCH   2  18
ATOM     18  C   UNL     1       2.292   7.866  18.638  0.00  0.00    +0.000 C 
BRANCH  18  19
ATOM     19  C   UNL     1       1.715   9.154  18.016  0.00  0.00    +0.000 C 
BRANCH  19  20
ATOM     20  N   UNL     1       0.557   9.692  18.782  0.00  0.00    +0.000 NA
ATOM     21  C   UNL     1       0.962  10.760  19.712  0.00  0.00    +0.000 C 
ATOM     22  C   UNL     1      -0.226  11.293  20.508  0.00  0.00    +0.000 C 
ATOM     23  C   UNL     1      -1.328  11.798  19.593  0.00  0.00    +0.000 C 
ATOM     24  C   UNL     1      -1.725  10.716  18.586  0.00  0.00    +0.000 C 
ATOM     25  C   UNL     1      -0.481  10.183  17.848  0.00  0.00    +0.000 C 
BRANCH  24  26
ATOM     26  C   UNL     1      -2.723  11.270  17.584  0.00  0.00    +0.000 C 
ATOM     27  O   UNL     1      -3.935  11.294  17.741  0.00  0.00    +0.000 OA
BRANCH  26  28
ATOM     28  O   UNL     1      -2.142  11.767  16.468  0.00  0.00    +0.000 OA
ATOM     29  H   UNL     1      -2.607  12.531  16.077  0.00  0.00    +0.000 HD
ENDBRANCH  26  28
ENDBRANCH  24  26
ENDBRANCH  19  20
ENDBRANCH  18  19
ENDBRANCH   2  18
TORSDOF 8
ENDMDL
MODEL 3
REMARK VINA RESULT:      -8.6      0.656      1.836
REMARK  Name = 
REMARK  9 active torsions:
REMARK  status: ('A' for Active; 'I' for Inactive)
REMARK    1  A    between atoms: C_1  and  C_2
REMARK    2  A    between atoms: C_2  and  C_3
REMARK    3  A    between atoms: C_8  and  C_9
REMARK    4  A    between atoms: C_9  and  C_22
REMARK    5  A    between atoms: C_10  and  C_11
REMARK    6  A    between atoms: C_11  and  C_12
REMARK    7  A    between atoms: C_12  and  N_13
REMARK    8  A    between atoms: C_17  and  C_18
REMARK    9  A    between atoms: C_18  and  O_20
REMARK                            x       y       z     vdW  Elec       q    Type
REMARK                         _______ _______ _______ _____ _____    ______ ____
ROOT
ATOM      1  C   UNL     1       3.690   5.985  18.293  0.00  0.00    +0.000 C 
ATOM      2  C   UNL     1       3.316   7.258  18.008  0.00  0.00    +0.000 C 
ENDROOT
BRANCH   1   3
ATOM      3  C   UNL     1       2.671   5.065  18.857  0.00  0.00    +0.000 A 
ATOM      4  C   UNL     1       2.348   5.125  20.223  0.00  0.00    +0.000 A 
ATOM      5  C   UNL     1       1.435   4.228  20.784  0.00  0.00    +0.000 A 
ATOM      6  C   UNL     1       0.852   3.240  19.996  0.00  0.00    +0.000 A 
ATOM      7  C   UNL     1       1.185   3.145  18.646  0.00  0.00    +0.000 A 
ATOM      8  C   UNL     1       2.084   4.053  18.085  0.00  0.00    +0.000 A 
ATOM      9  F   UNL     1       2.419   3.901  16.794  0.00  0.00    +0.000 F 
ENDBRANCH   1   3
BRANCH   1  15
ATOM     10  C   UNL     1       5.711   5.244  16.894  0.00  0.00    +0.000 A 
ATOM     11  C   UNL     1       7.073   4.883  16.859  0.00  0.00    +0.000 A 
ATOM     12  C   UNL     1       7.841   4.851  18.021  0.00  0.00    +0.000 A 
ATOM     13  C   UNL     1       7.262   5.189  19.238  0.00  0.00    +0.000 A 
ATOM     14  C   UNL     1       5.917   5.564  19.289  0.00  0.00    +0.000 A 
ATOM     15  C   UNL     1       5.122   5.601  18.126  0.00  0.00    +0.000 A 
BRANCH  10  17
ATOM     16  C   UNL     1       5.600   4.317  14.551  0.00  0.00    +0.000 C 
ATOM     17  C   UNL     1       4.960   5.229  15.584  0.00  0.00    +0.000 C 
ENDBRANCH  10  17
ENDBRANCH   1  15
BRANCH   2  18
ATOM     18  C   UNL     1       1.921   7.794  18.266  0.00  0.00    +0.000 C 
BRANCH  18  19
ATOM     19  C   UNL     1       1.630   9.234  17.797  0.00  0.00    +0.000 C 
BRANCH  19  20
ATOM     20  N   UNL     1       1.282  10.145  18.922  0.00  0.00    +0.000 NA
ATOM     21  C   UNL     1       0.212  11.089  18.554  0.00  0.00    +0.000 C 
ATOM     22  C   UNL     1      -0.126  12.032  19.705  0.00  0.00    +0.000 C 
ATOM     23  C   UNL     1      -0.522  11.266  20.955  0.00  0.00    +0.000 C 
ATOM     24  C   UNL     1       0.557  10.245  21.322  0.00  0.00    +0.000 C 
ATOM     25  C   UNL     1       0.890   9.353  20.109  0.00  0.00    +0.000 C 
BRANCH  24  26
ATOM     26  C   UNL     1       0.095   9.385  22.485  0.00  0.00    +0.000 C 
ATOM     27  O   UNL     1       0.356   9.595  23.660  0.00  0.00    +0.000 OA
BRANCH  26  28
ATOM     28  O   UNL     1      -0.672   8.336  22.105  0.00  0.00    +0.000 OA
ATOM     29  H   UNL     1      -1.582   8.354  22.454  0.00  0.00    +0.000 HD
ENDBRANCH  26  28
ENDBRANCH  24  26
ENDBRANCH  19  20
ENDBRANCH  18  19
ENDBRANCH   2  18
TORSDOF 8
ENDMDL
MODEL 4
REMARK VINA RESULT:      -8.6      2.083      3.017
REMARK  Name = 
REMARK  9 active torsions:
REMARK  status: ('A' for Active; 'I' for Inactive)
REMARK    1  A    between atoms: C_1  and  C_2
REMARK    2  A    between atoms: C_2  and  C_3
REMARK    3  A    between atoms: C_8  and  C_9
REMARK    4  A    between atoms: C_9  and  C_22
REMARK    5  A    between atoms: C_10  and  C_11
REMARK    6  A    between atoms: C_11  and  C_12
REMARK    7  A    between atoms: C_12  and  N_13
REMARK    8  A    between atoms: C_17  and  C_18
REMARK    9  A    between atoms: C_18  and  O_20
REMARK                            x       y       z     vdW  Elec       q    Type
REMARK                         _______ _______ _______ _____ _____    ______ ____
ROOT
ATOM      1  C   UNL     1       3.768   5.945  18.122  0.00  0.00    +0.000 C 
ATOM      2  C   UNL     1       3.417   7.189  17.708  0.00  0.00    +0.000 C 
ENDROOT
BRANCH   1   3
ATOM      3  C   UNL     1       2.726   5.098  18.757  0.00  0.00    +0.000 A 
ATOM      4  C   UNL     1       2.404   5.277  20.112  0.00  0.00    +0.000 A 
ATOM      5  C   UNL     1       1.469   4.451  20.742  0.00  0.00    +0.000 A 
ATOM      6  C   UNL     1       0.863   3.416  20.035  0.00  0.00    +0.000 A 
ATOM      7  C   UNL     1       1.195   3.204  18.697  0.00  0.00    +0.000 A 
ATOM      8  C   UNL     1       2.116   4.041  18.068  0.00  0.00    +0.000 A 
ATOM      9  F   UNL     1       2.448   3.777  16.794  0.00  0.00    +0.000 F 
ENDBRANCH   1   3
BRANCH   1  15
ATOM     10  C   UNL     1       5.793   5.025  16.841  0.00  0.00    +0.000 A 
ATOM     11  C   UNL     1       7.151   4.645  16.865  0.00  0.00    +0.000 A 
ATOM     12  C   UNL     1       7.906   4.737  18.032  0.00  0.00    +0.000 A 
ATOM     13  C   UNL     1       7.319   5.219  19.195  0.00  0.00    +0.000 A 
ATOM     14  C   UNL     1       5.978   5.614  19.187  0.00  0.00    +0.000 A 
ATOM     15  C   UNL     1       5.196   5.527  18.018  0.00  0.00    +0.000 A 
BRANCH  10  17
ATOM     16  C   UNL     1       5.863   4.113  14.492  0.00  0.00    +0.000 C 
ATOM     17  C   UNL     1       5.056   4.869  15.533  0.00  0.00    +0.000 C 
ENDBRANCH  10  17
ENDBRANCH   1  15
BRANCH   2  18
ATOM     18  C   UNL     1       2.027   7.767  17.889  0.00  0.00    +0.000 C 
BRANCH  18  19
ATOM     19  C   UNL     1       1.908   9.304  17.903  0.00  0.00    +0.000 C 
BRANCH  19  20
ATOM     20  N   UNL     1       0.771   9.784  18.736  0.00  0.00    +0.000 NA
ATOM     21  C   UNL     1       1.119  10.998  19.494  0.00  0.00    +0.000 C 
ATOM     22  C   UNL     1      -0.044  11.473  20.360  0.00  0.00    +0.000 C 
ATOM     23  C   UNL     1      -1.291  11.724  19.530  0.00  0.00    +0.000 C 
ATOM     24  C   UNL     1      -1.637  10.488  18.697  0.00  0.00    +0.000 C 
ATOM     25  C   UNL     1      -0.412  10.027  17.881  0.00  0.00    +0.000 C 
BRANCH  24  26
ATOM     26  C   UNL     1      -2.796  10.790  17.763  0.00  0.00    +0.000 C 
ATOM     27  O   UNL     1      -3.798  10.100  17.644  0.00  0.00    +0.000 OA
BRANCH  26  28
ATOM     28  O   UNL     1      -2.634  11.934  17.058  0.00  0.00    +0.000 OA
ATOM     29  H   UNL     1      -1.704  12.178  16.895  0.00  0.00    +0.000 HD
ENDBRANCH  26  28
ENDBRANCH  24  26
ENDBRANCH  19  20
ENDBRANCH  18  19
ENDBRANCH   2  18
TORSDOF 8
ENDMDL
MODEL 5
REMARK VINA RESULT:      -8.5      1.195      1.510
REMARK  Name = 
REMARK  9 active torsions:
REMARK  status: ('A' for Active; 'I' for Inactive)
REMARK    1  A    between atoms: C_1  and  C_2
REMARK    2  A    between atoms: C_2  and  C_3
REMARK    3  A    between atoms: C_8  and  C_9
REMARK    4  A    between atoms: C_9  and  C_22
REMARK    5  A    between atoms: C_10  and  C_11
REMARK    6  A    between atoms: C_11  and  C_12
REMARK    7  A    between atoms: C_12  and  N_13
REMARK    8  A    between atoms: C_17  and  C_18
REMARK    9  A    between atoms: C_18  and  O_20
REMARK                            x       y       z     vdW  Elec       q    Type
REMARK                         _______ _______ _______ _____ _____    ______ ____
ROOT
ATOM      1  C   UNL     1       3.908   5.932  17.364  0.00  0.00    +0.000 C 
ATOM      2  C   UNL     1       3.633   7.260  17.410  0.00  0.00    +0.000 C 
ENDROOT
BRANCH   1   3
ATOM      3  C   UNL     1       3.126   5.024  18.240  0.00  0.00    +0.000 A 
ATOM      4  C   UNL     1       1.929   4.455  17.773  0.00  0.00    +0.000 A 
ATOM      5  C   UNL     1       1.149   3.646  18.603  0.00  0.00    +0.000 A 
ATOM      6  C   UNL     1       1.537   3.415  19.920  0.00  0.00    +0.000 A 
ATOM      7  C   UNL     1       2.705   3.998  20.410  0.00  0.00    +0.000 A 
ATOM      8  C   UNL     1       3.490   4.792  19.573  0.00  0.00    +0.000 A 
ATOM      9  F   UNL     1       4.581   5.376  20.092  0.00  0.00    +0.000 F 
ENDBRANCH   1   3
BRANCH   1  15
ATOM     10  C   UNL     1       6.400   5.769  16.770  0.00  0.00    +0.000 A 
ATOM     11  C   UNL     1       7.391   5.281  15.894  0.00  0.00    +0.000 A 
ATOM     12  C   UNL     1       7.055   4.520  14.777  0.00  0.00    +0.000 A 
ATOM     13  C   UNL     1       5.722   4.226  14.520  0.00  0.00    +0.000 A 
ATOM     14  C   UNL     1       4.727   4.689  15.386  0.00  0.00    +0.000 A 
ATOM     15  C   UNL     1       5.045   5.461  16.521  0.00  0.00    +0.000 A 
BRANCH  10  17
ATOM     16  C   UNL     1       7.737   5.818  18.908  0.00  0.00    +0.000 C 
ATOM     17  C   UNL     1       6.864   6.601  17.942  0.00  0.00    +0.000 C 
ENDBRANCH  10  17
ENDBRANCH   1  15
BRANCH   2  18
ATOM     18  C   UNL     1       2.591   7.864  18.332  0.00  0.00    +0.000 C 
BRANCH  18  19
ATOM     19  C   UNL     1       1.595   8.858  17.701  0.00  0.00    +0.000 C 
BRANCH  19  20
ATOM     20  N   UNL     1       1.053   9.831  18.688  0.00  0.00    +0.000 NA
ATOM     21  C   UNL     1      -0.311  10.266  18.339  0.00  0.00    +0.000 C 
ATOM     22  C   UNL     1      -0.853  11.278  19.344  0.00  0.00    +0.000 C 
ATOM     23  C   UNL     1      -0.836  10.724  20.757  0.00  0.00    +0.000 C 
ATOM     24  C   UNL     1       0.563  10.220  21.118  0.00  0.00    +0.000 C 
ATOM     25  C   UNL     1       1.076   9.240  20.045  0.00  0.00    +0.000 C 
BRANCH  24  26
ATOM     26  C   UNL     1       0.544   9.538  22.475  0.00  0.00    +0.000 C 
ATOM     27  O   UNL     1       1.524   9.350  23.180  0.00  0.00    +0.000 OA
BRANCH  26  28
ATOM     28  O   UNL     1      -0.694   9.152  22.864  0.00  0.00    +0.000 OA
ATOM     29  H   UNL     1      -1.311   9.888  23.035  0.00  0.00    +0.000 HD
ENDBRANCH  26  28
ENDBRANCH  24  26
ENDBRANCH  19  20
ENDBRANCH  18  19
ENDBRANCH   2  18
TORSDOF 8
ENDMDL
MODEL 6
REMARK VINA RESULT:      -8.5      1.126      2.274
REMARK  Name = 
REMARK  9 active torsions:
REMARK  status: ('A' for Active; 'I' for Inactive)
REMARK    1  A    between atoms: C_1  and  C_2
REMARK    2  A    between atoms: C_2  and  C_3
REMARK    3  A    between atoms: C_8  and  C_9
REMARK    4  A    between atoms: C_9  and  C_22
REMARK    5  A    between atoms: C_10  and  C_11
REMARK    6  A    between atoms: C_11  and  C_12
REMARK    7  A    between atoms: C_12  and  N_13
REMARK    8  A    between atoms: C_17  and  C_18
REMARK    9  A    between atoms: C_18  and  O_20
REMARK                            x       y       z     vdW  Elec       q    Type
REMARK                         _______ _______ _______ _____ _____    ______ ____
ROOT
ATOM      1  C   UNL     1       3.737   5.800  18.234  0.00  0.00    +0.000 C 
ATOM      2  C   UNL     1       3.347   7.071  17.966  0.00  0.00    +0.000 C 
ENDROOT
BRANCH   1   3
ATOM      3  C   UNL     1       2.720   4.850  18.751  0.00  0.00    +0.000 A 
ATOM      4  C   UNL     1       2.096   3.943  17.878  0.00  0.00    +0.000 A 
ATOM      5  C   UNL     1       1.094   3.083  18.334  0.00  0.00    +0.000 A 
ATOM      6  C   UNL     1       0.681   3.133  19.663  0.00  0.00    +0.000 A 
ATOM      7  C   UNL     1       1.267   4.049  20.536  0.00  0.00    +0.000 A 
ATOM      8  C   UNL     1       2.278   4.895  20.080  0.00  0.00    +0.000 A 
ATOM      9  F   UNL     1       2.785   5.797  20.936  0.00  0.00    +0.000 F 
ENDBRANCH   1   3
BRANCH   1  15
ATOM     10  C   UNL     1       5.767   4.939  16.919  0.00  0.00    +0.000 A 
ATOM     11  C   UNL     1       7.141   4.623  16.912  0.00  0.00    +0.000 A 
ATOM     12  C   UNL     1       7.922   4.780  18.054  0.00  0.00    +0.000 A 
ATOM     13  C   UNL     1       7.347   5.266  19.221  0.00  0.00    +0.000 A 
ATOM     14  C   UNL     1       5.989   5.598  19.242  0.00  0.00    +0.000 A 
ATOM     15  C   UNL     1       5.180   5.445  18.099  0.00  0.00    +0.000 A 
BRANCH  10  17
ATOM     16  C   UNL     1       5.855   4.091  14.546  0.00  0.00    +0.000 C 
ATOM     17  C   UNL     1       5.001   4.715  15.636  0.00  0.00    +0.000 C 
ENDBRANCH  10  17
ENDBRANCH   1  15
BRANCH   2  18
ATOM     18  C   UNL     1       1.936   7.577  18.196  0.00  0.00    +0.000 C 
BRANCH  18  19
ATOM     19  C   UNL     1       1.591   8.964  17.619  0.00  0.00    +0.000 C 
BRANCH  19  20
ATOM     20  N   UNL     1       1.064   9.900  18.651  0.00  0.00    +0.000 NA
ATOM     21  C   UNL     1      -0.331  10.290  18.378  0.00  0.00    +0.000 C 
ATOM     22  C   UNL     1      -0.858  11.264  19.428  0.00  0.00    +0.000 C 
ATOM     23  C   UNL     1      -0.748  10.686  20.828  0.00  0.00    +0.000 C 
ATOM     24  C   UNL     1       0.685  10.230  21.109  0.00  0.00    +0.000 C 
ATOM     25  C   UNL     1       1.178   9.287  19.992  0.00  0.00    +0.000 C 
BRANCH  24  26
ATOM     26  C   UNL     1       0.760   9.524  22.452  0.00  0.00    +0.000 C 
ATOM     27  O   UNL     1      -0.204   9.210  23.133  0.00  0.00    +0.000 OA
BRANCH  26  28
ATOM     28  O   UNL     1       2.026   9.247  22.843  0.00  0.00    +0.000 OA
ATOM     29  H   UNL     1       2.639  10.004  22.792  0.00  0.00    +0.000 HD
ENDBRANCH  26  28
ENDBRANCH  24  26
ENDBRANCH  19  20
ENDBRANCH  18  19
ENDBRANCH   2  18
TORSDOF 8
ENDMDL
MODEL 7
REMARK VINA RESULT:      -8.4      1.753      2.194
REMARK  Name = 
REMARK  9 active torsions:
REMARK  status: ('A' for Active; 'I' for Inactive)
REMARK    1  A    between atoms: C_1  and  C_2
REMARK    2  A    between atoms: C_2  and  C_3
REMARK    3  A    between atoms: C_8  and  C_9
REMARK    4  A    between atoms: C_9  and  C_22
REMARK    5  A    between atoms: C_10  and  C_11
REMARK    6  A    between atoms: C_11  and  C_12
REMARK    7  A    between atoms: C_12  and  N_13
REMARK    8  A    between atoms: C_17  and  C_18
REMARK    9  A    between atoms: C_18  and  O_20
REMARK                            x       y       z     vdW  Elec       q    Type
REMARK                         _______ _______ _______ _____ _____    ______ ____
ROOT
ATOM      1  C   UNL     1       3.600   5.703  18.028  0.00  0.00    +0.000 C 
ATOM      2  C   UNL     1       3.339   7.031  17.943  0.00  0.00    +0.000 C 
ENDROOT
BRANCH   1   3
ATOM      3  C   UNL     1       2.751   4.877  18.923  0.00  0.00    +0.000 A 
ATOM      4  C   UNL     1       3.038   4.805  20.296  0.00  0.00    +0.000 A 
ATOM      5  C   UNL     1       2.287   3.987  21.144  0.00  0.00    +0.000 A 
ATOM      6  C   UNL     1       1.254   3.208  20.629  0.00  0.00    +0.000 A 
ATOM      7  C   UNL     1       0.975   3.243  19.264  0.00  0.00    +0.000 A 
ATOM      8  C   UNL     1       1.717   4.073  18.423  0.00  0.00    +0.000 A 
ATOM      9  F   UNL     1       1.453   4.044  17.107  0.00  0.00    +0.000 F 
ENDBRANCH   1   3
BRANCH   1  15
ATOM     10  C   UNL     1       6.073   5.035  17.869  0.00  0.00    +0.000 A 
ATOM     11  C   UNL     1       7.124   4.516  17.085  0.00  0.00    +0.000 A 
ATOM     12  C   UNL     1       6.917   4.141  15.760  0.00  0.00    +0.000 A 
ATOM     13  C   UNL     1       5.654   4.269  15.197  0.00  0.00    +0.000 A 
ATOM     14  C   UNL     1       4.597   4.767  15.964  0.00  0.00    +0.000 A 
ATOM     15  C   UNL     1       4.784   5.154  17.306  0.00  0.00    +0.000 A 
BRANCH  10  17
ATOM     16  C   UNL     1       7.860   5.824  19.464  0.00  0.00    +0.000 C 
ATOM     17  C   UNL     1       6.403   5.431  19.289  0.00  0.00    +0.000 C 
ENDBRANCH  10  17
ENDBRANCH   1  15
BRANCH   2  18
ATOM     18  C   UNL     1       2.245   7.718  18.739  0.00  0.00    +0.000 C 
BRANCH  18  19
ATOM     19  C   UNL     1       1.773   9.095  18.229  0.00  0.00    +0.000 C 
BRANCH  19  20
ATOM     20  N   UNL     1       0.653   9.652  19.036  0.00  0.00    +0.000 NA
ATOM     21  C   UNL     1       0.871   9.465  20.481  0.00  0.00    +0.000 C 
ATOM     22  C   UNL     1      -0.289  10.021  21.302  0.00  0.00    +0.000 C 
ATOM     23  C   UNL     1      -0.529  11.491  21.003  0.00  0.00    +0.000 C 
ATOM     24  C   UNL     1      -0.707  11.710  19.499  0.00  0.00    +0.000 C 
ATOM     25  C   UNL     1       0.470  11.086  18.721  0.00  0.00    +0.000 C 
BRANCH  24  26
ATOM     26  C   UNL     1      -0.803  13.194  19.190  0.00  0.00    +0.000 C 
ATOM     27  O   UNL     1      -0.755  14.087  20.022  0.00  0.00    +0.000 OA
BRANCH  26  28
ATOM     28  O   UNL     1      -0.935  13.460  17.870  0.00  0.00    +0.000 OA
ATOM     29  H   UNL     1      -0.584  12.766  17.281  0.00  0.00    +0.000 HD
ENDBRANCH  26  28
ENDBRANCH  24  26
ENDBRANCH  19  20
ENDBRANCH  18  19
ENDBRANCH   2  18
TORSDOF 8
ENDMDL
MODEL 8
REMARK VINA RESULT:      -8.4      2.294      3.323
REMARK  Name = 
REMARK  9 active torsions:
REMARK  status: ('A' for Active; 'I' for Inactive)
REMARK    1  A    between atoms: C_1  and  C_2
REMARK    2  A    between atoms: C_2  and  C_3
REMARK    3  A    between atoms: C_8  and  C_9
REMARK    4  A    between atoms: C_9  and  C_22
REMARK    5  A    between atoms: C_10  and  C_11
REMARK    6  A    between atoms: C_11  and  C_12
REMARK    7  A    between atoms: C_12  and  N_13
REMARK    8  A    between atoms: C_17  and  C_18
REMARK    9  A    between atoms: C_18  and  O_20
REMARK                            x       y       z     vdW  Elec       q    Type
REMARK                         _______ _______ _______ _____ _____    ______ ____
ROOT
ATOM      1  C   UNL     1       3.800   5.877  18.071  0.00  0.00    +0.000 C 
ATOM      2  C   UNL     1       3.447   7.141  17.726  0.00  0.00    +0.000 C 
ENDROOT
BRANCH   1   3
ATOM      3  C   UNL     1       2.755   4.990  18.643  0.00  0.00    +0.000 A 
ATOM      4  C   UNL     1       2.133   4.023  17.836  0.00  0.00    +0.000 A 
ATOM      5  C   UNL     1       1.107   3.221  18.341  0.00  0.00    +0.000 A 
ATOM      6  C   UNL     1       0.667   3.390  19.652  0.00  0.00    +0.000 A 
ATOM      7  C   UNL     1       1.252   4.366  20.457  0.00  0.00    +0.000 A 
ATOM      8  C   UNL     1       2.287   5.155  19.954  0.00  0.00    +0.000 A 
ATOM      9  F   UNL     1       2.793   6.117  20.741  0.00  0.00    +0.000 F 
ENDBRANCH   1   3
BRANCH   1  15
ATOM     10  C   UNL     1       5.782   4.803  16.842  0.00  0.00    +0.000 A 
ATOM     11  C   UNL     1       7.147   4.454  16.852  0.00  0.00    +0.000 A 
ATOM     12  C   UNL     1       7.956   4.737  17.951  0.00  0.00    +0.000 A 
ATOM     13  C   UNL     1       7.415   5.383  19.055  0.00  0.00    +0.000 A 
ATOM     14  C   UNL     1       6.066   5.750  19.057  0.00  0.00    +0.000 A 
ATOM     15  C   UNL     1       5.230   5.472  17.957  0.00  0.00    +0.000 A 
BRANCH  10  17
ATOM     16  C   UNL     1       5.851   4.300  14.372  0.00  0.00    +0.000 C 
ATOM     17  C   UNL     1       4.985   4.436  15.613  0.00  0.00    +0.000 C 
ENDBRANCH  10  17
ENDBRANCH   1  15
BRANCH   2  18
ATOM     18  C   UNL     1       2.053   7.702  17.926  0.00  0.00    +0.000 C 
BRANCH  18  19
ATOM     19  C   UNL     1       1.938   9.224  18.142  0.00  0.00    +0.000 C 
BRANCH  19  20
ATOM     20  N   UNL     1       0.665   9.616  18.807  0.00  0.00    +0.000 NA
ATOM     21  C   UNL     1       0.864  10.708  19.775  0.00  0.00    +0.000 C 
ATOM     22  C   UNL     1      -0.441  11.091  20.467  0.00  0.00    +0.000 C 
ATOM     23  C   UNL     1      -1.511  11.481  19.462  0.00  0.00    +0.000 C 
ATOM     24  C   UNL     1      -1.694  10.377  18.418  0.00  0.00    +0.000 C 
ATOM     25  C   UNL     1      -0.338  10.001  17.789  0.00  0.00    +0.000 C 
BRANCH  24  26
ATOM     26  C   UNL     1      -2.658  10.830  17.336  0.00  0.00    +0.000 C 
ATOM     27  O   UNL     1      -3.821  10.466  17.235  0.00  0.00    +0.000 OA
BRANCH  26  28
ATOM     28  O   UNL     1      -2.114  11.714  16.467  0.00  0.00    +0.000 OA
ATOM     29  H   UNL     1      -2.573  12.574  16.425  0.00  0.00    +0.000 HD
ENDBRANCH  26  28
ENDBRANCH  24  26
ENDBRANCH  19  20
ENDBRANCH  18  19
ENDBRANCH   2  18
TORSDOF 8
ENDMDL
MODEL 9
REMARK VINA RESULT:      -8.4      1.494      2.609
REMARK  Name = 
REMARK  9 active torsions:
REMARK  status: ('A' for Active; 'I' for Inactive)
REMARK    1  A    between atoms: C_1  and  C_2
REMARK    2  A    between atoms: C_2  and  C_3
REMARK    3  A    between atoms: C_8  and  C_9
REMARK    4  A    between atoms: C_9  and  C_22
REMARK    5  A    between atoms: C_10  and  C_11
REMARK    6  A    between atoms: C_11  and  C_12
REMARK    7  A    between atoms: C_12  and  N_13
REMARK    8  A    between atoms: C_17  and  C_18
REMARK    9  A    between atoms: C_18  and  O_20
REMARK                            x       y       z     vdW  Elec       q    Type
REMARK                         _______ _______ _______ _____ _____    ______ ____
ROOT
ATOM      1  C   UNL     1       3.776   5.915  18.110  0.00  0.00    +0.000 C 
ATOM      2  C   UNL     1       3.416   7.150  17.678  0.00  0.00    +0.000 C 
ENDROOT
BRANCH   1   3
ATOM      3  C   UNL     1       2.737   5.067  18.747  0.00  0.00    +0.000 A 
ATOM      4  C   UNL     1       2.423   5.239  20.105  0.00  0.00    +0.000 A 
ATOM      5  C   UNL     1       1.492   4.411  20.737  0.00  0.00    +0.000 A 
ATOM      6  C   UNL     1       0.880   3.380  20.029  0.00  0.00    +0.000 A 
ATOM      7  C   UNL     1       1.204   3.174  18.689  0.00  0.00    +0.000 A 
ATOM      8  C   UNL     1       2.122   4.013  18.057  0.00  0.00    +0.000 A 
ATOM      9  F   UNL     1       2.445   3.755  16.780  0.00  0.00    +0.000 F 
ENDBRANCH   1   3
BRANCH   1  15
ATOM     10  C   UNL     1       5.813   4.975  16.862  0.00  0.00    +0.000 A 
ATOM     11  C   UNL     1       7.174   4.611  16.900  0.00  0.00    +0.000 A 
ATOM     12  C   UNL     1       7.926   4.749  18.064  0.00  0.00    +0.000 A 
ATOM     13  C   UNL     1       7.333   5.263  19.210  0.00  0.00    +0.000 A 
ATOM     14  C   UNL     1       5.987   5.643  19.187  0.00  0.00    +0.000 A 
ATOM     15  C   UNL     1       5.208   5.510  18.021  0.00  0.00    +0.000 A 
BRANCH  10  17
ATOM     16  C   UNL     1       5.941   4.104  14.500  0.00  0.00    +0.000 C 
ATOM     17  C   UNL     1       5.079   4.769  15.559  0.00  0.00    +0.000 C 
ENDBRANCH  10  17
ENDBRANCH   1  15
BRANCH   2  18
ATOM     18  C   UNL     1       2.020   7.718  17.842  0.00  0.00    +0.000 C 
BRANCH  18  19
ATOM     19  C   UNL     1       1.913   9.205  18.233  0.00  0.00    +0.000 C 
BRANCH  19  20
ATOM     20  N   UNL     1       0.893   9.450  19.289  0.00  0.00    +0.000 NA
ATOM     21  C   UNL     1       1.200   8.717  20.530  0.00  0.00    +0.000 C 
ATOM     22  C   UNL     1       0.140   8.957  21.601  0.00  0.00    +0.000 C 
ATOM     23  C   UNL     1      -0.023  10.436  21.903  0.00  0.00    +0.000 C 
ATOM     24  C   UNL     1      -0.293  11.219  20.616  0.00  0.00    +0.000 C 
ATOM     25  C   UNL     1       0.782  10.901  19.557  0.00  0.00    +0.000 C 
BRANCH  24  26
ATOM     26  C   UNL     1      -0.313  12.710  20.901  0.00  0.00    +0.000 C 
ATOM     27  O   UNL     1      -1.009  13.527  20.316  0.00  0.00    +0.000 OA
BRANCH  26  28
ATOM     28  O   UNL     1       0.522  13.077  21.902  0.00  0.00    +0.000 OA
ATOM     29  H   UNL     1       0.953  13.942  21.772  0.00  0.00    +0.000 HD
ENDBRANCH  26  28
ENDBRANCH  24  26
ENDBRANCH  19  20
ENDBRANCH  18  19
ENDBRANCH   2  18
TORSDOF 8
ENDMDL
