MODEL 1
REMARK VINA RESULT:      -6.3      0.000      0.000
REMARK  Name = 
REMARK  7 active torsions:
REMARK  status: ('A' for Active; 'I' for Inactive)
REMARK    1  A    between atoms: C_2  and  O_3
REMARK    2  A    between atoms: C_2  and  C_4
REMARK    3  A    between atoms: C_4  and  C_5
REMARK    4  A    between atoms: C_5  and  C_6
REMARK    5  A    between atoms: C_5  and  N_9
REMARK    6  A    between atoms: C_6  and  O_8
REMARK    7  A    between atoms: P_11  and  O_13
REMARK                            x       y       z     vdW  Elec       q    Type
REMARK                         _______ _______ _______ _____ _____    ______ ____
ROOT
ATOM      1  C   UNL     1       5.523   4.805  16.679  0.00  0.00    +0.000 C 
ENDROOT
BRANCH   1   2
ATOM      2  N   UNL     1       4.748   4.002  17.652  0.00  0.00    +0.000 N 
ATOM      3  C   UNL     1       3.469   3.389  17.320  0.00  0.00    +0.000 C 
ATOM      4  P   UNL     1       3.255   2.178  18.625  0.00  0.00    +0.000 P 
ATOM      5  O   UNL     1       1.836   1.867  18.968  0.00  0.00    +0.000 OA
ATOM      6  C   UNL     1       4.281   2.998  19.814  0.00  0.00    +0.000 C 
ATOM      7  C   UNL     1       5.148   3.910  18.981  0.00  0.00    +0.000 C 
ATOM      8  O   UNL     1       6.076   4.577  19.426  0.00  0.00    +0.000 OA
BRANCH   4   9
ATOM      9  O   UNL     1       4.159   0.919  18.177  0.00  0.00    +0.000 OA
ATOM     10  H   UNL     1       4.464   0.873  17.244  0.00  0.00    +0.000 HD
ENDBRANCH   4   9
ENDBRANCH   1   2
BRANCH   1  11
ATOM     11  C   UNL     1       5.261   6.311  16.873  0.00  0.00    +0.000 C 
ATOM     12  O   UNL     1       4.167   6.776  17.152  0.00  0.00    +0.000 OA
BRANCH  11  13
ATOM     13  O   UNL     1       6.333   7.102  16.645  0.00  0.00    +0.000 OA
ATOM     14  H   UNL     1       6.135   7.909  16.108  0.00  0.00    +0.000 HD
ENDBRANCH  11  13
ENDBRANCH   1  11
BRANCH   1  15
ATOM     15  C   UNL     1       5.287   4.466  15.196  0.00  0.00    +0.000 C 
BRANCH  15  17
ATOM     16  O   UNL     1       7.520   5.179  14.580  0.00  0.00    +0.000 OA
ATOM     17  C   UNL     1       6.554   4.462  14.381  0.00  0.00    +0.000 C 
BRANCH  17  18
ATOM     18  O   UNL     1       6.561   3.491  13.443  0.00  0.00    +0.000 OA
ATOM     19  H   UNL     1       6.828   2.606  13.763  0.00  0.00    +0.000 HD
ENDBRANCH  17  18
ENDBRANCH  15  17
ENDBRANCH   1  15
TORSDOF 7
ENDMDL
MODEL 2
REMARK VINA RESULT:      -6.2      2.051      2.795
REMARK  Name = 
REMARK  7 active torsions:
REMARK  status: ('A' for Active; 'I' for Inactive)
REMARK    1  A    between atoms: C_2  and  O_3
REMARK    2  A    between atoms: C_2  and  C_4
REMARK    3  A    between atoms: C_4  and  C_5
REMARK    4  A    between atoms: C_5  and  C_6
REMARK    5  A    between atoms: C_5  and  N_9
REMARK    6  A    between atoms: C_6  and  O_8
REMARK    7  A    between atoms: P_11  and  O_13
REMARK                            x       y       z     vdW  Elec       q    Type
REMARK                         _______ _______ _______ _____ _____    ______ ____
ROOT
ATOM      1  C   UNL     1       5.950   4.796  16.818  0.00  0.00    +0.000 C 
ENDROOT
BRANCH   1   2
ATOM      2  N   UNL     1       4.916   5.204  17.796  0.00  0.00    +0.000 N 
ATOM      3  C   UNL     1       4.151   6.437  17.660  0.00  0.00    +0.000 C 
ATOM      4  P   UNL     1       2.768   6.173  18.770  0.00  0.00    +0.000 P 
ATOM      5  O   UNL     1       2.192   7.416  19.362  0.00  0.00    +0.000 OA
ATOM      6  C   UNL     1       3.587   5.005  19.820  0.00  0.00    +0.000 C 
ATOM      7  C   UNL     1       4.724   4.488  18.973  0.00  0.00    +0.000 C 
ATOM      8  O   UNL     1       5.472   3.573  19.304  0.00  0.00    +0.000 OA
BRANCH   4   9
ATOM      9  O   UNL     1       1.738   5.250  17.939  0.00  0.00    +0.000 OA
ATOM     10  H   UNL     1       0.777   5.348  18.118  0.00  0.00    +0.000 HD
ENDBRANCH   4   9
ENDBRANCH   1   2
BRANCH   1  11
ATOM     11  C   UNL     1       7.362   5.138  17.330  0.00  0.00    +0.000 C 
ATOM     12  O   UNL     1       7.793   6.278  17.410  0.00  0.00    +0.000 OA
BRANCH  11  13
ATOM     13  O   UNL     1       8.128   4.065  17.628  0.00  0.00    +0.000 OA
ATOM     14  H   UNL     1       7.665   3.196  17.530  0.00  0.00    +0.000 HD
ENDBRANCH  11  13
ENDBRANCH   1  11
BRANCH   1  15
ATOM     15  C   UNL     1       5.798   5.384  15.403  0.00  0.00    +0.000 C 
BRANCH  15  17
ATOM     16  O   UNL     1       7.757   5.327  13.977  0.00  0.00    +0.000 OA
ATOM     17  C   UNL     1       6.754   4.783  14.406  0.00  0.00    +0.000 C 
BRANCH  17  18
ATOM     18  O   UNL     1       6.443   3.505  14.100  0.00  0.00    +0.000 OA
ATOM     19  H   UNL     1       6.951   2.825  14.585  0.00  0.00    +0.000 HD
ENDBRANCH  17  18
ENDBRANCH  15  17
ENDBRANCH   1  15
TORSDOF 7
ENDMDL
MODEL 3
REMARK VINA RESULT:      -6.2      1.957      5.294
REMARK  Name = 
REMARK  7 active torsions:
REMARK  status: ('A' for Active; 'I' for Inactive)
REMARK    1  A    between atoms: C_2  and  O_3
REMARK    2  A    between atoms: C_2  and  C_4
REMARK    3  A    between atoms: C_4  and  C_5
REMARK    4  A    between atoms: C_5  and  C_6
REMARK    5  A    between atoms: C_5  and  N_9
REMARK    6  A    between atoms: C_6  and  O_8
REMARK    7  A    between atoms: P_11  and  O_13
REMARK                            x       y       z     vdW  Elec       q    Type
REMARK                         _______ _______ _______ _____ _____    ______ ____
ROOT
ATOM      1  C   UNL     1       3.940   3.673  18.483  0.00  0.00    +0.000 C 
ENDROOT
BRANCH   1   2
ATOM      2  N   UNL     1       5.114   4.274  17.810  0.00  0.00    +0.000 N 
ATOM      3  C   UNL     1       5.377   4.100  16.388  0.00  0.00    +0.000 C 
ATOM      4  P   UNL     1       6.562   5.398  16.038  0.00  0.00    +0.000 P 
ATOM      5  O   UNL     1       7.504   5.105  14.917  0.00  0.00    +0.000 OA
ATOM      6  C   UNL     1       7.187   5.534  17.689  0.00  0.00    +0.000 C 
ATOM      7  C   UNL     1       6.101   4.926  18.542  0.00  0.00    +0.000 C 
ATOM      8  O   UNL     1       6.104   4.926  19.769  0.00  0.00    +0.000 OA
BRANCH   4   9
ATOM      9  O   UNL     1       5.678   6.737  15.876  0.00  0.00    +0.000 OA
ATOM     10  H   UNL     1       5.391   7.000  14.974  0.00  0.00    +0.000 HD
ENDBRANCH   4   9
ENDBRANCH   1   2
BRANCH   1  11
ATOM     11  C   UNL     1       4.216   2.208  18.871  0.00  0.00    +0.000 C 
ATOM     12  O   UNL     1       3.734   1.251  18.284  0.00  0.00    +0.000 OA
BRANCH  11  13
ATOM     13  O   UNL     1       4.991   2.052  19.967  0.00  0.00    +0.000 OA
ATOM     14  H   UNL     1       5.936   1.833  19.768  0.00  0.00    +0.000 HD
ENDBRANCH  11  13
ENDBRANCH   1  11
BRANCH   1  15
ATOM     15  C   UNL     1       2.622   3.719  17.690  0.00  0.00    +0.000 C 
BRANCH  15  17
ATOM     16  O   UNL     1       0.608   2.575  18.407  0.00  0.00    +0.000 OA
ATOM     17  C   UNL     1       1.406   3.485  18.549  0.00  0.00    +0.000 C 
BRANCH  17  18
ATOM     18  O   UNL     1       1.336   4.346  19.588  0.00  0.00    +0.000 OA
ATOM     19  H   UNL     1       2.116   4.924  19.701  0.00  0.00    +0.000 HD
ENDBRANCH  17  18
ENDBRANCH  15  17
ENDBRANCH   1  15
TORSDOF 7
ENDMDL
MODEL 4
REMARK VINA RESULT:      -6.2      2.194      5.287
REMARK  Name = 
REMARK  7 active torsions:
REMARK  status: ('A' for Active; 'I' for Inactive)
REMARK    1  A    between atoms: C_2  and  O_3
REMARK    2  A    between atoms: C_2  and  C_4
REMARK    3  A    between atoms: C_4  and  C_5
REMARK    4  A    between atoms: C_5  and  C_6
REMARK    5  A    between atoms: C_5  and  N_9
REMARK    6  A    between atoms: C_6  and  O_8
REMARK    7  A    between atoms: P_11  and  O_13
REMARK                            x       y       z     vdW  Elec       q    Type
REMARK                         _______ _______ _______ _____ _____    ______ ____
ROOT
ATOM      1  C   UNL     1       3.773   3.687  18.496  0.00  0.00    +0.000 C 
ENDROOT
BRANCH   1   2
ATOM      2  N   UNL     1       4.986   4.188  17.811  0.00  0.00    +0.000 N 
ATOM      3  C   UNL     1       5.240   3.954  16.395  0.00  0.00    +0.000 C 
ATOM      4  P   UNL     1       6.511   5.159  16.013  0.00  0.00    +0.000 P 
ATOM      5  O   UNL     1       7.434   4.770  14.905  0.00  0.00    +0.000 OA
ATOM      6  C   UNL     1       7.139   5.302  17.662  0.00  0.00    +0.000 C 
ATOM      7  C   UNL     1       6.013   4.793  18.528  0.00  0.00    +0.000 C 
ATOM      8  O   UNL     1       6.012   4.829  19.754  0.00  0.00    +0.000 OA
BRANCH   4   9
ATOM      9  O   UNL     1       5.719   6.549  15.807  0.00  0.00    +0.000 OA
ATOM     10  H   UNL     1       5.069   6.612  15.073  0.00  0.00    +0.000 HD
ENDBRANCH   4   9
ENDBRANCH   1   2
BRANCH   1  11
ATOM     11  C   UNL     1       3.330   2.331  17.913  0.00  0.00    +0.000 C 
ATOM     12  O   UNL     1       2.313   2.178  17.253  0.00  0.00    +0.000 OA
BRANCH  11  13
ATOM     13  O   UNL     1       4.126   1.289  18.245  0.00  0.00    +0.000 OA
ATOM     14  H   UNL     1       3.903   0.445  17.780  0.00  0.00    +0.000 HD
ENDBRANCH  11  13
ENDBRANCH   1  11
BRANCH   1  15
ATOM     15  C   UNL     1       2.559   4.634  18.479  0.00  0.00    +0.000 C 
BRANCH  15  17
ATOM     16  O   UNL     1       1.272   4.889  20.518  0.00  0.00    +0.000 OA
ATOM     17  C   UNL     1       2.234   5.202  19.837  0.00  0.00    +0.000 C 
BRANCH  17  18
ATOM     18  O   UNL     1       3.191   6.041  20.287  0.00  0.00    +0.000 OA
ATOM     19  H   UNL     1       4.099   5.832  19.992  0.00  0.00    +0.000 HD
ENDBRANCH  17  18
ENDBRANCH  15  17
ENDBRANCH   1  15
TORSDOF 7
ENDMDL
MODEL 5
REMARK VINA RESULT:      -6.2      2.303      5.689
REMARK  Name = 
REMARK  7 active torsions:
REMARK  status: ('A' for Active; 'I' for Inactive)
REMARK    1  A    between atoms: C_2  and  O_3
REMARK    2  A    between atoms: C_2  and  C_4
REMARK    3  A    between atoms: C_4  and  C_5
REMARK    4  A    between atoms: C_5  and  C_6
REMARK    5  A    between atoms: C_5  and  N_9
REMARK    6  A    between atoms: C_6  and  O_8
REMARK    7  A    between atoms: P_11  and  O_13
REMARK                            x       y       z     vdW  Elec       q    Type
REMARK                         _______ _______ _______ _____ _____    ______ ____
ROOT
ATOM      1  C   UNL     1       3.945   3.909  19.688  0.00  0.00    +0.000 C 
ENDROOT
BRANCH   1   2
ATOM      2  N   UNL     1       4.634   4.731  18.667  0.00  0.00    +0.000 N 
ATOM      3  C   UNL     1       4.127   4.882  17.309  0.00  0.00    +0.000 C 
ATOM      4  P   UNL     1       5.019   6.316  16.707  0.00  0.00    +0.000 P 
ATOM      5  O   UNL     1       5.245   6.342  15.231  0.00  0.00    +0.000 OA
ATOM      6  C   UNL     1       6.404   6.150  17.798  0.00  0.00    +0.000 C 
ATOM      7  C   UNL     1       5.881   5.290  18.923  0.00  0.00    +0.000 C 
ATOM      8  O   UNL     1       6.509   5.031  19.945  0.00  0.00    +0.000 OA
BRANCH   4   9
ATOM      9  O   UNL     1       4.229   7.584  17.316  0.00  0.00    +0.000 OA
ATOM     10  H   UNL     1       4.716   8.431  17.417  0.00  0.00    +0.000 HD
ENDBRANCH   4   9
ENDBRANCH   1   2
BRANCH   1  11
ATOM     11  C   UNL     1       3.986   2.415  19.314  0.00  0.00    +0.000 C 
ATOM     12  O   UNL     1       3.120   1.858  18.659  0.00  0.00    +0.000 OA
BRANCH  11  13
ATOM     13  O   UNL     1       5.036   1.736  19.828  0.00  0.00    +0.000 OA
ATOM     14  H   UNL     1       5.898   1.919  19.377  0.00  0.00    +0.000 HD
ENDBRANCH  11  13
ENDBRANCH   1  11
BRANCH   1  15
ATOM     15  C   UNL     1       2.481   4.291  19.973  0.00  0.00    +0.000 C 
BRANCH  15  17
ATOM     16  O   UNL     1       2.243   3.362  22.200  0.00  0.00    +0.000 OA
ATOM     17  C   UNL     1       1.848   3.447  21.049  0.00  0.00    +0.000 C 
BRANCH  17  18
ATOM     18  O   UNL     1       0.708   2.854  20.636  0.00  0.00    +0.000 OA
ATOM     19  H   UNL     1       0.052   2.677  21.340  0.00  0.00    +0.000 HD
ENDBRANCH  17  18
ENDBRANCH  15  17
ENDBRANCH   1  15
TORSDOF 7
ENDMDL
MODEL 6
REMARK VINA RESULT:      -6.1      2.339      5.184
REMARK  Name = 
REMARK  7 active torsions:
REMARK  status: ('A' for Active; 'I' for Inactive)
REMARK    1  A    between atoms: C_2  and  O_3
REMARK    2  A    between atoms: C_2  and  C_4
REMARK    3  A    between atoms: C_4  and  C_5
REMARK    4  A    between atoms: C_5  and  C_6
REMARK    5  A    between atoms: C_5  and  N_9
REMARK    6  A    between atoms: C_6  and  O_8
REMARK    7  A    between atoms: P_11  and  O_13
REMARK                            x       y       z     vdW  Elec       q    Type
REMARK                         _______ _______ _______ _____ _____    ______ ____
ROOT
ATOM      1  C   UNL     1       4.225   4.262  18.985  0.00  0.00    +0.000 C 
ENDROOT
BRANCH   1   2
ATOM      2  N   UNL     1       5.131   4.322  17.815  0.00  0.00    +0.000 N 
ATOM      3  C   UNL     1       4.702   3.956  16.471  0.00  0.00    +0.000 C 
ATOM      4  P   UNL     1       5.973   4.679  15.435  0.00  0.00    +0.000 P 
ATOM      5  O   UNL     1       6.211   3.968  14.144  0.00  0.00    +0.000 OA
ATOM      6  C   UNL     1       7.242   4.690  16.671  0.00  0.00    +0.000 C 
ATOM      7  C   UNL     1       6.484   4.603  17.973  0.00  0.00    +0.000 C 
ATOM      8  O   UNL     1       7.002   4.693  19.082  0.00  0.00    +0.000 OA
BRANCH   4   9
ATOM      9  O   UNL     1       5.576   6.238  15.313  0.00  0.00    +0.000 OA
ATOM     10  H   UNL     1       5.878   6.735  14.523  0.00  0.00    +0.000 HD
ENDBRANCH   4   9
ENDBRANCH   1   2
BRANCH   1  11
ATOM     11  C   UNL     1       4.019   2.808  19.450  0.00  0.00    +0.000 C 
ATOM     12  O   UNL     1       2.938   2.239  19.434  0.00  0.00    +0.000 OA
BRANCH  11  13
ATOM     13  O   UNL     1       5.128   2.214  19.948  0.00  0.00    +0.000 OA
ATOM     14  H   UNL     1       5.916   2.261  19.352  0.00  0.00    +0.000 HD
ENDBRANCH  11  13
ENDBRANCH   1  11
BRANCH   1  15
ATOM     15  C   UNL     1       2.839   4.902  18.788  0.00  0.00    +0.000 C 
BRANCH  15  17
ATOM     16  O   UNL     1       2.395   7.168  19.526  0.00  0.00    +0.000 OA
ATOM     17  C   UNL     1       2.540   5.987  19.790  0.00  0.00    +0.000 C 
BRANCH  17  18
ATOM     18  O   UNL     1       2.342   5.499  21.034  0.00  0.00    +0.000 OA
ATOM     19  H   UNL     1       3.098   5.601  21.646  0.00  0.00    +0.000 HD
ENDBRANCH  17  18
ENDBRANCH  15  17
ENDBRANCH   1  15
TORSDOF 7
ENDMDL
MODEL 7
REMARK VINA RESULT:      -6.1      1.866      3.425
REMARK  Name = 
REMARK  7 active torsions:
REMARK  status: ('A' for Active; 'I' for Inactive)
REMARK    1  A    between atoms: C_2  and  O_3
REMARK    2  A    between atoms: C_2  and  C_4
REMARK    3  A    between atoms: C_4  and  C_5
REMARK    4  A    between atoms: C_5  and  C_6
REMARK    5  A    between atoms: C_5  and  N_9
REMARK    6  A    between atoms: C_6  and  O_8
REMARK    7  A    between atoms: P_11  and  O_13
REMARK                            x       y       z     vdW  Elec       q    Type
REMARK                         _______ _______ _______ _____ _____    ______ ____
ROOT
ATOM      1  C   UNL     1       5.996   5.728  17.425  0.00  0.00    +0.000 C 
ENDROOT
BRANCH   1   2
ATOM      2  N   UNL     1       4.677   5.069  17.561  0.00  0.00    +0.000 N 
ATOM      3  C   UNL     1       4.477   3.652  17.289  0.00  0.00    +0.000 C 
ATOM      4  P   UNL     1       2.903   3.312  18.075  0.00  0.00    +0.000 P 
ATOM      5  O   UNL     1       2.114   2.208  17.453  0.00  0.00    +0.000 OA
ATOM      6  C   UNL     1       2.290   4.972  17.997  0.00  0.00    +0.000 C 
ATOM      7  C   UNL     1       3.532   5.812  17.826  0.00  0.00    +0.000 C 
ATOM      8  O   UNL     1       3.544   7.039  17.838  0.00  0.00    +0.000 OA
BRANCH   4   9
ATOM      9  O   UNL     1       3.249   3.129  19.640  0.00  0.00    +0.000 OA
ATOM     10  H   UNL     1       3.239   2.222  20.017  0.00  0.00    +0.000 HD
ENDBRANCH   4   9
ENDBRANCH   1   2
BRANCH   1  11
ATOM     11  C   UNL     1       6.349   5.959  15.943  0.00  0.00    +0.000 C 
ATOM     12  O   UNL     1       7.404   5.611  15.437  0.00  0.00    +0.000 OA
BRANCH  11  13
ATOM     13  O   UNL     1       5.417   6.645  15.244  0.00  0.00    +0.000 OA
ATOM     14  H   UNL     1       4.592   6.844  15.753  0.00  0.00    +0.000 HD
ENDBRANCH  11  13
ENDBRANCH   1  11
BRANCH   1  15
ATOM     15  C   UNL     1       7.178   4.997  18.089  0.00  0.00    +0.000 C 
BRANCH  15  17
ATOM     16  O   UNL     1       7.768   5.324  20.418  0.00  0.00    +0.000 OA
ATOM     17  C   UNL     1       7.743   5.740  19.272  0.00  0.00    +0.000 C 
BRANCH  17  18
ATOM     18  O   UNL     1       8.330   6.904  18.918  0.00  0.00    +0.000 OA
ATOM     19  H   UNL     1       8.282   7.120  17.965  0.00  0.00    +0.000 HD
ENDBRANCH  17  18
ENDBRANCH  15  17
ENDBRANCH   1  15
TORSDOF 7
ENDMDL
MODEL 8
REMARK VINA RESULT:      -6.1      2.244      5.402
REMARK  Name = 
REMARK  7 active torsions:
REMARK  status: ('A' for Active; 'I' for Inactive)
REMARK    1  A    between atoms: C_2  and  O_3
REMARK    2  A    between atoms: C_2  and  C_4
REMARK    3  A    between atoms: C_4  and  C_5
REMARK    4  A    between atoms: C_5  and  C_6
REMARK    5  A    between atoms: C_5  and  N_9
REMARK    6  A    between atoms: C_6  and  O_8
REMARK    7  A    between atoms: P_11  and  O_13
REMARK                            x       y       z     vdW  Elec       q    Type
REMARK                         _______ _______ _______ _____ _____    ______ ____
ROOT
ATOM      1  C   UNL     1       3.961   3.978  19.090  0.00  0.00    +0.000 C 
ENDROOT
BRANCH   1   2
ATOM      2  N   UNL     1       4.969   4.418  18.100  0.00  0.00    +0.000 N 
ATOM      3  C   UNL     1       4.823   4.173  16.671  0.00  0.00    +0.000 C 
ATOM      4  P   UNL     1       6.002   5.312  15.947  0.00  0.00    +0.000 P 
ATOM      5  O   UNL     1       6.575   4.879  14.638  0.00  0.00    +0.000 OA
ATOM      6  C   UNL     1       7.056   5.422  17.366  0.00  0.00    +0.000 C 
ATOM      7  C   UNL     1       6.179   4.970  18.508  0.00  0.00    +0.000 C 
ATOM      8  O   UNL     1       6.508   5.005  19.690  0.00  0.00    +0.000 OA
BRANCH   4   9
ATOM      9  O   UNL     1       5.253   6.741  15.943  0.00  0.00    +0.000 OA
ATOM     10  H   UNL     1       5.239   7.262  16.776  0.00  0.00    +0.000 HD
ENDBRANCH   4   9
ENDBRANCH   1   2
BRANCH   1  11
ATOM     11  C   UNL     1       4.042   2.457  19.324  0.00  0.00    +0.000 C 
ATOM     12  O   UNL     1       3.204   1.666  18.919  0.00  0.00    +0.000 OA
BRANCH  11  13
ATOM     13  O   UNL     1       5.091   2.059  20.078  0.00  0.00    +0.000 OA
ATOM     14  H   UNL     1       5.241   2.608  20.887  0.00  0.00    +0.000 HD
ENDBRANCH  11  13
ENDBRANCH   1  11
BRANCH   1  15
ATOM     15  C   UNL     1       2.500   4.334  18.758  0.00  0.00    +0.000 C 
BRANCH  15  17
ATOM     16  O   UNL     1       1.805   5.542  20.741  0.00  0.00    +0.000 OA
ATOM     17  C   UNL     1       1.662   4.598  19.982  0.00  0.00    +0.000 C 
BRANCH  17  18
ATOM     18  O   UNL     1       0.642   3.723  20.107  0.00  0.00    +0.000 OA
ATOM     19  H   UNL     1      -0.252   4.114  20.033  0.00  0.00    +0.000 HD
ENDBRANCH  17  18
ENDBRANCH  15  17
ENDBRANCH   1  15
TORSDOF 7
ENDMDL
MODEL 9
REMARK VINA RESULT:      -6.0      2.884      5.574
REMARK  Name = 
REMARK  7 active torsions:
REMARK  status: ('A' for Active; 'I' for Inactive)
REMARK    1  A    between atoms: C_2  and  O_3
REMARK    2  A    between atoms: C_2  and  C_4
REMARK    3  A    between atoms: C_4  and  C_5
REMARK    4  A    between atoms: C_5  and  C_6
REMARK    5  A    between atoms: C_5  and  N_9
REMARK    6  A    between atoms: C_6  and  O_8
REMARK    7  A    between atoms: P_11  and  O_13
REMARK                            x       y       z     vdW  Elec       q    Type
REMARK                         _______ _______ _______ _____ _____    ______ ____
ROOT
ATOM      1  C   UNL     1       2.014   5.512  19.737  0.00  0.00    +0.000 C 
ENDROOT
BRANCH   1   2
ATOM      2  N   UNL     1       3.107   5.097  18.828  0.00  0.00    +0.000 N 
ATOM      3  C   UNL     1       4.454   5.645  18.921  0.00  0.00    +0.000 C 
ATOM      4  P   UNL     1       5.429   4.471  17.981  0.00  0.00    +0.000 P 
ATOM      5  O   UNL     1       6.647   5.042  17.332  0.00  0.00    +0.000 OA
ATOM      6  C   UNL     1       4.097   3.884  16.971  0.00  0.00    +0.000 C 
ATOM      7  C   UNL     1       2.858   4.257  17.748  0.00  0.00    +0.000 C 
ATOM      8  O   UNL     1       1.719   3.925  17.435  0.00  0.00    +0.000 OA
BRANCH   4   9
ATOM      9  O   UNL     1       5.686   3.239  18.990  0.00  0.00    +0.000 OA
ATOM     10  H   UNL     1       5.631   3.409  19.956  0.00  0.00    +0.000 HD
ENDBRANCH   4   9
ENDBRANCH   1   2
BRANCH   1  11
ATOM     11  C   UNL     1       2.000   7.042  19.921  0.00  0.00    +0.000 C 
ATOM     12  O   UNL     1       2.102   7.835  18.997  0.00  0.00    +0.000 OA
BRANCH  11  13
ATOM     13  O   UNL     1       1.931   7.453  21.207  0.00  0.00    +0.000 OA
ATOM     14  H   UNL     1       1.255   6.976  21.750  0.00  0.00    +0.000 HD
ENDBRANCH  11  13
ENDBRANCH   1  11
BRANCH   1  15
ATOM     15  C   UNL     1       2.024   4.862  21.132  0.00  0.00    +0.000 C 
BRANCH  15  17
ATOM     16  O   UNL     1       1.637   2.625  21.980  0.00  0.00    +0.000 OA
ATOM     17  C   UNL     1       1.410   3.486  21.148  0.00  0.00    +0.000 C 
BRANCH  17  18
ATOM     18  O   UNL     1       0.479   3.326  20.183  0.00  0.00    +0.000 OA
ATOM     19  H   UNL     1       0.696   2.658  19.503  0.00  0.00    +0.000 HD
ENDBRANCH  17  18
ENDBRANCH  15  17
ENDBRANCH   1  15
TORSDOF 7
ENDMDL
