MODEL 1
REMARK VINA RESULT:      -8.2      0.000      0.000
REMARK  Name = 
REMARK  9 active torsions:
REMARK  status: ('A' for Active; 'I' for Inactive)
REMARK    1  A    between atoms: C_1  and  C_2
REMARK    2  A    between atoms: C_2  and  C_3
REMARK    3  A    between atoms: C_3  and  C_4
REMARK    4  A    between atoms: C_4  and  C_5
REMARK    5  A    between atoms: C_4  and  N_8
REMARK    6  A    between atoms: C_5  and  O_7
REMARK    7  A    between atoms: C_12  and  C_13
REMARK    8  A    between atoms: C_16  and  C_17
REMARK    9  A    between atoms: C_20  and  N_21
REMARK                            x       y       z     vdW  Elec       q    Type
REMARK                         _______ _______ _______ _____ _____    ______ ____
ROOT
ATOM      1  N   UNL     1       4.746   5.350  17.559  0.00  0.00    +0.000 N 
ATOM      2  C   UNL     1       4.307   6.549  17.027  0.00  0.00    +0.000 C 
ATOM      3  O   UNL     1       4.774   7.077  16.027  0.00  0.00    +0.000 OA
ATOM      4  C   UNL     1       3.239   7.158  17.860  0.00  0.00    +0.000 C 
ATOM      5  C   UNL     1       2.726   8.364  17.572  0.00  0.00    +0.000 C 
ATOM      6  S   UNL     1       2.844   6.086  19.141  0.00  0.00    +0.000 S 
ATOM      7  C   UNL     1       4.058   4.907  18.675  0.00  0.00    +0.000 C 
ATOM      8  S   UNL     1       4.237   3.481  19.517  0.00  0.00    +0.000 S 
ENDROOT
BRANCH   5   9
ATOM      9  C   UNL     1       1.730   9.007  18.359  0.00  0.00    +0.000 A 
ATOM     10  C   UNL     1       1.785   9.403  19.689  0.00  0.00    +0.000 A 
ATOM     11  C   UNL     1       0.552  10.027  20.010  0.00  0.00    +0.000 A 
ATOM     12  C   UNL     1      -0.220   9.975  18.871  0.00  0.00    +0.000 A 
ATOM     13  O   UNL     1       0.480   9.337  17.894  0.00  0.00    +0.000 OA
BRANCH  12  14
ATOM     14  C   UNL     1      -1.543  10.465  18.489  0.00  0.00    +0.000 A 
ATOM     15  C   UNL     1      -2.234   9.888  17.412  0.00  0.00    +0.000 A 
ATOM     16  C   UNL     1      -3.528  10.310  17.078  0.00  0.00    +0.000 A 
ATOM     17  C   UNL     1      -4.141  11.322  17.824  0.00  0.00    +0.000 A 
ATOM     18  C   UNL     1      -3.463  11.927  18.886  0.00  0.00    +0.000 A 
ATOM     19  C   UNL     1      -2.171  11.496  19.211  0.00  0.00    +0.000 A 
BRANCH  17  20
ATOM     20  N   UNL     1      -5.510  11.742  17.499  0.00  0.00    +0.000 N 
ATOM     21  O   UNL     1      -5.649  12.734  16.769  0.00  0.00    +0.000 OA
ATOM     22  O   UNL     1      -6.444  11.077  17.968  0.00  0.00    +0.000 OA
ENDBRANCH  17  20
ENDBRANCH  12  14
ENDBRANCH   5   9
BRANCH   1  23
ATOM     23  C   UNL     1       5.781   4.545  16.858  0.00  0.00    +0.000 C 
BRANCH  23  24
ATOM     24  C   UNL     1       7.232   4.988  17.120  0.00  0.00    +0.000 C 
ATOM     25  O   UNL     1       7.597   6.148  16.973  0.00  0.00    +0.000 OA
BRANCH  24  26
ATOM     26  O   UNL     1       8.075   4.064  17.625  0.00  0.00    +0.000 OA
ATOM     27  H   UNL     1       7.984   3.886  18.590  0.00  0.00    +0.000 HD
ENDBRANCH  24  26
ENDBRANCH  23  24
BRANCH  23  28
ATOM     28  C   UNL     1       5.453   4.411  15.361  0.00  0.00    +0.000 C 
BRANCH  28  30
ATOM     29  C   UNL     1       6.250   3.659  13.103  0.00  0.00    +0.000 C 
ATOM     30  C   UNL     1       6.676   4.146  14.481  0.00  0.00    +0.000 C 
ENDBRANCH  28  30
ENDBRANCH  23  28
ENDBRANCH   1  23
TORSDOF 8
ENDMDL
MODEL 2
REMARK VINA RESULT:      -8.2      1.798      2.256
REMARK  Name = 
REMARK  9 active torsions:
REMARK  status: ('A' for Active; 'I' for Inactive)
REMARK    1  A    between atoms: C_1  and  C_2
REMARK    2  A    between atoms: C_2  and  C_3
REMARK    3  A    between atoms: C_3  and  C_4
REMARK    4  A    between atoms: C_4  and  C_5
REMARK    5  A    between atoms: C_4  and  N_8
REMARK    6  A    between atoms: C_5  and  O_7
REMARK    7  A    between atoms: C_12  and  C_13
REMARK    8  A    between atoms: C_16  and  C_17
REMARK    9  A    between atoms: C_20  and  N_21
REMARK                            x       y       z     vdW  Elec       q    Type
REMARK                         _______ _______ _______ _____ _____    ______ ____
ROOT
ATOM      1  N   UNL     1       3.597   5.519  18.928  0.00  0.00    +0.000 N 
ATOM      2  C   UNL     1       3.533   6.565  18.025  0.00  0.00    +0.000 C 
ATOM      3  O   UNL     1       4.233   6.665  17.027  0.00  0.00    +0.000 OA
ATOM      4  C   UNL     1       2.553   7.595  18.453  0.00  0.00    +0.000 C 
ATOM      5  C   UNL     1       2.390   8.737  17.766  0.00  0.00    +0.000 C 
ATOM      6  S   UNL     1       1.755   7.059  19.873  0.00  0.00    +0.000 S 
ATOM      7  C   UNL     1       2.691   5.577  19.971  0.00  0.00    +0.000 C 
ATOM      8  S   UNL     1       2.411   4.463  21.179  0.00  0.00    +0.000 S 
ENDROOT
BRANCH   5   9
ATOM      9  C   UNL     1       1.493   9.771  18.154  0.00  0.00    +0.000 A 
ATOM     10  C   UNL     1       1.776  11.019  18.692  0.00  0.00    +0.000 A 
ATOM     11  C   UNL     1       0.546  11.701  18.882  0.00  0.00    +0.000 A 
ATOM     12  C   UNL     1      -0.446  10.840  18.470  0.00  0.00    +0.000 A 
ATOM     13  O   UNL     1       0.126   9.674  18.063  0.00  0.00    +0.000 OA
BRANCH  12  14
ATOM     14  C   UNL     1      -1.900  10.915  18.345  0.00  0.00    +0.000 A 
ATOM     15  C   UNL     1      -2.605   9.938  17.624  0.00  0.00    +0.000 A 
ATOM     16  C   UNL     1      -4.003   9.967  17.550  0.00  0.00    +0.000 A 
ATOM     17  C   UNL     1      -4.711  10.984  18.200  0.00  0.00    +0.000 A 
ATOM     18  C   UNL     1      -4.028  11.980  18.905  0.00  0.00    +0.000 A 
ATOM     19  C   UNL     1      -2.631  11.939  18.972  0.00  0.00    +0.000 A 
BRANCH  17  20
ATOM     20  N   UNL     1      -6.179  10.998  18.154  0.00  0.00    +0.000 N 
ATOM     21  O   UNL     1      -6.780  10.063  18.703  0.00  0.00    +0.000 OA
ATOM     22  O   UNL     1      -6.729  11.944  17.574  0.00  0.00    +0.000 OA
ENDBRANCH  17  20
ENDBRANCH  12  14
ENDBRANCH   5   9
BRANCH   1  23
ATOM     23  C   UNL     1       4.482   4.350  18.671  0.00  0.00    +0.000 C 
BRANCH  23  24
ATOM     24  C   UNL     1       5.986   4.675  18.630  0.00  0.00    +0.000 C 
ATOM     25  O   UNL     1       6.664   4.503  17.625  0.00  0.00    +0.000 OA
BRANCH  24  26
ATOM     26  O   UNL     1       6.517   5.263  19.722  0.00  0.00    +0.000 OA
ATOM     27  H   UNL     1       7.267   4.782  20.142  0.00  0.00    +0.000 HD
ENDBRANCH  24  26
ENDBRANCH  23  24
BRANCH  23  28
ATOM     28  C   UNL     1       4.003   3.558  17.442  0.00  0.00    +0.000 C 
BRANCH  28  30
ATOM     29  C   UNL     1       1.926   2.339  18.148  0.00  0.00    +0.000 C 
ATOM     30  C   UNL     1       3.397   2.195  17.782  0.00  0.00    +0.000 C 
ENDBRANCH  28  30
ENDBRANCH  23  28
ENDBRANCH   1  23
TORSDOF 8
ENDMDL
MODEL 3
REMARK VINA RESULT:      -8.1      0.816      1.057
REMARK  Name = 
REMARK  9 active torsions:
REMARK  status: ('A' for Active; 'I' for Inactive)
REMARK    1  A    between atoms: C_1  and  C_2
REMARK    2  A    between atoms: C_2  and  C_3
REMARK    3  A    between atoms: C_3  and  C_4
REMARK    4  A    between atoms: C_4  and  C_5
REMARK    5  A    between atoms: C_4  and  N_8
REMARK    6  A    between atoms: C_5  and  O_7
REMARK    7  A    between atoms: C_12  and  C_13
REMARK    8  A    between atoms: C_16  and  C_17
REMARK    9  A    between atoms: C_20  and  N_21
REMARK                            x       y       z     vdW  Elec       q    Type
REMARK                         _______ _______ _______ _____ _____    ______ ____
ROOT
ATOM      1  N   UNL     1       4.703   5.135  16.982  0.00  0.00    +0.000 N 
ATOM      2  C   UNL     1       4.435   6.484  16.831  0.00  0.00    +0.000 C 
ATOM      3  O   UNL     1       5.077   7.243  16.119  0.00  0.00    +0.000 OA
ATOM      4  C   UNL     1       3.308   6.916  17.696  0.00  0.00    +0.000 C 
ATOM      5  C   UNL     1       2.934   8.203  17.768  0.00  0.00    +0.000 C 
ATOM      6  S   UNL     1       2.657   5.548  18.500  0.00  0.00    +0.000 S 
ATOM      7  C   UNL     1       3.833   4.444  17.807  0.00  0.00    +0.000 C 
ATOM      8  S   UNL     1       3.784   2.813  18.146  0.00  0.00    +0.000 S 
ENDROOT
BRANCH   5   9
ATOM      9  C   UNL     1       1.887   8.675  18.609  0.00  0.00    +0.000 A 
ATOM     10  C   UNL     1       1.794   8.641  19.994  0.00  0.00    +0.000 A 
ATOM     11  C   UNL     1       0.572   9.260  20.365  0.00  0.00    +0.000 A 
ATOM     12  C   UNL     1      -0.046   9.635  19.193  0.00  0.00    +0.000 A 
ATOM     13  O   UNL     1       0.732   9.255  18.144  0.00  0.00    +0.000 OA
BRANCH  12  14
ATOM     14  C   UNL     1      -1.274  10.350  18.850  0.00  0.00    +0.000 A 
ATOM     15  C   UNL     1      -2.068   9.926  17.773  0.00  0.00    +0.000 A 
ATOM     16  C   UNL     1      -3.278  10.567  17.474  0.00  0.00    +0.000 A 
ATOM     17  C   UNL     1      -3.701  11.647  18.256  0.00  0.00    +0.000 A 
ATOM     18  C   UNL     1      -2.915  12.101  19.319  0.00  0.00    +0.000 A 
ATOM     19  C   UNL     1      -1.709  11.451  19.608  0.00  0.00    +0.000 A 
BRANCH  17  20
ATOM     20  N   UNL     1      -4.985  12.299  17.968  0.00  0.00    +0.000 N 
ATOM     21  O   UNL     1      -5.559  12.877  18.902  0.00  0.00    +0.000 OA
ATOM     22  O   UNL     1      -5.416  12.236  16.808  0.00  0.00    +0.000 OA
ENDBRANCH  17  20
ENDBRANCH  12  14
ENDBRANCH   5   9
BRANCH   1  23
ATOM     23  C   UNL     1       5.764   4.478  16.172  0.00  0.00    +0.000 C 
BRANCH  23  24
ATOM     24  C   UNL     1       7.194   4.972  16.458  0.00  0.00    +0.000 C 
ATOM     25  O   UNL     1       7.954   4.372  17.209  0.00  0.00    +0.000 OA
BRANCH  24  26
ATOM     26  O   UNL     1       7.624   6.045  15.763  0.00  0.00    +0.000 OA
ATOM     27  H   UNL     1       7.599   5.955  14.782  0.00  0.00    +0.000 HD
ENDBRANCH  24  26
ENDBRANCH  23  24
BRANCH  23  28
ATOM     28  C   UNL     1       5.406   4.501  14.676  0.00  0.00    +0.000 C 
BRANCH  28  30
ATOM     29  C   UNL     1       6.774   4.228  12.589  0.00  0.00    +0.000 C 
ATOM     30  C   UNL     1       6.231   3.530  13.828  0.00  0.00    +0.000 C 
ENDBRANCH  28  30
ENDBRANCH  23  28
ENDBRANCH   1  23
TORSDOF 8
ENDMDL
MODEL 4
REMARK VINA RESULT:      -8.1      0.605      1.243
REMARK  Name = 
REMARK  9 active torsions:
REMARK  status: ('A' for Active; 'I' for Inactive)
REMARK    1  A    between atoms: C_1  and  C_2
REMARK    2  A    between atoms: C_2  and  C_3
REMARK    3  A    between atoms: C_3  and  C_4
REMARK    4  A    between atoms: C_4  and  C_5
REMARK    5  A    between atoms: C_4  and  N_8
REMARK    6  A    between atoms: C_5  and  O_7
REMARK    7  A    between atoms: C_12  and  C_13
REMARK    8  A    between atoms: C_16  and  C_17
REMARK    9  A    between atoms: C_20  and  N_21
REMARK                            x       y       z     vdW  Elec       q    Type
REMARK                         _______ _______ _______ _____ _____    ______ ____
ROOT
ATOM      1  N   UNL     1       4.707   5.188  17.209  0.00  0.00    +0.000 N 
ATOM      2  C   UNL     1       4.371   6.494  16.898  0.00  0.00    +0.000 C 
ATOM      3  O   UNL     1       4.927   7.169  16.044  0.00  0.00    +0.000 OA
ATOM      4  C   UNL     1       3.291   7.004  17.781  0.00  0.00    +0.000 C 
ATOM      5  C   UNL     1       2.867   8.275  17.708  0.00  0.00    +0.000 C 
ATOM      6  S   UNL     1       2.758   5.738  18.809  0.00  0.00    +0.000 S 
ATOM      7  C   UNL     1       3.928   4.589  18.183  0.00  0.00    +0.000 C 
ATOM      8  S   UNL     1       3.973   3.019  18.741  0.00  0.00    +0.000 S 
ENDROOT
BRANCH   5   9
ATOM      9  C   UNL     1       1.864   8.823  18.555  0.00  0.00    +0.000 A 
ATOM     10  C   UNL     1       1.884   9.005  19.932  0.00  0.00    +0.000 A 
ATOM     11  C   UNL     1       0.660   9.616  20.309  0.00  0.00    +0.000 A 
ATOM     12  C   UNL     1      -0.072   9.770  19.153  0.00  0.00    +0.000 A 
ATOM     13  O   UNL     1       0.642   9.266  18.110  0.00  0.00    +0.000 OA
BRANCH  12  14
ATOM     14  C   UNL     1      -1.365  10.360  18.813  0.00  0.00    +0.000 A 
ATOM     15  C   UNL     1      -1.890  11.415  19.576  0.00  0.00    +0.000 A 
ATOM     16  C   UNL     1      -3.099  12.028  19.223  0.00  0.00    +0.000 A 
ATOM     17  C   UNL     1      -3.798  11.583  18.095  0.00  0.00    +0.000 A 
ATOM     18  C   UNL     1      -3.305  10.520  17.332  0.00  0.00    +0.000 A 
ATOM     19  C   UNL     1      -2.095   9.916  17.696  0.00  0.00    +0.000 A 
BRANCH  17  20
ATOM     20  N   UNL     1      -5.047  12.246  17.700  0.00  0.00    +0.000 N 
ATOM     21  O   UNL     1      -5.493  12.006  16.569  0.00  0.00    +0.000 OA
ATOM     22  O   UNL     1      -5.583  13.003  18.522  0.00  0.00    +0.000 OA
ENDBRANCH  17  20
ENDBRANCH  12  14
ENDBRANCH   5   9
BRANCH   1  23
ATOM     23  C   UNL     1       5.735   4.461  16.416  0.00  0.00    +0.000 C 
BRANCH  23  24
ATOM     24  C   UNL     1       7.183   4.919  16.662  0.00  0.00    +0.000 C 
ATOM     25  O   UNL     1       8.013   4.199  17.205  0.00  0.00    +0.000 OA
BRANCH  24  26
ATOM     26  O   UNL     1       7.543   6.118  16.159  0.00  0.00    +0.000 OA
ATOM     27  H   UNL     1       7.371   6.894  16.741  0.00  0.00    +0.000 HD
ENDBRANCH  24  26
ENDBRANCH  23  24
BRANCH  23  28
ATOM     28  C   UNL     1       5.357   4.430  14.925  0.00  0.00    +0.000 C 
BRANCH  28  30
ATOM     29  C   UNL     1       5.949   3.494  12.672  0.00  0.00    +0.000 C 
ATOM     30  C   UNL     1       6.495   3.977  14.008  0.00  0.00    +0.000 C 
ENDBRANCH  28  30
ENDBRANCH  23  28
ENDBRANCH   1  23
TORSDOF 8
ENDMDL
MODEL 5
REMARK VINA RESULT:      -7.9      1.871      2.256
REMARK  Name = 
REMARK  9 active torsions:
REMARK  status: ('A' for Active; 'I' for Inactive)
REMARK    1  A    between atoms: C_1  and  C_2
REMARK    2  A    between atoms: C_2  and  C_3
REMARK    3  A    between atoms: C_3  and  C_4
REMARK    4  A    between atoms: C_4  and  C_5
REMARK    5  A    between atoms: C_4  and  N_8
REMARK    6  A    between atoms: C_5  and  O_7
REMARK    7  A    between atoms: C_12  and  C_13
REMARK    8  A    between atoms: C_16  and  C_17
REMARK    9  A    between atoms: C_20  and  N_21
REMARK                            x       y       z     vdW  Elec       q    Type
REMARK                         _______ _______ _______ _____ _____    ______ ____
ROOT
ATOM      1  N   UNL     1       4.754   4.781  16.889  0.00  0.00    +0.000 N 
ATOM      2  C   UNL     1       4.509   6.141  16.964  0.00  0.00    +0.000 C 
ATOM      3  O   UNL     1       5.118   6.992  16.331  0.00  0.00    +0.000 OA
ATOM      4  C   UNL     1       3.456   6.451  17.964  0.00  0.00    +0.000 C 
ATOM      5  C   UNL     1       3.119   7.716  18.258  0.00  0.00    +0.000 C 
ATOM      6  S   UNL     1       2.830   4.984  18.596  0.00  0.00    +0.000 S 
ATOM      7  C   UNL     1       3.927   3.984  17.659  0.00  0.00    +0.000 C 
ATOM      8  S   UNL     1       3.861   2.321  17.749  0.00  0.00    +0.000 S 
ENDROOT
BRANCH   5   9
ATOM      9  C   UNL     1       2.145   8.067  19.235  0.00  0.00    +0.000 A 
ATOM     10  C   UNL     1       1.872   7.464  20.455  0.00  0.00    +0.000 A 
ATOM     11  C   UNL     1       0.832   8.198  21.082  0.00  0.00    +0.000 A 
ATOM     12  C   UNL     1       0.495   9.214  20.215  0.00  0.00    +0.000 A 
ATOM     13  O   UNL     1       1.265   9.112  19.098  0.00  0.00    +0.000 OA
BRANCH  12  14
ATOM     14  C   UNL     1      -0.434  10.341  20.249  0.00  0.00    +0.000 A 
ATOM     15  C   UNL     1      -1.222  10.650  19.129  0.00  0.00    +0.000 A 
ATOM     16  C   UNL     1      -2.159  11.691  19.172  0.00  0.00    +0.000 A 
ATOM     17  C   UNL     1      -2.312  12.437  20.345  0.00  0.00    +0.000 A 
ATOM     18  C   UNL     1      -1.522  12.163  21.466  0.00  0.00    +0.000 A 
ATOM     19  C   UNL     1      -0.590  11.120  21.410  0.00  0.00    +0.000 A 
BRANCH  17  20
ATOM     20  N   UNL     1      -3.318  13.505  20.406  0.00  0.00    +0.000 N 
ATOM     21  O   UNL     1      -2.946  14.624  20.789  0.00  0.00    +0.000 OA
ATOM     22  O   UNL     1      -4.476  13.227  20.066  0.00  0.00    +0.000 OA
ENDBRANCH  17  20
ENDBRANCH  12  14
ENDBRANCH   5   9
BRANCH   1  23
ATOM     23  C   UNL     1       5.740   4.242  15.913  0.00  0.00    +0.000 C 
BRANCH  23  24
ATOM     24  C   UNL     1       7.186   4.728  16.120  0.00  0.00    +0.000 C 
ATOM     25  O   UNL     1       7.956   4.174  16.896  0.00  0.00    +0.000 OA
BRANCH  24  26
ATOM     26  O   UNL     1       7.615   5.733  15.331  0.00  0.00    +0.000 OA
ATOM     27  H   UNL     1       8.425   5.545  14.802  0.00  0.00    +0.000 HD
ENDBRANCH  24  26
ENDBRANCH  23  24
BRANCH  23  28
ATOM     28  C   UNL     1       5.242   4.428  14.470  0.00  0.00    +0.000 C 
BRANCH  28  30
ATOM     29  C   UNL     1       5.258   3.354  12.201  0.00  0.00    +0.000 C 
ATOM     30  C   UNL     1       6.094   3.706  13.424  0.00  0.00    +0.000 C 
ENDBRANCH  28  30
ENDBRANCH  23  28
ENDBRANCH   1  23
TORSDOF 8
ENDMDL
MODEL 6
REMARK VINA RESULT:      -7.8      4.086      5.165
REMARK  Name = 
REMARK  9 active torsions:
REMARK  status: ('A' for Active; 'I' for Inactive)
REMARK    1  A    between atoms: C_1  and  C_2
REMARK    2  A    between atoms: C_2  and  C_3
REMARK    3  A    between atoms: C_3  and  C_4
REMARK    4  A    between atoms: C_4  and  C_5
REMARK    5  A    between atoms: C_4  and  N_8
REMARK    6  A    between atoms: C_5  and  O_7
REMARK    7  A    between atoms: C_12  and  C_13
REMARK    8  A    between atoms: C_16  and  C_17
REMARK    9  A    between atoms: C_20  and  N_21
REMARK                            x       y       z     vdW  Elec       q    Type
REMARK                         _______ _______ _______ _____ _____    ______ ____
ROOT
ATOM      1  N   UNL     1       3.646   5.893  18.547  0.00  0.00    +0.000 N 
ATOM      2  C   UNL     1       2.781   6.367  19.517  0.00  0.00    +0.000 C 
ATOM      3  O   UNL     1       2.458   5.748  20.522  0.00  0.00    +0.000 OA
ATOM      4  C   UNL     1       2.236   7.701  19.157  0.00  0.00    +0.000 C 
ATOM      5  C   UNL     1       1.314   8.310  19.918  0.00  0.00    +0.000 C 
ATOM      6  S   UNL     1       2.970   8.235  17.702  0.00  0.00    +0.000 S 
ATOM      7  C   UNL     1       3.911   6.766  17.508  0.00  0.00    +0.000 C 
ATOM      8  S   UNL     1       4.963   6.583  16.228  0.00  0.00    +0.000 S 
ENDROOT
BRANCH   5   9
ATOM      9  C   UNL     1       0.732   9.569  19.598  0.00  0.00    +0.000 A 
ATOM     10  C   UNL     1      -0.608   9.902  19.452  0.00  0.00    +0.000 A 
ATOM     11  C   UNL     1      -0.684  11.288  19.159  0.00  0.00    +0.000 A 
ATOM     12  C   UNL     1       0.613  11.750  19.118  0.00  0.00    +0.000 A 
ATOM     13  O   UNL     1       1.457  10.709  19.353  0.00  0.00    +0.000 OA
BRANCH  12  14
ATOM     14  C   UNL     1       1.246  13.053  18.927  0.00  0.00    +0.000 A 
ATOM     15  C   UNL     1       2.528  13.148  18.364  0.00  0.00    +0.000 A 
ATOM     16  C   UNL     1       3.118  14.395  18.120  0.00  0.00    +0.000 A 
ATOM     17  C   UNL     1       2.423  15.565  18.444  0.00  0.00    +0.000 A 
ATOM     18  C   UNL     1       1.154  15.495  19.027  0.00  0.00    +0.000 A 
ATOM     19  C   UNL     1       0.575  14.242  19.264  0.00  0.00    +0.000 A 
BRANCH  17  20
ATOM     20  N   UNL     1       3.023  16.874  18.158  0.00  0.00    +0.000 N 
ATOM     21  O   UNL     1       3.572  17.472  19.094  0.00  0.00    +0.000 OA
ATOM     22  O   UNL     1       2.948  17.302  16.998  0.00  0.00    +0.000 OA
ENDBRANCH  17  20
ENDBRANCH  12  14
ENDBRANCH   5   9
BRANCH   1  23
ATOM     23  C   UNL     1       4.347   4.593  18.728  0.00  0.00    +0.000 C 
BRANCH  23  24
ATOM     24  C   UNL     1       5.874   4.699  18.890  0.00  0.00    +0.000 C 
ATOM     25  O   UNL     1       6.391   5.339  19.797  0.00  0.00    +0.000 OA
BRANCH  24  26
ATOM     26  O   UNL     1       6.633   3.966  18.050  0.00  0.00    +0.000 OA
ATOM     27  H   UNL     1       6.969   4.441  17.254  0.00  0.00    +0.000 HD
ENDBRANCH  24  26
ENDBRANCH  23  24
BRANCH  23  28
ATOM     28  C   UNL     1       3.924   3.586  17.645  0.00  0.00    +0.000 C 
BRANCH  28  30
ATOM     29  C   UNL     1       1.753   2.536  18.344  0.00  0.00    +0.000 C 
ATOM     30  C   UNL     1       3.254   2.326  18.198  0.00  0.00    +0.000 C 
ENDBRANCH  28  30
ENDBRANCH  23  28
ENDBRANCH   1  23
TORSDOF 8
ENDMDL
MODEL 7
REMARK VINA RESULT:      -7.7      4.086      5.217
REMARK  Name = 
REMARK  9 active torsions:
REMARK  status: ('A' for Active; 'I' for Inactive)
REMARK    1  A    between atoms: C_1  and  C_2
REMARK    2  A    between atoms: C_2  and  C_3
REMARK    3  A    between atoms: C_3  and  C_4
REMARK    4  A    between atoms: C_4  and  C_5
REMARK    5  A    between atoms: C_4  and  N_8
REMARK    6  A    between atoms: C_5  and  O_7
REMARK    7  A    between atoms: C_12  and  C_13
REMARK    8  A    between atoms: C_16  and  C_17
REMARK    9  A    between atoms: C_20  and  N_21
REMARK                            x       y       z     vdW  Elec       q    Type
REMARK                         _______ _______ _______ _____ _____    ______ ____
ROOT
ATOM      1  N   UNL     1       3.628   5.908  18.553  0.00  0.00    +0.000 N 
ATOM      2  C   UNL     1       2.767   6.373  19.531  0.00  0.00    +0.000 C 
ATOM      3  O   UNL     1       2.453   5.747  20.534  0.00  0.00    +0.000 OA
ATOM      4  C   UNL     1       2.213   7.706  19.182  0.00  0.00    +0.000 C 
ATOM      5  C   UNL     1       1.293   8.307  19.953  0.00  0.00    +0.000 C 
ATOM      6  S   UNL     1       2.935   8.253  17.725  0.00  0.00    +0.000 S 
ATOM      7  C   UNL     1       3.881   6.789  17.517  0.00  0.00    +0.000 C 
ATOM      8  S   UNL     1       4.925   6.618  16.229  0.00  0.00    +0.000 S 
ENDROOT
BRANCH   5   9
ATOM      9  C   UNL     1       0.702   9.564  19.643  0.00  0.00    +0.000 A 
ATOM     10  C   UNL     1      -0.641   9.906  19.566  0.00  0.00    +0.000 A 
ATOM     11  C   UNL     1      -0.723  11.287  19.254  0.00  0.00    +0.000 A 
ATOM     12  C   UNL     1       0.572  11.738  19.134  0.00  0.00    +0.000 A 
ATOM     13  O   UNL     1       1.421  10.694  19.339  0.00  0.00    +0.000 OA
BRANCH  12  14
ATOM     14  C   UNL     1       1.203  13.033  18.886  0.00  0.00    +0.000 A 
ATOM     15  C   UNL     1       0.601  14.218  19.338  0.00  0.00    +0.000 A 
ATOM     16  C   UNL     1       1.227  15.458  19.159  0.00  0.00    +0.000 A 
ATOM     17  C   UNL     1       2.469  15.521  18.517  0.00  0.00    +0.000 A 
ATOM     18  C   UNL     1       3.076  14.356  18.038  0.00  0.00    +0.000 A 
ATOM     19  C   UNL     1       2.440  13.123  18.224  0.00  0.00    +0.000 A 
BRANCH  17  20
ATOM     20  N   UNL     1       3.145  16.815  18.359  0.00  0.00    +0.000 N 
ATOM     21  O   UNL     1       3.258  17.267  17.211  0.00  0.00    +0.000 OA
ATOM     22  O   UNL     1       3.557  17.379  19.381  0.00  0.00    +0.000 OA
ENDBRANCH  17  20
ENDBRANCH  12  14
ENDBRANCH   5   9
BRANCH   1  23
ATOM     23  C   UNL     1       4.335   4.611  18.721  0.00  0.00    +0.000 C 
BRANCH  23  24
ATOM     24  C   UNL     1       5.864   4.723  18.868  0.00  0.00    +0.000 C 
ATOM     25  O   UNL     1       6.388   5.368  19.769  0.00  0.00    +0.000 OA
BRANCH  24  26
ATOM     26  O   UNL     1       6.617   3.990  18.023  0.00  0.00    +0.000 OA
ATOM     27  H   UNL     1       7.554   3.852  18.297  0.00  0.00    +0.000 HD
ENDBRANCH  24  26
ENDBRANCH  23  24
BRANCH  23  28
ATOM     28  C   UNL     1       3.906   3.606  17.638  0.00  0.00    +0.000 C 
BRANCH  28  30
ATOM     29  C   UNL     1       1.800   2.474  18.403  0.00  0.00    +0.000 C 
ATOM     30  C   UNL     1       2.391   3.507  17.453  0.00  0.00    +0.000 C 
ENDBRANCH  28  30
ENDBRANCH  23  28
ENDBRANCH   1  23
TORSDOF 8
ENDMDL
MODEL 8
REMARK VINA RESULT:      -7.7      2.061      2.554
REMARK  Name = 
REMARK  9 active torsions:
REMARK  status: ('A' for Active; 'I' for Inactive)
REMARK    1  A    between atoms: C_1  and  C_2
REMARK    2  A    between atoms: C_2  and  C_3
REMARK    3  A    between atoms: C_3  and  C_4
REMARK    4  A    between atoms: C_4  and  C_5
REMARK    5  A    between atoms: C_4  and  N_8
REMARK    6  A    between atoms: C_5  and  O_7
REMARK    7  A    between atoms: C_12  and  C_13
REMARK    8  A    between atoms: C_16  and  C_17
REMARK    9  A    between atoms: C_20  and  N_21
REMARK                            x       y       z     vdW  Elec       q    Type
REMARK                         _______ _______ _______ _____ _____    ______ ____
ROOT
ATOM      1  N   UNL     1       3.602   5.481  18.642  0.00  0.00    +0.000 N 
ATOM      2  C   UNL     1       3.500   6.566  17.789  0.00  0.00    +0.000 C 
ATOM      3  O   UNL     1       4.151   6.704  16.763  0.00  0.00    +0.000 OA
ATOM      4  C   UNL     1       2.550   7.582  18.309  0.00  0.00    +0.000 C 
ATOM      5  C   UNL     1       2.362   8.752  17.680  0.00  0.00    +0.000 C 
ATOM      6  S   UNL     1       1.821   6.989  19.744  0.00  0.00    +0.000 S 
ATOM      7  C   UNL     1       2.750   5.499  19.732  0.00  0.00    +0.000 C 
ATOM      8  S   UNL     1       2.523   4.336  20.903  0.00  0.00    +0.000 S 
ENDROOT
BRANCH   5   9
ATOM      9  C   UNL     1       1.493   9.774  18.157  0.00  0.00    +0.000 A 
ATOM     10  C   UNL     1       1.802  10.927  18.866  0.00  0.00    +0.000 A 
ATOM     11  C   UNL     1       0.596  11.641  19.085  0.00  0.00    +0.000 A 
ATOM     12  C   UNL     1      -0.410  10.892  18.517  0.00  0.00    +0.000 A 
ATOM     13  O   UNL     1       0.130   9.761  17.989  0.00  0.00    +0.000 OA
BRANCH  12  14
ATOM     14  C   UNL     1      -1.850  11.058  18.333  0.00  0.00    +0.000 A 
ATOM     15  C   UNL     1      -2.528  10.347  17.330  0.00  0.00    +0.000 A 
ATOM     16  C   UNL     1      -3.917  10.452  17.186  0.00  0.00    +0.000 A 
ATOM     17  C   UNL     1      -4.643  11.279  18.050  0.00  0.00    +0.000 A 
ATOM     18  C   UNL     1      -3.986  12.014  19.042  0.00  0.00    +0.000 A 
ATOM     19  C   UNL     1      -2.598  11.899  19.176  0.00  0.00    +0.000 A 
BRANCH  17  20
ATOM     20  N   UNL     1      -6.103  11.365  17.925  0.00  0.00    +0.000 N 
ATOM     21  O   UNL     1      -6.780  10.480  18.468  0.00  0.00    +0.000 OA
ATOM     22  O   UNL     1      -6.573  12.318  17.289  0.00  0.00    +0.000 OA
ENDBRANCH  17  20
ENDBRANCH  12  14
ENDBRANCH   5   9
BRANCH   1  23
ATOM     23  C   UNL     1       4.464   4.321  18.292  0.00  0.00    +0.000 C 
BRANCH  23  24
ATOM     24  C   UNL     1       3.713   2.990  18.109  0.00  0.00    +0.000 C 
ATOM     25  O   UNL     1       2.735   2.887  17.378  0.00  0.00    +0.000 OA
BRANCH  24  26
ATOM     26  O   UNL     1       4.238   1.901  18.707  0.00  0.00    +0.000 OA
ATOM     27  H   UNL     1       5.056   2.056  19.234  0.00  0.00    +0.000 HD
ENDBRANCH  24  26
ENDBRANCH  23  24
BRANCH  23  28
ATOM     28  C   UNL     1       5.657   4.211  19.257  0.00  0.00    +0.000 C 
BRANCH  28  30
ATOM     29  C   UNL     1       7.669   5.424  18.372  0.00  0.00    +0.000 C 
ATOM     30  C   UNL     1       6.500   5.485  19.345  0.00  0.00    +0.000 C 
ENDBRANCH  28  30
ENDBRANCH  23  28
ENDBRANCH   1  23
TORSDOF 8
ENDMDL
MODEL 9
REMARK VINA RESULT:      -7.5      2.392      3.053
REMARK  Name = 
REMARK  9 active torsions:
REMARK  status: ('A' for Active; 'I' for Inactive)
REMARK    1  A    between atoms: C_1  and  C_2
REMARK    2  A    between atoms: C_2  and  C_3
REMARK    3  A    between atoms: C_3  and  C_4
REMARK    4  A    between atoms: C_4  and  C_5
REMARK    5  A    between atoms: C_4  and  N_8
REMARK    6  A    between atoms: C_5  and  O_7
REMARK    7  A    between atoms: C_12  and  C_13
REMARK    8  A    between atoms: C_16  and  C_17
REMARK    9  A    between atoms: C_20  and  N_21
REMARK                            x       y       z     vdW  Elec       q    Type
REMARK                         _______ _______ _______ _____ _____    ______ ____
ROOT
ATOM      1  N   UNL     1       3.289   5.990  18.875  0.00  0.00    +0.000 N 
ATOM      2  C   UNL     1       2.459   6.463  19.876  0.00  0.00    +0.000 C 
ATOM      3  O   UNL     1       2.147   5.832  20.876  0.00  0.00    +0.000 OA
ATOM      4  C   UNL     1       1.932   7.814  19.553  0.00  0.00    +0.000 C 
ATOM      5  C   UNL     1       1.042   8.427  20.349  0.00  0.00    +0.000 C 
ATOM      6  S   UNL     1       2.641   8.361  18.091  0.00  0.00    +0.000 S 
ATOM      7  C   UNL     1       3.546   6.877  17.846  0.00  0.00    +0.000 C 
ATOM      8  S   UNL     1       4.562   6.697  16.537  0.00  0.00    +0.000 S 
ENDROOT
BRANCH   5   9
ATOM      9  C   UNL     1       0.478   9.703  20.066  0.00  0.00    +0.000 A 
ATOM     10  C   UNL     1       1.076  10.955  20.117  0.00  0.00    +0.000 A 
ATOM     11  C   UNL     1       0.111  11.916  19.719  0.00  0.00    +0.000 A 
ATOM     12  C   UNL     1      -1.047  11.220  19.455  0.00  0.00    +0.000 A 
ATOM     13  O   UNL     1      -0.829   9.898  19.693  0.00  0.00    +0.000 OA
BRANCH  12  14
ATOM     14  C   UNL     1      -2.379  11.568  18.963  0.00  0.00    +0.000 A 
ATOM     15  C   UNL     1      -2.798  11.157  17.688  0.00  0.00    +0.000 A 
ATOM     16  C   UNL     1      -4.094  11.433  17.232  0.00  0.00    +0.000 A 
ATOM     17  C   UNL     1      -4.984  12.131  18.056  0.00  0.00    +0.000 A 
ATOM     18  C   UNL     1      -4.581  12.570  19.320  0.00  0.00    +0.000 A 
ATOM     19  C   UNL     1      -3.284  12.287  19.764  0.00  0.00    +0.000 A 
BRANCH  17  20
ATOM     20  N   UNL     1      -6.354  12.391  17.595  0.00  0.00    +0.000 N 
ATOM     21  O   UNL     1      -7.252  11.645  18.011  0.00  0.00    +0.000 OA
ATOM     22  O   UNL     1      -6.532  13.343  16.823  0.00  0.00    +0.000 OA
ENDBRANCH  17  20
ENDBRANCH  12  14
ENDBRANCH   5   9
BRANCH   1  23
ATOM     23  C   UNL     1       3.967   4.673  19.014  0.00  0.00    +0.000 C 
BRANCH  23  24
ATOM     24  C   UNL     1       5.505   4.737  19.038  0.00  0.00    +0.000 C 
ATOM     25  O   UNL     1       6.114   5.555  19.717  0.00  0.00    +0.000 OA
BRANCH  24  26
ATOM     26  O   UNL     1       6.170   3.780  18.360  0.00  0.00    +0.000 OA
ATOM     27  H   UNL     1       5.836   2.861  18.481  0.00  0.00    +0.000 HD
ENDBRANCH  24  26
ENDBRANCH  23  24
BRANCH  23  28
ATOM     28  C   UNL     1       3.421   3.663  17.989  0.00  0.00    +0.000 C 
BRANCH  28  30
ATOM     29  C   UNL     1       1.273   2.603  18.738  0.00  0.00    +0.000 C 
ATOM     30  C   UNL     1       1.897   3.677  17.859  0.00  0.00    +0.000 C 
ENDBRANCH  28  30
ENDBRANCH  23  28
ENDBRANCH   1  23
TORSDOF 8
ENDMDL
