MODEL 1
REMARK VINA RESULT:      -7.4      0.000      0.000
REMARK  Name = 
REMARK  6 active torsions:
REMARK  status: ('A' for Active; 'I' for Inactive)
REMARK    1  A    between atoms: C_1  and  C_2
REMARK    2  A    between atoms: C_2  and  O_3
REMARK    3  A    between atoms: C_2  and  C_15
REMARK    4  A    between atoms: O_3  and  C_4
REMARK    5  A    between atoms: C_4  and  C_6
REMARK    6  A    between atoms: N_17  and  C_18
REMARK                            x       y       z     vdW  Elec       q    Type
REMARK                         _______ _______ _______ _____ _____    ______ ____
ROOT
ATOM      1  C   UNL     1       4.374   2.218  19.953  0.00  0.00    +0.000 C 
ATOM      2  C   UNL     1       3.408   3.192  19.293  0.00  0.00    +0.000 C 
ENDROOT
BRANCH   2   3
ATOM      3  C   UNL     1       3.835   3.466  17.835  0.00  0.00    +0.000 C 
ATOM      4  O   UNL     1       3.063   3.416  16.881  0.00  0.00    +0.000 OA
ATOM      5  N   UNL     1       5.155   3.847  17.719  0.00  0.00    +0.000 N 
ATOM      6  H   UNL     1       5.643   4.004  18.592  0.00  0.00    +0.000 HD
BRANCH   5   7
ATOM      7  C   UNL     1       5.742   4.370  16.491  0.00  0.00    +0.000 C 
ATOM      8  C   UNL     1       5.118   5.723  16.128  0.00  0.00    +0.000 C 
ATOM      9  C   UNL     1       5.426   6.778  17.190  0.00  0.00    +0.000 C 
ATOM     10  C   UNL     1       6.929   6.930  17.415  0.00  0.00    +0.000 C 
ATOM     11  C   UNL     1       7.639   5.601  17.666  0.00  0.00    +0.000 C 
ATOM     12  C   UNL     1       7.261   4.526  16.644  0.00  0.00    +0.000 C 
ENDBRANCH   5   7
ENDBRANCH   2   3
BRANCH   2  13
ATOM     13  O   UNL     1       3.374   4.437  20.023  0.00  0.00    +0.000 OA
BRANCH  13  14
ATOM     14  C   UNL     1       2.165   4.809  20.511  0.00  0.00    +0.000 C 
ATOM     15  O   UNL     1       1.376   4.083  21.088  0.00  0.00    +0.000 OA
BRANCH  14  16
ATOM     16  C   UNL     1       1.892   6.242  20.204  0.00  0.00    +0.000 A 
ATOM     17  C   UNL     1       1.274   7.109  21.134  0.00  0.00    +0.000 A 
ATOM     18  C   UNL     1       1.074   8.460  20.830  0.00  0.00    +0.000 A 
ATOM     19  C   UNL     1       1.492   8.911  19.596  0.00  0.00    +0.000 A 
ATOM     20  C   UNL     1       2.083   8.071  18.682  0.00  0.00    +0.000 A 
ATOM     21  C   UNL     1       2.297   6.733  18.950  0.00  0.00    +0.000 A 
ATOM     22  O   UNL     1       2.416   8.713  17.530  0.00  0.00    +0.000 OA
ATOM     23  C   UNL     1       1.958  10.050  17.819  0.00  0.00    +0.000 C 
ATOM     24  O   UNL     1       1.387  10.185  19.138  0.00  0.00    +0.000 OA
ENDBRANCH  14  16
ENDBRANCH  13  14
ENDBRANCH   2  13
TORSDOF 5
ENDMDL
MODEL 2
REMARK VINA RESULT:      -7.2      0.898      1.566
REMARK  Name = 
REMARK  6 active torsions:
REMARK  status: ('A' for Active; 'I' for Inactive)
REMARK    1  A    between atoms: C_1  and  C_2
REMARK    2  A    between atoms: C_2  and  O_3
REMARK    3  A    between atoms: C_2  and  C_15
REMARK    4  A    between atoms: O_3  and  C_4
REMARK    5  A    between atoms: C_4  and  C_6
REMARK    6  A    between atoms: N_17  and  C_18
REMARK                            x       y       z     vdW  Elec       q    Type
REMARK                         _______ _______ _______ _____ _____    ______ ____
ROOT
ATOM      1  C   UNL     1       3.227   2.125  19.257  0.00  0.00    +0.000 C 
ATOM      2  C   UNL     1       3.182   3.536  18.689  0.00  0.00    +0.000 C 
ENDROOT
BRANCH   2   3
ATOM      3  C   UNL     1       4.152   3.666  17.496  0.00  0.00    +0.000 C 
ATOM      4  O   UNL     1       3.804   3.555  16.323  0.00  0.00    +0.000 OA
ATOM      5  N   UNL     1       5.437   3.994  17.874  0.00  0.00    +0.000 N 
ATOM      6  H   UNL     1       5.561   4.213  18.855  0.00  0.00    +0.000 HD
BRANCH   5   7
ATOM      7  C   UNL     1       6.482   4.388  16.937  0.00  0.00    +0.000 C 
ATOM      8  C   UNL     1       6.100   5.687  16.217  0.00  0.00    +0.000 C 
ATOM      9  C   UNL     1       5.994   6.854  17.198  0.00  0.00    +0.000 C 
ATOM     10  C   UNL     1       7.288   7.045  17.988  0.00  0.00    +0.000 C 
ATOM     11  C   UNL     1       7.793   5.758  18.638  0.00  0.00    +0.000 C 
ATOM     12  C   UNL     1       7.818   4.575  17.667  0.00  0.00    +0.000 C 
ENDBRANCH   5   7
ENDBRANCH   2   3
BRANCH   2  13
ATOM     13  O   UNL     1       3.543   4.497  19.705  0.00  0.00    +0.000 OA
BRANCH  13  14
ATOM     14  C   UNL     1       2.513   5.077  20.369  0.00  0.00    +0.000 C 
ATOM     15  O   UNL     1       1.851   4.558  21.251  0.00  0.00    +0.000 OA
BRANCH  14  16
ATOM     16  C   UNL     1       2.253   6.447  19.842  0.00  0.00    +0.000 A 
ATOM     17  C   UNL     1       2.593   6.826  18.523  0.00  0.00    +0.000 A 
ATOM     18  C   UNL     1       2.293   8.106  18.046  0.00  0.00    +0.000 A 
ATOM     19  C   UNL     1       1.665   8.982  18.905  0.00  0.00    +0.000 A 
ATOM     20  C   UNL     1       1.344   8.625  20.194  0.00  0.00    +0.000 A 
ATOM     21  C   UNL     1       1.623   7.370  20.695  0.00  0.00    +0.000 A 
ATOM     22  O   UNL     1       0.735   9.635  20.873  0.00  0.00    +0.000 OA
ATOM     23  C   UNL     1       0.720  10.671  19.869  0.00  0.00    +0.000 C 
ATOM     24  O   UNL     1       1.293  10.255  18.611  0.00  0.00    +0.000 OA
ENDBRANCH  14  16
ENDBRANCH  13  14
ENDBRANCH   2  13
TORSDOF 5
ENDMDL
MODEL 3
REMARK VINA RESULT:      -7.2      1.837      4.162
REMARK  Name = 
REMARK  6 active torsions:
REMARK  status: ('A' for Active; 'I' for Inactive)
REMARK    1  A    between atoms: C_1  and  C_2
REMARK    2  A    between atoms: C_2  and  O_3
REMARK    3  A    between atoms: C_2  and  C_15
REMARK    4  A    between atoms: O_3  and  C_4
REMARK    5  A    between atoms: C_4  and  C_6
REMARK    6  A    between atoms: N_17  and  C_18
REMARK                            x       y       z     vdW  Elec       q    Type
REMARK                         _______ _______ _______ _____ _____    ______ ____
ROOT
ATOM      1  C   UNL     1       5.144   6.026  15.866  0.00  0.00    +0.000 C 
ATOM      2  C   UNL     1       4.533   5.601  17.193  0.00  0.00    +0.000 C 
ENDROOT
BRANCH   2   3
ATOM      3  C   UNL     1       4.124   4.114  17.144  0.00  0.00    +0.000 C 
ATOM      4  O   UNL     1       4.806   3.239  16.616  0.00  0.00    +0.000 OA
ATOM      5  N   UNL     1       2.950   3.850  17.819  0.00  0.00    +0.000 N 
ATOM      6  H   UNL     1       2.566   4.625  18.345  0.00  0.00    +0.000 HD
BRANCH   5   7
ATOM      7  C   UNL     1       2.466   2.506  18.108  0.00  0.00    +0.000 C 
ATOM      8  C   UNL     1       3.343   1.833  19.169  0.00  0.00    +0.000 C 
ATOM      9  C   UNL     1       3.264   2.573  20.504  0.00  0.00    +0.000 C 
ATOM     10  C   UNL     1       1.824   2.688  21.001  0.00  0.00    +0.000 C 
ATOM     11  C   UNL     1       0.866   3.244  19.949  0.00  0.00    +0.000 C 
ATOM     12  C   UNL     1       1.011   2.550  18.592  0.00  0.00    +0.000 C 
ENDBRANCH   5   7
ENDBRANCH   2   3
BRANCH   2  13
ATOM     13  O   UNL     1       3.371   6.406  17.491  0.00  0.00    +0.000 OA
BRANCH  13  14
ATOM     14  C   UNL     1       3.124   6.632  18.805  0.00  0.00    +0.000 C 
ATOM     15  O   UNL     1       3.532   5.957  19.733  0.00  0.00    +0.000 OA
BRANCH  14  16
ATOM     16  C   UNL     1       2.230   7.813  18.976  0.00  0.00    +0.000 A 
ATOM     17  C   UNL     1       1.840   8.629  17.889  0.00  0.00    +0.000 A 
ATOM     18  C   UNL     1       0.963   9.702  18.078  0.00  0.00    +0.000 A 
ATOM     19  C   UNL     1       0.501   9.938  19.355  0.00  0.00    +0.000 A 
ATOM     20  C   UNL     1       0.886   9.157  20.419  0.00  0.00    +0.000 A 
ATOM     21  C   UNL     1       1.748   8.089  20.267  0.00  0.00    +0.000 A 
ATOM     22  O   UNL     1       0.321   9.561  21.588  0.00  0.00    +0.000 OA
ATOM     23  C   UNL     1      -0.455  10.693  21.141  0.00  0.00    +0.000 C 
ATOM     24  O   UNL     1      -0.358  10.925  19.720  0.00  0.00    +0.000 OA
ENDBRANCH  14  16
ENDBRANCH  13  14
ENDBRANCH   2  13
TORSDOF 5
ENDMDL
MODEL 4
REMARK VINA RESULT:      -7.0      2.372      6.323
REMARK  Name = 
REMARK  6 active torsions:
REMARK  status: ('A' for Active; 'I' for Inactive)
REMARK    1  A    between atoms: C_1  and  C_2
REMARK    2  A    between atoms: C_2  and  O_3
REMARK    3  A    between atoms: C_2  and  C_15
REMARK    4  A    between atoms: O_3  and  C_4
REMARK    5  A    between atoms: C_4  and  C_6
REMARK    6  A    between atoms: N_17  and  C_18
REMARK                            x       y       z     vdW  Elec       q    Type
REMARK                         _______ _______ _______ _____ _____    ______ ____
ROOT
ATOM      1  C   UNL     1       1.603   6.801  20.727  0.00  0.00    +0.000 C 
ATOM      2  C   UNL     1       2.652   6.625  19.638  0.00  0.00    +0.000 C 
ENDROOT
BRANCH   2   3
ATOM      3  C   UNL     1       2.547   7.764  18.602  0.00  0.00    +0.000 C 
ATOM      4  O   UNL     1       3.150   7.767  17.532  0.00  0.00    +0.000 OA
ATOM      5  N   UNL     1       1.647   8.745  18.964  0.00  0.00    +0.000 N 
ATOM      6  H   UNL     1       1.098   8.550  19.791  0.00  0.00    +0.000 HD
BRANCH   5   7
ATOM      7  C   UNL     1       1.203   9.807  18.068  0.00  0.00    +0.000 C 
ATOM      8  C   UNL     1      -0.327   9.819  17.963  0.00  0.00    +0.000 C 
ATOM      9  C   UNL     1      -0.972  10.146  19.310  0.00  0.00    +0.000 C 
ATOM     10  C   UNL     1      -0.468  11.476  19.868  0.00  0.00    +0.000 C 
ATOM     11  C   UNL     1       1.056  11.580  19.892  0.00  0.00    +0.000 C 
ATOM     12  C   UNL     1       1.698  11.172  18.563  0.00  0.00    +0.000 C 
ENDBRANCH   5   7
ENDBRANCH   2   3
BRANCH   2  13
ATOM     13  O   UNL     1       2.477   5.356  18.973  0.00  0.00    +0.000 OA
BRANCH  13  14
ATOM     14  C   UNL     1       3.414   4.412  19.234  0.00  0.00    +0.000 C 
ATOM     15  O   UNL     1       3.366   3.590  20.132  0.00  0.00    +0.000 OA
BRANCH  14  16
ATOM     16  C   UNL     1       4.563   4.536  18.292  0.00  0.00    +0.000 A 
ATOM     17  C   UNL     1       5.879   4.796  18.736  0.00  0.00    +0.000 A 
ATOM     18  C   UNL     1       6.942   4.862  17.829  0.00  0.00    +0.000 A 
ATOM     19  C   UNL     1       6.659   4.672  16.493  0.00  0.00    +0.000 A 
ATOM     20  C   UNL     1       5.379   4.432  16.052  0.00  0.00    +0.000 A 
ATOM     21  C   UNL     1       4.309   4.359  16.921  0.00  0.00    +0.000 A 
ATOM     22  O   UNL     1       5.318   4.278  14.702  0.00  0.00    +0.000 OA
ATOM     23  C   UNL     1       6.703   4.460  14.341  0.00  0.00    +0.000 C 
ATOM     24  O   UNL     1       7.562   4.692  15.478  0.00  0.00    +0.000 OA
ENDBRANCH  14  16
ENDBRANCH  13  14
ENDBRANCH   2  13
TORSDOF 5
ENDMDL
MODEL 5
REMARK VINA RESULT:      -7.0      1.908      3.164
REMARK  Name = 
REMARK  6 active torsions:
REMARK  status: ('A' for Active; 'I' for Inactive)
REMARK    1  A    between atoms: C_1  and  C_2
REMARK    2  A    between atoms: C_2  and  O_3
REMARK    3  A    between atoms: C_2  and  C_15
REMARK    4  A    between atoms: O_3  and  C_4
REMARK    5  A    between atoms: C_4  and  C_6
REMARK    6  A    between atoms: N_17  and  C_18
REMARK                            x       y       z     vdW  Elec       q    Type
REMARK                         _______ _______ _______ _____ _____    ______ ____
ROOT
ATOM      1  C   UNL     1       1.153   4.431  20.462  0.00  0.00    +0.000 C 
ATOM      2  C   UNL     1       2.077   5.187  19.517  0.00  0.00    +0.000 C 
ENDROOT
BRANCH   2   3
ATOM      3  C   UNL     1       3.366   4.377  19.264  0.00  0.00    +0.000 C 
ATOM      4  O   UNL     1       3.643   3.338  19.858  0.00  0.00    +0.000 OA
ATOM      5  N   UNL     1       4.142   4.895  18.248  0.00  0.00    +0.000 N 
ATOM      6  H   UNL     1       3.729   5.660  17.731  0.00  0.00    +0.000 HD
BRANCH   5   7
ATOM      7  C   UNL     1       5.287   4.202  17.669  0.00  0.00    +0.000 C 
ATOM      8  C   UNL     1       5.381   4.480  16.164  0.00  0.00    +0.000 C 
ATOM      9  C   UNL     1       5.640   5.961  15.890  0.00  0.00    +0.000 C 
ATOM     10  C   UNL     1       6.899   6.455  16.601  0.00  0.00    +0.000 C 
ATOM     11  C   UNL     1       6.927   6.107  18.088  0.00  0.00    +0.000 C 
ATOM     12  C   UNL     1       6.586   4.639  18.358  0.00  0.00    +0.000 C 
ENDBRANCH   5   7
ENDBRANCH   2   3
BRANCH   2  13
ATOM     13  O   UNL     1       2.423   6.473  20.077  0.00  0.00    +0.000 OA
BRANCH  13  14
ATOM     14  C   UNL     1       2.266   7.541  19.257  0.00  0.00    +0.000 C 
ATOM     15  O   UNL     1       2.783   7.681  18.163  0.00  0.00    +0.000 OA
BRANCH  14  16
ATOM     16  C   UNL     1       1.397   8.570  19.895  0.00  0.00    +0.000 A 
ATOM     17  C   UNL     1       0.860   9.660  19.171  0.00  0.00    +0.000 A 
ATOM     18  C   UNL     1       0.011  10.583  19.791  0.00  0.00    +0.000 A 
ATOM     19  C   UNL     1      -0.275  10.397  21.127  0.00  0.00    +0.000 A 
ATOM     20  C   UNL     1       0.254   9.347  21.841  0.00  0.00    +0.000 A 
ATOM     21  C   UNL     1       1.093   8.418  21.259  0.00  0.00    +0.000 A 
ATOM     22  O   UNL     1      -0.151   9.350  23.139  0.00  0.00    +0.000 OA
ATOM     23  C   UNL     1      -0.985  10.527  23.165  0.00  0.00    +0.000 C 
ATOM     24  O   UNL     1      -1.082  11.185  21.884  0.00  0.00    +0.000 OA
ENDBRANCH  14  16
ENDBRANCH  13  14
ENDBRANCH   2  13
TORSDOF 5
ENDMDL
MODEL 6
REMARK VINA RESULT:      -6.9      1.819      4.423
REMARK  Name = 
REMARK  6 active torsions:
REMARK  status: ('A' for Active; 'I' for Inactive)
REMARK    1  A    between atoms: C_1  and  C_2
REMARK    2  A    between atoms: C_2  and  O_3
REMARK    3  A    between atoms: C_2  and  C_15
REMARK    4  A    between atoms: O_3  and  C_4
REMARK    5  A    between atoms: C_4  and  C_6
REMARK    6  A    between atoms: N_17  and  C_18
REMARK                            x       y       z     vdW  Elec       q    Type
REMARK                         _______ _______ _______ _____ _____    ______ ____
ROOT
ATOM      1  C   UNL     1       5.368   4.559  16.198  0.00  0.00    +0.000 C 
ATOM      2  C   UNL     1       4.962   5.127  17.551  0.00  0.00    +0.000 C 
ENDROOT
BRANCH   2   3
ATOM      3  C   UNL     1       4.846   3.995  18.594  0.00  0.00    +0.000 C 
ATOM      4  O   UNL     1       5.728   3.727  19.407  0.00  0.00    +0.000 OA
ATOM      5  N   UNL     1       3.621   3.362  18.574  0.00  0.00    +0.000 N 
ATOM      6  H   UNL     1       2.925   3.778  17.968  0.00  0.00    +0.000 HD
BRANCH   5   7
ATOM      7  C   UNL     1       3.180   2.417  19.594  0.00  0.00    +0.000 C 
ATOM      8  C   UNL     1       2.836   3.150  20.896  0.00  0.00    +0.000 C 
ATOM      9  C   UNL     1       1.652   4.098  20.702  0.00  0.00    +0.000 C 
ATOM     10  C   UNL     1       0.424   3.364  20.165  0.00  0.00    +0.000 C 
ATOM     11  C   UNL     1       0.722   2.515  18.930  0.00  0.00    +0.000 C 
ATOM     12  C   UNL     1       1.958   1.629  19.105  0.00  0.00    +0.000 C 
ENDBRANCH   5   7
ENDBRANCH   2   3
BRANCH   2  13
ATOM     13  O   UNL     1       3.696   5.813  17.448  0.00  0.00    +0.000 OA
BRANCH  13  14
ATOM     14  C   UNL     1       3.758   7.141  17.180  0.00  0.00    +0.000 C 
ATOM     15  O   UNL     1       4.506   7.671  16.377  0.00  0.00    +0.000 OA
BRANCH  14  16
ATOM     16  C   UNL     1       2.808   7.897  18.044  0.00  0.00    +0.000 A 
ATOM     17  C   UNL     1       2.194   9.099  17.620  0.00  0.00    +0.000 A 
ATOM     18  C   UNL     1       1.272   9.759  18.438  0.00  0.00    +0.000 A 
ATOM     19  C   UNL     1       0.990   9.204  19.668  0.00  0.00    +0.000 A 
ATOM     20  C   UNL     1       1.593   8.043  20.092  0.00  0.00    +0.000 A 
ATOM     21  C   UNL     1       2.505   7.365  19.309  0.00  0.00    +0.000 A 
ATOM     22  O   UNL     1       1.179   7.670  21.333  0.00  0.00    +0.000 OA
ATOM     23  C   UNL     1       0.256   8.734  21.647  0.00  0.00    +0.000 C 
ATOM     24  O   UNL     1       0.119   9.701  20.584  0.00  0.00    +0.000 OA
ENDBRANCH  14  16
ENDBRANCH  13  14
ENDBRANCH   2  13
TORSDOF 5
ENDMDL
MODEL 7
REMARK VINA RESULT:      -6.9      3.912      6.065
REMARK  Name = 
REMARK  6 active torsions:
REMARK  status: ('A' for Active; 'I' for Inactive)
REMARK    1  A    between atoms: C_1  and  C_2
REMARK    2  A    between atoms: C_2  and  O_3
REMARK    3  A    between atoms: C_2  and  C_15
REMARK    4  A    between atoms: O_3  and  C_4
REMARK    5  A    between atoms: C_4  and  C_6
REMARK    6  A    between atoms: N_17  and  C_18
REMARK                            x       y       z     vdW  Elec       q    Type
REMARK                         _______ _______ _______ _____ _____    ______ ____
ROOT
ATOM      1  C   UNL     1       1.825   8.678  17.661  0.00  0.00    +0.000 C 
ATOM      2  C   UNL     1       1.654   9.028  19.133  0.00  0.00    +0.000 C 
ENDROOT
BRANCH   2   3
ATOM      3  C   UNL     1       1.878   7.778  20.011  0.00  0.00    +0.000 C 
ATOM      4  O   UNL     1       1.411   7.649  21.140  0.00  0.00    +0.000 OA
ATOM      5  N   UNL     1       2.593   6.787  19.372  0.00  0.00    +0.000 N 
ATOM      6  H   UNL     1       2.784   6.950  18.391  0.00  0.00    +0.000 HD
BRANCH   5   7
ATOM      7  C   UNL     1       2.749   5.435  19.895  0.00  0.00    +0.000 C 
ATOM      8  C   UNL     1       1.642   4.518  19.361  0.00  0.00    +0.000 C 
ATOM      9  C   UNL     1       1.734   4.364  17.843  0.00  0.00    +0.000 C 
ATOM     10  C   UNL     1       3.106   3.847  17.411  0.00  0.00    +0.000 C 
ATOM     11  C   UNL     1       4.265   4.646  18.004  0.00  0.00    +0.000 C 
ATOM     12  C   UNL     1       4.121   4.865  19.513  0.00  0.00    +0.000 C 
ENDBRANCH   5   7
ENDBRANCH   2   3
BRANCH   2  13
ATOM     13  O   UNL     1       0.329   9.549  19.373  0.00  0.00    +0.000 OA
BRANCH  13  14
ATOM     14  C   UNL     1       0.057  10.760  18.828  0.00  0.00    +0.000 C 
ATOM     15  O   UNL     1       0.827  11.703  18.768  0.00  0.00    +0.000 OA
BRANCH  14  16
ATOM     16  C   UNL     1      -1.350  10.814  18.340  0.00  0.00    +0.000 A 
ATOM     17  C   UNL     1      -1.799  10.044  17.243  0.00  0.00    +0.000 A 
ATOM     18  C   UNL     1      -3.138  10.084  16.839  0.00  0.00    +0.000 A 
ATOM     19  C   UNL     1      -3.997  10.902  17.542  0.00  0.00    +0.000 A 
ATOM     20  C   UNL     1      -3.565  11.663  18.603  0.00  0.00    +0.000 A 
ATOM     21  C   UNL     1      -2.252  11.645  19.027  0.00  0.00    +0.000 A 
ATOM     22  O   UNL     1      -4.568  12.399  19.153  0.00  0.00    +0.000 OA
ATOM     23  C   UNL     1      -5.678  12.023  18.311  0.00  0.00    +0.000 C 
ATOM     24  O   UNL     1      -5.324  11.058  17.298  0.00  0.00    +0.000 OA
ENDBRANCH  14  16
ENDBRANCH  13  14
ENDBRANCH   2  13
TORSDOF 5
ENDMDL
MODEL 8
REMARK VINA RESULT:      -6.8      1.879      3.062
REMARK  Name = 
REMARK  6 active torsions:
REMARK  status: ('A' for Active; 'I' for Inactive)
REMARK    1  A    between atoms: C_1  and  C_2
REMARK    2  A    between atoms: C_2  and  O_3
REMARK    3  A    between atoms: C_2  and  C_15
REMARK    4  A    between atoms: O_3  and  C_4
REMARK    5  A    between atoms: C_4  and  C_6
REMARK    6  A    between atoms: N_17  and  C_18
REMARK                            x       y       z     vdW  Elec       q    Type
REMARK                         _______ _______ _______ _____ _____    ______ ____
ROOT
ATOM      1  C   UNL     1       1.552   4.361  18.272  0.00  0.00    +0.000 C 
ATOM      2  C   UNL     1       2.610   5.350  17.805  0.00  0.00    +0.000 C 
ENDROOT
BRANCH   2   3
ATOM      3  C   UNL     1       3.982   4.653  17.691  0.00  0.00    +0.000 C 
ATOM      4  O   UNL     1       4.137   3.438  17.782  0.00  0.00    +0.000 OA
ATOM      5  N   UNL     1       5.012   5.525  17.400  0.00  0.00    +0.000 N 
ATOM      6  H   UNL     1       4.733   6.475  17.193  0.00  0.00    +0.000 HD
BRANCH   5   7
ATOM      7  C   UNL     1       6.354   5.097  17.026  0.00  0.00    +0.000 C 
ATOM      8  C   UNL     1       7.126   6.251  16.375  0.00  0.00    +0.000 C 
ATOM      9  C   UNL     1       7.341   7.399  17.360  0.00  0.00    +0.000 C 
ATOM     10  C   UNL     1       8.055   6.931  18.627  0.00  0.00    +0.000 C 
ATOM     11  C   UNL     1       7.406   5.705  19.267  0.00  0.00    +0.000 C 
ATOM     12  C   UNL     1       7.120   4.591  18.256  0.00  0.00    +0.000 C 
ENDBRANCH   5   7
ENDBRANCH   2   3
BRANCH   2  13
ATOM     13  O   UNL     1       2.710   6.453  18.732  0.00  0.00    +0.000 OA
BRANCH  13  14
ATOM     14  C   UNL     1       2.583   7.693  18.199  0.00  0.00    +0.000 C 
ATOM     15  O   UNL     1       3.130   8.093  17.187  0.00  0.00    +0.000 OA
BRANCH  14  16
ATOM     16  C   UNL     1       1.703   8.543  19.051  0.00  0.00    +0.000 A 
ATOM     17  C   UNL     1       0.905   9.579  18.514  0.00  0.00    +0.000 A 
ATOM     18  C   UNL     1       0.057  10.329  19.336  0.00  0.00    +0.000 A 
ATOM     19  C   UNL     1       0.033  10.028  20.681  0.00  0.00    +0.000 A 
ATOM     20  C   UNL     1       0.817   9.030  21.213  0.00  0.00    +0.000 A 
ATOM     21  C   UNL     1       1.662   8.271  20.429  0.00  0.00    +0.000 A 
ATOM     22  O   UNL     1       0.646   8.899  22.556  0.00  0.00    +0.000 OA
ATOM     23  C   UNL     1      -0.326   9.935  22.811  0.00  0.00    +0.000 C 
ATOM     24  O   UNL     1      -0.732  10.642  21.620  0.00  0.00    +0.000 OA
ENDBRANCH  14  16
ENDBRANCH  13  14
ENDBRANCH   2  13
TORSDOF 5
ENDMDL
MODEL 9
REMARK VINA RESULT:      -6.8      1.958      3.259
REMARK  Name = 
REMARK  6 active torsions:
REMARK  status: ('A' for Active; 'I' for Inactive)
REMARK    1  A    between atoms: C_1  and  C_2
REMARK    2  A    between atoms: C_2  and  O_3
REMARK    3  A    between atoms: C_2  and  C_15
REMARK    4  A    between atoms: O_3  and  C_4
REMARK    5  A    between atoms: C_4  and  C_6
REMARK    6  A    between atoms: N_17  and  C_18
REMARK                            x       y       z     vdW  Elec       q    Type
REMARK                         _______ _______ _______ _____ _____    ______ ____
ROOT
ATOM      1  C   UNL     1       1.952   5.148  20.677  0.00  0.00    +0.000 C 
ATOM      2  C   UNL     1       2.075   5.858  19.336  0.00  0.00    +0.000 C 
ENDROOT
BRANCH   2   3
ATOM      3  C   UNL     1       2.951   5.032  18.371  0.00  0.00    +0.000 C 
ATOM      4  O   UNL     1       2.495   4.269  17.523  0.00  0.00    +0.000 OA
ATOM      5  N   UNL     1       4.299   5.294  18.502  0.00  0.00    +0.000 N 
ATOM      6  H   UNL     1       4.537   6.057  19.123  0.00  0.00    +0.000 HD
BRANCH   5   7
ATOM      7  C   UNL     1       5.312   4.816  17.569  0.00  0.00    +0.000 C 
ATOM      8  C   UNL     1       5.521   5.827  16.435  0.00  0.00    +0.000 C 
ATOM      9  C   UNL     1       6.071   7.151  16.967  0.00  0.00    +0.000 C 
ATOM     10  C   UNL     1       7.371   6.949  17.745  0.00  0.00    +0.000 C 
ATOM     11  C   UNL     1       7.269   5.867  18.818  0.00  0.00    +0.000 C 
ATOM     12  C   UNL     1       6.641   4.572  18.295  0.00  0.00    +0.000 C 
ENDBRANCH   5   7
ENDBRANCH   2   3
BRANCH   2  13
ATOM     13  O   UNL     1       2.661   7.166  19.513  0.00  0.00    +0.000 OA
BRANCH  13  14
ATOM     14  C   UNL     1       2.183   8.146  18.708  0.00  0.00    +0.000 C 
ATOM     15  O   UNL     1       2.484   8.319  17.540  0.00  0.00    +0.000 OA
BRANCH  14  16
ATOM     16  C   UNL     1       1.256   9.039  19.461  0.00  0.00    +0.000 A 
ATOM     17  C   UNL     1       0.351   9.909  18.810  0.00  0.00    +0.000 A 
ATOM     18  C   UNL     1      -0.537  10.700  19.546  0.00  0.00    +0.000 A 
ATOM     19  C   UNL     1      -0.493  10.607  20.921  0.00  0.00    +0.000 A 
ATOM     20  C   UNL     1       0.393   9.773  21.561  0.00  0.00    +0.000 A 
ATOM     21  C   UNL     1       1.281   8.978  20.865  0.00  0.00    +0.000 A 
ATOM     22  O   UNL     1       0.275   9.835  22.915  0.00  0.00    +0.000 OA
ATOM     23  C   UNL     1      -0.779  10.810  23.054  0.00  0.00    +0.000 C 
ATOM     24  O   UNL     1      -1.283  11.290  21.789  0.00  0.00    +0.000 OA
ENDBRANCH  14  16
ENDBRANCH  13  14
ENDBRANCH   2  13
TORSDOF 5
ENDMDL
