MODEL 1
REMARK VINA RESULT:      -7.6      0.000      0.000
REMARK  Name = 
REMARK  12 active torsions:
REMARK  status: ('A' for Active; 'I' for Inactive)
REMARK    1  A    between atoms: C_1  and  C_2
REMARK    2  A    between atoms: C_2  and  C_3
REMARK    3  A    between atoms: C_3  and  C_4
REMARK    4  A    between atoms: C_4  and  C_5
REMARK    5  A    between atoms: C_5  and  O_6
REMARK    6  A    between atoms: O_6  and  C_7
REMARK    7  A    between atoms: C_7  and  C_9
REMARK    8  A    between atoms: C_9  and  C_10
REMARK    9  A    between atoms: C_10  and  C_11
REMARK   10  A    between atoms: C_11  and  N_12
REMARK   11  A    between atoms: C_13  and  C_15
REMARK   12  A    between atoms: C_15  and  C_16
REMARK                            x       y       z     vdW  Elec       q    Type
REMARK                         _______ _______ _______ _____ _____    ______ ____
ROOT
ATOM      1  N   UNL     1       4.494   5.861  16.600  0.00  0.00    +0.000 N 
ATOM      2  C   UNL     1       4.014   6.467  17.747  0.00  0.00    +0.000 C 
ATOM      3  O   UNL     1       4.696   7.220  18.431  0.00  0.00    +0.000 OA
ATOM      4  H   UNL     1       3.871   5.325  16.008  0.00  0.00    +0.000 HD
ENDROOT
BRANCH   1   5
ATOM      5  C   UNL     1       5.854   6.136  16.179  0.00  0.00    +0.000 C 
BRANCH   5   6
ATOM      6  C   UNL     1       6.759   4.915  16.137  0.00  0.00    +0.000 C 
BRANCH   6   7
ATOM      7  C   UNL     1       6.492   4.097  14.869  0.00  0.00    +0.000 C 
BRANCH   7   8
ATOM      8  C   UNL     1       7.208   4.725  13.706  0.00  0.00    +0.000 C 
ATOM      9  O   UNL     1       8.006   5.646  13.816  0.00  0.00    +0.000 OA
BRANCH   8  10
ATOM     10  O   UNL     1       6.727   4.222  12.536  0.00  0.00    +0.000 OA
BRANCH  10  11
ATOM     11  C   UNL     1       6.233   2.879  12.610  0.00  0.00    +0.000 C 
BRANCH  11  12
ATOM     12  C   UNL     1       5.335   2.535  11.429  0.00  0.00    +0.000 C 
BRANCH  12  13
ATOM     13  C   UNL     1       4.162   3.517  11.383  0.00  0.00    +0.000 C 
BRANCH  13  15
ATOM     14  C   UNL     1       2.780   4.351   9.459  0.00  0.00    +0.000 C 
ATOM     15  C   UNL     1       3.135   3.147  10.317  0.00  0.00    +0.000 C 
ENDBRANCH  13  15
ENDBRANCH  12  13
ENDBRANCH  11  12
ENDBRANCH  10  11
ENDBRANCH   8  10
ENDBRANCH   7   8
ENDBRANCH   6   7
ENDBRANCH   5   6
ENDBRANCH   1   5
BRANCH   2  16
ATOM     16  C   UNL     1       2.578   6.134  18.121  0.00  0.00    +0.000 C 
BRANCH  16  17
ATOM     17  C   UNL     1       2.351   4.736  18.741  0.00  0.00    +0.000 C 
ATOM     18  C   UNL     1       1.742   3.751  17.715  0.00  0.00    +0.000 C 
ATOM     19  C   UNL     1       1.578   2.349  18.331  0.00  0.00    +0.000 C 
ATOM     20  C   UNL     1       2.948   1.820  18.781  0.00  0.00    +0.000 C 
ATOM     21  C   UNL     1       3.553   2.763  19.834  0.00  0.00    +0.000 C 
ATOM     22  C   UNL     1       2.612   2.863  21.045  0.00  0.00    +0.000 C 
ATOM     23  C   UNL     1       1.242   3.395  20.598  0.00  0.00    +0.000 C 
ATOM     24  C   UNL     1       0.649   2.437  19.552  0.00  0.00    +0.000 C 
ATOM     25  C   UNL     1       1.415   4.793  19.975  0.00  0.00    +0.000 C 
ATOM     26  C   UNL     1       3.722   4.159  19.208  0.00  0.00    +0.000 C 
ENDBRANCH  16  17
ENDBRANCH   2  16
TORSDOF 11
ENDMDL
MODEL 2
REMARK VINA RESULT:      -7.4      1.468      2.470
REMARK  Name = 
REMARK  12 active torsions:
REMARK  status: ('A' for Active; 'I' for Inactive)
REMARK    1  A    between atoms: C_1  and  C_2
REMARK    2  A    between atoms: C_2  and  C_3
REMARK    3  A    between atoms: C_3  and  C_4
REMARK    4  A    between atoms: C_4  and  C_5
REMARK    5  A    between atoms: C_5  and  O_6
REMARK    6  A    between atoms: O_6  and  C_7
REMARK    7  A    between atoms: C_7  and  C_9
REMARK    8  A    between atoms: C_9  and  C_10
REMARK    9  A    between atoms: C_10  and  C_11
REMARK   10  A    between atoms: C_11  and  N_12
REMARK   11  A    between atoms: C_13  and  C_15
REMARK   12  A    between atoms: C_15  and  C_16
REMARK                            x       y       z     vdW  Elec       q    Type
REMARK                         _______ _______ _______ _____ _____    ______ ____
ROOT
ATOM      1  N   UNL     1       6.114   4.074  17.817  0.00  0.00    +0.000 N 
ATOM      2  C   UNL     1       5.964   4.313  19.171  0.00  0.00    +0.000 C 
ATOM      3  O   UNL     1       6.496   5.259  19.738  0.00  0.00    +0.000 OA
ATOM      4  H   UNL     1       5.579   3.341  17.367  0.00  0.00    +0.000 HD
ENDROOT
BRANCH   1   5
ATOM      5  C   UNL     1       6.922   4.985  17.030  0.00  0.00    +0.000 C 
BRANCH   5   6
ATOM      6  C   UNL     1       6.128   6.039  16.276  0.00  0.00    +0.000 C 
BRANCH   6   7
ATOM      7  C   UNL     1       5.681   5.496  14.914  0.00  0.00    +0.000 C 
BRANCH   7   8
ATOM      8  C   UNL     1       6.868   4.933  14.183  0.00  0.00    +0.000 C 
ATOM      9  O   UNL     1       7.891   5.565  13.960  0.00  0.00    +0.000 OA
BRANCH   8  10
ATOM     10  O   UNL     1       6.570   3.698  13.693  0.00  0.00    +0.000 OA
BRANCH  10  11
ATOM     11  C   UNL     1       6.535   3.604  12.265  0.00  0.00    +0.000 C 
BRANCH  11  12
ATOM     12  C   UNL     1       5.123   3.374  11.741  0.00  0.00    +0.000 C 
BRANCH  12  13
ATOM     13  C   UNL     1       4.997   1.932  11.245  0.00  0.00    +0.000 C 
BRANCH  13  15
ATOM     14  C   UNL     1       6.182  -0.283  11.244  0.00  0.00    +0.000 C 
ATOM     15  C   UNL     1       6.346   1.227  11.155  0.00  0.00    +0.000 C 
ENDBRANCH  13  15
ENDBRANCH  12  13
ENDBRANCH  11  12
ENDBRANCH  10  11
ENDBRANCH   8  10
ENDBRANCH   7   8
ENDBRANCH   6   7
ENDBRANCH   5   6
ENDBRANCH   1   5
BRANCH   2  16
ATOM     16  C   UNL     1       5.098   3.317  19.928  0.00  0.00    +0.000 C 
BRANCH  16  17
ATOM     17  C   UNL     1       3.585   3.367  19.616  0.00  0.00    +0.000 C 
ATOM     18  C   UNL     1       3.223   2.470  18.408  0.00  0.00    +0.000 C 
ATOM     19  C   UNL     1       1.705   2.485  18.149  0.00  0.00    +0.000 C 
ATOM     20  C   UNL     1       0.964   1.975  19.393  0.00  0.00    +0.000 C 
ATOM     21  C   UNL     1       1.276   2.879  20.596  0.00  0.00    +0.000 C 
ATOM     22  C   UNL     1       0.843   4.321  20.289  0.00  0.00    +0.000 C 
ATOM     23  C   UNL     1       1.585   4.836  19.047  0.00  0.00    +0.000 C 
ATOM     24  C   UNL     1       1.257   3.925  17.853  0.00  0.00    +0.000 C 
ATOM     25  C   UNL     1       3.104   4.809  19.311  0.00  0.00    +0.000 C 
ATOM     26  C   UNL     1       2.793   2.851  20.855  0.00  0.00    +0.000 C 
ENDBRANCH  16  17
ENDBRANCH   2  16
TORSDOF 11
ENDMDL
MODEL 3
REMARK VINA RESULT:      -7.3      0.865      1.730
REMARK  Name = 
REMARK  12 active torsions:
REMARK  status: ('A' for Active; 'I' for Inactive)
REMARK    1  A    between atoms: C_1  and  C_2
REMARK    2  A    between atoms: C_2  and  C_3
REMARK    3  A    between atoms: C_3  and  C_4
REMARK    4  A    between atoms: C_4  and  C_5
REMARK    5  A    between atoms: C_5  and  O_6
REMARK    6  A    between atoms: O_6  and  C_7
REMARK    7  A    between atoms: C_7  and  C_9
REMARK    8  A    between atoms: C_9  and  C_10
REMARK    9  A    between atoms: C_10  and  C_11
REMARK   10  A    between atoms: C_11  and  N_12
REMARK   11  A    between atoms: C_13  and  C_15
REMARK   12  A    between atoms: C_15  and  C_16
REMARK                            x       y       z     vdW  Elec       q    Type
REMARK                         _______ _______ _______ _____ _____    ______ ____
ROOT
ATOM      1  N   UNL     1       4.432   6.320  17.816  0.00  0.00    +0.000 N 
ATOM      2  C   UNL     1       3.285   7.039  18.101  0.00  0.00    +0.000 C 
ATOM      3  O   UNL     1       2.894   7.964  17.400  0.00  0.00    +0.000 OA
ATOM      4  H   UNL     1       4.668   5.500  18.362  0.00  0.00    +0.000 HD
ENDROOT
BRANCH   1   5
ATOM      5  C   UNL     1       5.196   6.662  16.632  0.00  0.00    +0.000 C 
BRANCH   5   6
ATOM      6  C   UNL     1       6.128   5.563  16.147  0.00  0.00    +0.000 C 
BRANCH   6   7
ATOM      7  C   UNL     1       5.802   5.189  14.698  0.00  0.00    +0.000 C 
BRANCH   7   8
ATOM      8  C   UNL     1       7.078   5.034  13.919  0.00  0.00    +0.000 C 
ATOM      9  O   UNL     1       8.102   5.658  14.161  0.00  0.00    +0.000 OA
BRANCH   8  10
ATOM     10  O   UNL     1       6.871   4.227  12.842  0.00  0.00    +0.000 OA
BRANCH  10  11
ATOM     11  C   UNL     1       5.641   3.494  12.860  0.00  0.00    +0.000 C 
BRANCH  11  12
ATOM     12  C   UNL     1       5.670   2.306  11.907  0.00  0.00    +0.000 C 
BRANCH  12  13
ATOM     13  C   UNL     1       4.662   2.538  10.779  0.00  0.00    +0.000 C 
BRANCH  13  15
ATOM     14  C   UNL     1       3.050   4.169   9.756  0.00  0.00    +0.000 C 
ATOM     15  C   UNL     1       3.789   3.766  11.022  0.00  0.00    +0.000 C 
ENDBRANCH  13  15
ENDBRANCH  12  13
ENDBRANCH  11  12
ENDBRANCH  10  11
ENDBRANCH   8  10
ENDBRANCH   7   8
ENDBRANCH   6   7
ENDBRANCH   5   6
ENDBRANCH   1   5
BRANCH   2  16
ATOM     16  C   UNL     1       2.534   6.620  19.356  0.00  0.00    +0.000 C 
BRANCH  16  17
ATOM     17  C   UNL     1       2.343   5.098  19.548  0.00  0.00    +0.000 C 
ATOM     18  C   UNL     1       1.300   4.789  20.649  0.00  0.00    +0.000 C 
ATOM     19  C   UNL     1       1.079   3.271  20.786  0.00  0.00    +0.000 C 
ATOM     20  C   UNL     1       0.581   2.701  19.450  0.00  0.00    +0.000 C 
ATOM     21  C   UNL     1       1.623   2.959  18.350  0.00  0.00    +0.000 C 
ATOM     22  C   UNL     1       2.957   2.297  18.731  0.00  0.00    +0.000 C 
ATOM     23  C   UNL     1       3.459   2.869  20.065  0.00  0.00    +0.000 C 
ATOM     24  C   UNL     1       2.409   2.597  21.155  0.00  0.00    +0.000 C 
ATOM     25  C   UNL     1       3.669   4.389  19.924  0.00  0.00    +0.000 C 
ATOM     26  C   UNL     1       1.832   4.478  18.212  0.00  0.00    +0.000 C 
ENDBRANCH  16  17
ENDBRANCH   2  16
TORSDOF 11
ENDMDL
MODEL 4
REMARK VINA RESULT:      -7.1      1.654      2.638
REMARK  Name = 
REMARK  12 active torsions:
REMARK  status: ('A' for Active; 'I' for Inactive)
REMARK    1  A    between atoms: C_1  and  C_2
REMARK    2  A    between atoms: C_2  and  C_3
REMARK    3  A    between atoms: C_3  and  C_4
REMARK    4  A    between atoms: C_4  and  C_5
REMARK    5  A    between atoms: C_5  and  O_6
REMARK    6  A    between atoms: O_6  and  C_7
REMARK    7  A    between atoms: C_7  and  C_9
REMARK    8  A    between atoms: C_9  and  C_10
REMARK    9  A    between atoms: C_10  and  C_11
REMARK   10  A    between atoms: C_11  and  N_12
REMARK   11  A    between atoms: C_13  and  C_15
REMARK   12  A    between atoms: C_15  and  C_16
REMARK                            x       y       z     vdW  Elec       q    Type
REMARK                         _______ _______ _______ _____ _____    ______ ____
ROOT
ATOM      1  N   UNL     1       5.291   5.591  18.209  0.00  0.00    +0.000 N 
ATOM      2  C   UNL     1       5.938   4.997  19.278  0.00  0.00    +0.000 C 
ATOM      3  O   UNL     1       7.004   5.412  19.718  0.00  0.00    +0.000 OA
ATOM      4  H   UNL     1       4.365   5.281  17.939  0.00  0.00    +0.000 HD
ENDROOT
BRANCH   1   5
ATOM      5  C   UNL     1       5.886   6.760  17.591  0.00  0.00    +0.000 C 
BRANCH   5   6
ATOM      6  C   UNL     1       5.811   6.775  16.073  0.00  0.00    +0.000 C 
BRANCH   6   7
ATOM      7  C   UNL     1       5.600   5.356  15.535  0.00  0.00    +0.000 C 
BRANCH   7   8
ATOM      8  C   UNL     1       6.934   4.698  15.316  0.00  0.00    +0.000 C 
ATOM      9  O   UNL     1       7.777   4.563  16.192  0.00  0.00    +0.000 OA
BRANCH   8  10
ATOM     10  O   UNL     1       7.106   4.425  13.994  0.00  0.00    +0.000 OA
BRANCH  10  11
ATOM     11  C   UNL     1       6.108   3.578  13.414  0.00  0.00    +0.000 C 
BRANCH  11  12
ATOM     12  C   UNL     1       6.318   3.389  11.917  0.00  0.00    +0.000 C 
BRANCH  12  13
ATOM     13  C   UNL     1       5.594   2.120  11.461  0.00  0.00    +0.000 C 
BRANCH  13  15
ATOM     14  C   UNL     1       6.148  -0.329  11.387  0.00  0.00    +0.000 C 
ATOM     15  C   UNL     1       6.555   1.063  10.926  0.00  0.00    +0.000 C 
ENDBRANCH  13  15
ENDBRANCH  12  13
ENDBRANCH  11  12
ENDBRANCH  10  11
ENDBRANCH   8  10
ENDBRANCH   7   8
ENDBRANCH   6   7
ENDBRANCH   5   6
ENDBRANCH   1   5
BRANCH   2  16
ATOM     16  C   UNL     1       5.250   3.779  19.876  0.00  0.00    +0.000 C 
BRANCH  16  17
ATOM     17  C   UNL     1       3.732   3.664  19.606  0.00  0.00    +0.000 C 
ATOM     18  C   UNL     1       3.040   5.047  19.646  0.00  0.00    +0.000 C 
ATOM     19  C   UNL     1       1.541   4.920  19.317  0.00  0.00    +0.000 C 
ATOM     20  C   UNL     1       1.370   4.314  17.916  0.00  0.00    +0.000 C 
ATOM     21  C   UNL     1       2.015   2.920  17.867  0.00  0.00    +0.000 C 
ATOM     22  C   UNL     1       1.355   2.005  18.912  0.00  0.00    +0.000 C 
ATOM     23  C   UNL     1       1.527   2.607  20.314  0.00  0.00    +0.000 C 
ATOM     24  C   UNL     1       0.872   3.997  20.348  0.00  0.00    +0.000 C 
ATOM     25  C   UNL     1       3.029   2.740  20.633  0.00  0.00    +0.000 C 
ATOM     26  C   UNL     1       3.514   3.056  18.188  0.00  0.00    +0.000 C 
ENDBRANCH  16  17
ENDBRANCH   2  16
TORSDOF 11
ENDMDL
MODEL 5
REMARK VINA RESULT:      -7.1      1.513      2.246
REMARK  Name = 
REMARK  12 active torsions:
REMARK  status: ('A' for Active; 'I' for Inactive)
REMARK    1  A    between atoms: C_1  and  C_2
REMARK    2  A    between atoms: C_2  and  C_3
REMARK    3  A    between atoms: C_3  and  C_4
REMARK    4  A    between atoms: C_4  and  C_5
REMARK    5  A    between atoms: C_5  and  O_6
REMARK    6  A    between atoms: O_6  and  C_7
REMARK    7  A    between atoms: C_7  and  C_9
REMARK    8  A    between atoms: C_9  and  C_10
REMARK    9  A    between atoms: C_10  and  C_11
REMARK   10  A    between atoms: C_11  and  N_12
REMARK   11  A    between atoms: C_13  and  C_15
REMARK   12  A    between atoms: C_15  and  C_16
REMARK                            x       y       z     vdW  Elec       q    Type
REMARK                         _______ _______ _______ _____ _____    ______ ____
ROOT
ATOM      1  N   UNL     1       3.779   6.615  17.887  0.00  0.00    +0.000 N 
ATOM      2  C   UNL     1       2.769   7.380  18.442  0.00  0.00    +0.000 C 
ATOM      3  O   UNL     1       2.579   8.549  18.130  0.00  0.00    +0.000 OA
ATOM      4  H   UNL     1       3.842   5.626  18.096  0.00  0.00    +0.000 HD
ENDROOT
BRANCH   1   5
ATOM      5  C   UNL     1       4.640   7.212  16.884  0.00  0.00    +0.000 C 
BRANCH   5   6
ATOM      6  C   UNL     1       6.077   6.720  16.916  0.00  0.00    +0.000 C 
BRANCH   6   7
ATOM      7  C   UNL     1       6.194   5.473  17.799  0.00  0.00    +0.000 C 
BRANCH   7   8
ATOM      8  C   UNL     1       7.409   4.684  17.395  0.00  0.00    +0.000 C 
ATOM      9  O   UNL     1       8.260   4.297  18.184  0.00  0.00    +0.000 OA
BRANCH   8  10
ATOM     10  O   UNL     1       7.483   4.605  16.038  0.00  0.00    +0.000 OA
BRANCH  10  11
ATOM     11  C   UNL     1       6.474   3.796  15.421  0.00  0.00    +0.000 C 
BRANCH  11  12
ATOM     12  C   UNL     1       6.008   4.379  14.094  0.00  0.00    +0.000 C 
BRANCH  12  13
ATOM     13  C   UNL     1       5.986   3.273  13.035  0.00  0.00    +0.000 C 
BRANCH  13  15
ATOM     14  C   UNL     1       4.165   3.106  11.314  0.00  0.00    +0.000 C 
ATOM     15  C   UNL     1       5.482   3.771  11.684  0.00  0.00    +0.000 C 
ENDBRANCH  13  15
ENDBRANCH  12  13
ENDBRANCH  11  12
ENDBRANCH  10  11
ENDBRANCH   8  10
ENDBRANCH   7   8
ENDBRANCH   6   7
ENDBRANCH   5   6
ENDBRANCH   1   5
BRANCH   2  16
ATOM     16  C   UNL     1       1.905   6.684  19.483  0.00  0.00    +0.000 C 
BRANCH  16  17
ATOM     17  C   UNL     1       1.967   5.139  19.484  0.00  0.00    +0.000 C 
ATOM     18  C   UNL     1       1.748   4.560  18.066  0.00  0.00    +0.000 C 
ATOM     19  C   UNL     1       1.872   3.025  18.075  0.00  0.00    +0.000 C 
ATOM     20  C   UNL     1       3.268   2.623  18.571  0.00  0.00    +0.000 C 
ATOM     21  C   UNL     1       3.490   3.153  19.997  0.00  0.00    +0.000 C 
ATOM     22  C   UNL     1       2.420   2.577  20.938  0.00  0.00    +0.000 C 
ATOM     23  C   UNL     1       1.022   2.981  20.446  0.00  0.00    +0.000 C 
ATOM     24  C   UNL     1       0.814   2.438  19.024  0.00  0.00    +0.000 C 
ATOM     25  C   UNL     1       0.909   4.518  20.431  0.00  0.00    +0.000 C 
ATOM     26  C   UNL     1       3.375   4.687  19.978  0.00  0.00    +0.000 C 
ENDBRANCH  16  17
ENDBRANCH   2  16
TORSDOF 11
ENDMDL
MODEL 6
REMARK VINA RESULT:      -7.1      3.870      6.557
REMARK  Name = 
REMARK  12 active torsions:
REMARK  status: ('A' for Active; 'I' for Inactive)
REMARK    1  A    between atoms: C_1  and  C_2
REMARK    2  A    between atoms: C_2  and  C_3
REMARK    3  A    between atoms: C_3  and  C_4
REMARK    4  A    between atoms: C_4  and  C_5
REMARK    5  A    between atoms: C_5  and  O_6
REMARK    6  A    between atoms: O_6  and  C_7
REMARK    7  A    between atoms: C_7  and  C_9
REMARK    8  A    between atoms: C_9  and  C_10
REMARK    9  A    between atoms: C_10  and  C_11
REMARK   10  A    between atoms: C_11  and  N_12
REMARK   11  A    between atoms: C_13  and  C_15
REMARK   12  A    between atoms: C_15  and  C_16
REMARK                            x       y       z     vdW  Elec       q    Type
REMARK                         _______ _______ _______ _____ _____    ______ ____
ROOT
ATOM      1  N   UNL     1       6.256   3.922  18.197  0.00  0.00    +0.000 N 
ATOM      2  C   UNL     1       5.159   4.121  17.378  0.00  0.00    +0.000 C 
ATOM      3  O   UNL     1       5.100   5.033  16.563  0.00  0.00    +0.000 OA
ATOM      4  H   UNL     1       6.309   3.099  18.786  0.00  0.00    +0.000 HD
ENDROOT
BRANCH   1   5
ATOM      5  C   UNL     1       7.389   4.819  18.080  0.00  0.00    +0.000 C 
BRANCH   5   6
ATOM      6  C   UNL     1       7.388   5.967  19.077  0.00  0.00    +0.000 C 
BRANCH   6   7
ATOM      7  C   UNL     1       8.317   7.088  18.600  0.00  0.00    +0.000 C 
BRANCH   7   8
ATOM      8  C   UNL     1       7.594   7.950  17.603  0.00  0.00    +0.000 C 
ATOM      9  O   UNL     1       7.038   7.514  16.605  0.00  0.00    +0.000 OA
BRANCH   8  10
ATOM     10  O   UNL     1       7.784   9.265  17.902  0.00  0.00    +0.000 OA
BRANCH  10  11
ATOM     11  C   UNL     1       8.891   9.537  18.769  0.00  0.00    +0.000 C 
BRANCH  11  12
ATOM     12  C   UNL     1       9.159  11.031  18.902  0.00  0.00    +0.000 C 
BRANCH  12  13
ATOM     13  C   UNL     1      10.654  11.258  19.136  0.00  0.00    +0.000 C 
BRANCH  13  15
ATOM     14  C   UNL     1      12.042  13.056  18.065  0.00  0.00    +0.000 C 
ATOM     15  C   UNL     1      11.380  11.701  17.870  0.00  0.00    +0.000 C 
ENDBRANCH  13  15
ENDBRANCH  12  13
ENDBRANCH  11  12
ENDBRANCH  10  11
ENDBRANCH   8  10
ENDBRANCH   7   8
ENDBRANCH   6   7
ENDBRANCH   5   6
ENDBRANCH   1   5
BRANCH   2  16
ATOM     16  C   UNL     1       4.012   3.137  17.555  0.00  0.00    +0.000 C 
BRANCH  16  17
ATOM     17  C   UNL     1       3.123   3.358  18.800  0.00  0.00    +0.000 C 
ATOM     18  C   UNL     1       2.973   4.862  19.132  0.00  0.00    +0.000 C 
ATOM     19  C   UNL     1       2.037   5.067  20.338  0.00  0.00    +0.000 C 
ATOM     20  C   UNL     1       0.652   4.483  20.021  0.00  0.00    +0.000 C 
ATOM     21  C   UNL     1       0.773   2.979  19.730  0.00  0.00    +0.000 C 
ATOM     22  C   UNL     1       1.373   2.259  20.949  0.00  0.00    +0.000 C 
ATOM     23  C   UNL     1       2.760   2.839  21.266  0.00  0.00    +0.000 C 
ATOM     24  C   UNL     1       2.620   4.341  21.561  0.00  0.00    +0.000 C 
ATOM     25  C   UNL     1       3.688   2.639  20.052  0.00  0.00    +0.000 C 
ATOM     26  C   UNL     1       1.702   2.782  18.518  0.00  0.00    +0.000 C 
ENDBRANCH  16  17
ENDBRANCH   2  16
TORSDOF 11
ENDMDL
MODEL 7
REMARK VINA RESULT:      -7.1      1.562      2.441
REMARK  Name = 
REMARK  12 active torsions:
REMARK  status: ('A' for Active; 'I' for Inactive)
REMARK    1  A    between atoms: C_1  and  C_2
REMARK    2  A    between atoms: C_2  and  C_3
REMARK    3  A    between atoms: C_3  and  C_4
REMARK    4  A    between atoms: C_4  and  C_5
REMARK    5  A    between atoms: C_5  and  O_6
REMARK    6  A    between atoms: O_6  and  C_7
REMARK    7  A    between atoms: C_7  and  C_9
REMARK    8  A    between atoms: C_9  and  C_10
REMARK    9  A    between atoms: C_10  and  C_11
REMARK   10  A    between atoms: C_11  and  N_12
REMARK   11  A    between atoms: C_13  and  C_15
REMARK   12  A    between atoms: C_15  and  C_16
REMARK                            x       y       z     vdW  Elec       q    Type
REMARK                         _______ _______ _______ _____ _____    ______ ____
ROOT
ATOM      1  N   UNL     1       5.816   5.237  17.385  0.00  0.00    +0.000 N 
ATOM      2  C   UNL     1       5.746   5.388  18.759  0.00  0.00    +0.000 C 
ATOM      3  O   UNL     1       6.712   5.220  19.493  0.00  0.00    +0.000 OA
ATOM      4  H   UNL     1       5.023   5.481  16.804  0.00  0.00    +0.000 HD
ENDROOT
BRANCH   1   5
ATOM      5  C   UNL     1       7.087   4.879  16.785  0.00  0.00    +0.000 C 
BRANCH   5   6
ATOM      6  C   UNL     1       6.976   4.262  15.400  0.00  0.00    +0.000 C 
BRANCH   6   7
ATOM      7  C   UNL     1       6.670   5.343  14.358  0.00  0.00    +0.000 C 
BRANCH   7   8
ATOM      8  C   UNL     1       7.739   5.338  13.300  0.00  0.00    +0.000 C 
ATOM      9  O   UNL     1       8.871   5.768  13.476  0.00  0.00    +0.000 OA
BRANCH   8  10
ATOM     10  O   UNL     1       7.214   4.932  12.111  0.00  0.00    +0.000 OA
BRANCH  10  11
ATOM     11  C   UNL     1       7.086   3.514  11.957  0.00  0.00    +0.000 C 
BRANCH  11  12
ATOM     12  C   UNL     1       5.636   3.057  12.059  0.00  0.00    +0.000 C 
BRANCH  12  13
ATOM     13  C   UNL     1       5.426   1.835  11.162  0.00  0.00    +0.000 C 
BRANCH  13  15
ATOM     14  C   UNL     1       6.113  -0.576  11.314  0.00  0.00    +0.000 C 
ATOM     15  C   UNL     1       6.599   0.862  11.220  0.00  0.00    +0.000 C 
ENDBRANCH  13  15
ENDBRANCH  12  13
ENDBRANCH  11  12
ENDBRANCH  10  11
ENDBRANCH   8  10
ENDBRANCH   7   8
ENDBRANCH   6   7
ENDBRANCH   5   6
ENDBRANCH   1   5
BRANCH   2  16
ATOM     16  C   UNL     1       4.381   5.768  19.314  0.00  0.00    +0.000 C 
BRANCH  16  17
ATOM     17  C   UNL     1       3.396   4.598  19.536  0.00  0.00    +0.000 C 
ATOM     18  C   UNL     1       4.140   3.277  19.842  0.00  0.00    +0.000 C 
ATOM     19  C   UNL     1       3.144   2.136  20.119  0.00  0.00    +0.000 C 
ATOM     20  C   UNL     1       2.260   2.503  21.320  0.00  0.00    +0.000 C 
ATOM     21  C   UNL     1       1.478   3.792  21.020  0.00  0.00    +0.000 C 
ATOM     22  C   UNL     1       0.601   3.590  19.774  0.00  0.00    +0.000 C 
ATOM     23  C   UNL     1       1.482   3.226  18.570  0.00  0.00    +0.000 C 
ATOM     24  C   UNL     1       2.251   1.933  18.884  0.00  0.00    +0.000 C 
ATOM     25  C   UNL     1       2.483   4.367  18.305  0.00  0.00    +0.000 C 
ATOM     26  C   UNL     1       2.481   4.929  20.754  0.00  0.00    +0.000 C 
ENDBRANCH  16  17
ENDBRANCH   2  16
TORSDOF 11
ENDMDL
MODEL 8
REMARK VINA RESULT:      -7.0      1.254      2.288
REMARK  Name = 
REMARK  12 active torsions:
REMARK  status: ('A' for Active; 'I' for Inactive)
REMARK    1  A    between atoms: C_1  and  C_2
REMARK    2  A    between atoms: C_2  and  C_3
REMARK    3  A    between atoms: C_3  and  C_4
REMARK    4  A    between atoms: C_4  and  C_5
REMARK    5  A    between atoms: C_5  and  O_6
REMARK    6  A    between atoms: O_6  and  C_7
REMARK    7  A    between atoms: C_7  and  C_9
REMARK    8  A    between atoms: C_9  and  C_10
REMARK    9  A    between atoms: C_10  and  C_11
REMARK   10  A    between atoms: C_11  and  N_12
REMARK   11  A    between atoms: C_13  and  C_15
REMARK   12  A    between atoms: C_15  and  C_16
REMARK                            x       y       z     vdW  Elec       q    Type
REMARK                         _______ _______ _______ _____ _____    ______ ____
ROOT
ATOM      1  N   UNL     1       5.183   6.197  18.349  0.00  0.00    +0.000 N 
ATOM      2  C   UNL     1       3.970   6.663  17.876  0.00  0.00    +0.000 C 
ATOM      3  O   UNL     1       3.873   7.337  16.858  0.00  0.00    +0.000 OA
ATOM      4  H   UNL     1       5.212   5.560  19.137  0.00  0.00    +0.000 HD
ENDROOT
BRANCH   1   5
ATOM      5  C   UNL     1       6.390   6.504  17.606  0.00  0.00    +0.000 C 
BRANCH   5   6
ATOM      6  C   UNL     1       7.380   5.354  17.511  0.00  0.00    +0.000 C 
BRANCH   6   7
ATOM      7  C   UNL     1       6.827   4.248  16.606  0.00  0.00    +0.000 C 
BRANCH   7   8
ATOM      8  C   UNL     1       6.909   4.685  15.170  0.00  0.00    +0.000 C 
ATOM      9  O   UNL     1       7.682   5.542  14.764  0.00  0.00    +0.000 OA
BRANCH   8  10
ATOM     10  O   UNL     1       5.913   4.103  14.449  0.00  0.00    +0.000 OA
BRANCH  10  11
ATOM     11  C   UNL     1       6.310   3.580  13.176  0.00  0.00    +0.000 C 
BRANCH  11  12
ATOM     12  C   UNL     1       5.262   3.835  12.101  0.00  0.00    +0.000 C 
BRANCH  12  13
ATOM     13  C   UNL     1       4.895   2.511  11.427  0.00  0.00    +0.000 C 
BRANCH  13  15
ATOM     14  C   UNL     1       7.201   1.754  10.784  0.00  0.00    +0.000 C 
ATOM     15  C   UNL     1       5.968   1.444  11.619  0.00  0.00    +0.000 C 
ENDBRANCH  13  15
ENDBRANCH  12  13
ENDBRANCH  11  12
ENDBRANCH  10  11
ENDBRANCH   8  10
ENDBRANCH   7   8
ENDBRANCH   6   7
ENDBRANCH   5   6
ENDBRANCH   1   5
BRANCH   2  16
ATOM     16  C   UNL     1       2.749   6.297  18.707  0.00  0.00    +0.000 C 
BRANCH  16  17
ATOM     17  C   UNL     1       2.548   4.788  18.977  0.00  0.00    +0.000 C 
ATOM     18  C   UNL     1       3.810   4.148  19.602  0.00  0.00    +0.000 C 
ATOM     19  C   UNL     1       3.571   2.660  19.918  0.00  0.00    +0.000 C 
ATOM     20  C   UNL     1       2.401   2.523  20.903  0.00  0.00    +0.000 C 
ATOM     21  C   UNL     1       1.125   3.116  20.284  0.00  0.00    +0.000 C 
ATOM     22  C   UNL     1       0.791   2.380  18.976  0.00  0.00    +0.000 C 
ATOM     23  C   UNL     1       1.959   2.518  17.988  0.00  0.00    +0.000 C 
ATOM     24  C   UNL     1       3.224   1.915  18.620  0.00  0.00    +0.000 C 
ATOM     25  C   UNL     1       2.198   4.009  17.683  0.00  0.00    +0.000 C 
ATOM     26  C   UNL     1       1.368   4.605  19.979  0.00  0.00    +0.000 C 
ENDBRANCH  16  17
ENDBRANCH   2  16
TORSDOF 11
ENDMDL
MODEL 9
REMARK VINA RESULT:      -7.0      1.274      1.611
REMARK  Name = 
REMARK  12 active torsions:
REMARK  status: ('A' for Active; 'I' for Inactive)
REMARK    1  A    between atoms: C_1  and  C_2
REMARK    2  A    between atoms: C_2  and  C_3
REMARK    3  A    between atoms: C_3  and  C_4
REMARK    4  A    between atoms: C_4  and  C_5
REMARK    5  A    between atoms: C_5  and  O_6
REMARK    6  A    between atoms: O_6  and  C_7
REMARK    7  A    between atoms: C_7  and  C_9
REMARK    8  A    between atoms: C_9  and  C_10
REMARK    9  A    between atoms: C_10  and  C_11
REMARK   10  A    between atoms: C_11  and  N_12
REMARK   11  A    between atoms: C_13  and  C_15
REMARK   12  A    between atoms: C_15  and  C_16
REMARK                            x       y       z     vdW  Elec       q    Type
REMARK                         _______ _______ _______ _____ _____    ______ ____
ROOT
ATOM      1  N   UNL     1       4.394   6.629  17.939  0.00  0.00    +0.000 N 
ATOM      2  C   UNL     1       3.134   7.129  18.212  0.00  0.00    +0.000 C 
ATOM      3  O   UNL     1       2.581   7.955  17.496  0.00  0.00    +0.000 OA
ATOM      4  H   UNL     1       4.775   5.875  18.498  0.00  0.00    +0.000 HD
ENDROOT
BRANCH   1   5
ATOM      5  C   UNL     1       5.087   7.087  16.750  0.00  0.00    +0.000 C 
BRANCH   5   6
ATOM      6  C   UNL     1       6.496   6.540  16.593  0.00  0.00    +0.000 C 
BRANCH   6   7
ATOM      7  C   UNL     1       6.525   5.041  16.907  0.00  0.00    +0.000 C 
BRANCH   7   8
ATOM      8  C   UNL     1       5.925   4.276  15.760  0.00  0.00    +0.000 C 
ATOM      9  O   UNL     1       5.526   3.123  15.847  0.00  0.00    +0.000 OA
BRANCH   8  10
ATOM     10  O   UNL     1       6.034   4.998  14.611  0.00  0.00    +0.000 OA
BRANCH  10  11
ATOM     11  C   UNL     1       6.860   4.409  13.600  0.00  0.00    +0.000 C 
BRANCH  11  12
ATOM     12  C   UNL     1       6.122   3.329  12.819  0.00  0.00    +0.000 C 
BRANCH  12  13
ATOM     13  C   UNL     1       4.967   3.965  12.042  0.00  0.00    +0.000 C 
BRANCH  13  15
ATOM     14  C   UNL     1       3.227   3.635  10.261  0.00  0.00    +0.000 C 
ATOM     15  C   UNL     1       4.193   2.945  11.213  0.00  0.00    +0.000 C 
ENDBRANCH  13  15
ENDBRANCH  12  13
ENDBRANCH  11  12
ENDBRANCH  10  11
ENDBRANCH   8  10
ENDBRANCH   7   8
ENDBRANCH   6   7
ENDBRANCH   5   6
ENDBRANCH   1   5
BRANCH   2  16
ATOM     16  C   UNL     1       2.469   6.598  19.473  0.00  0.00    +0.000 C 
BRANCH  16  17
ATOM     17  C   UNL     1       2.271   5.066  19.535  0.00  0.00    +0.000 C 
ATOM     18  C   UNL     1       1.876   4.487  18.156  0.00  0.00    +0.000 C 
ATOM     19  C   UNL     1       1.741   2.954  18.222  0.00  0.00    +0.000 C 
ATOM     20  C   UNL     1       3.076   2.337  18.662  0.00  0.00    +0.000 C 
ATOM     21  C   UNL     1       3.466   2.867  20.051  0.00  0.00    +0.000 C 
ATOM     22  C   UNL     1       2.371   2.512  21.069  0.00  0.00    +0.000 C 
ATOM     23  C   UNL     1       1.034   3.131  20.634  0.00  0.00    +0.000 C 
ATOM     24  C   UNL     1       0.656   2.586  19.248  0.00  0.00    +0.000 C 
ATOM     25  C   UNL     1       1.180   4.663  20.561  0.00  0.00    +0.000 C 
ATOM     26  C   UNL     1       3.609   4.397  19.974  0.00  0.00    +0.000 C 
ENDBRANCH  16  17
ENDBRANCH   2  16
TORSDOF 11
ENDMDL
