MODEL 1
REMARK VINA RESULT:      -7.9      0.000      0.000
REMARK  Name = 
REMARK  11 active torsions:
REMARK  status: ('A' for Active; 'I' for Inactive)
REMARK    1  A    between atoms: C_1  and  O_2
REMARK    2  A    between atoms: O_2  and  C_3
REMARK    3  A    between atoms: C_8  and  C_9
REMARK    4  A    between atoms: C_12  and  C_14
REMARK    5  A    between atoms: C_14  and  O_15
REMARK    6  A    between atoms: O_15  and  C_16
REMARK    7  A    between atoms: C_16  and  C_18
REMARK    8  A    between atoms: C_18  and  C_19
REMARK    9  A    between atoms: C_19  and  S_20
REMARK   10  A    between atoms: S_20  and  C_23
REMARK   11  A    between atoms: C_26  and  C_27
REMARK                            x       y       z     vdW  Elec       q    Type
REMARK                         _______ _______ _______ _____ _____    ______ ____
ROOT
ATOM      1  C   UNL     1       7.945   6.436  18.664  0.00  0.00    +0.000 C 
ENDROOT
BRANCH   1   5
ATOM      2  C   UNL     1       8.842  10.073  18.282  0.00  0.00    +0.000 C 
ATOM      3  O   UNL     1       8.094  10.575  17.448  0.00  0.00    +0.000 OA
ATOM      4  N   UNL     1       8.822   8.733  18.609  0.00  0.00    +0.000 N 
ATOM      5  C   UNL     1       7.881   7.848  18.107  0.00  0.00    +0.000 C 
ATOM      6  O   UNL     1       7.039   8.107  17.247  0.00  0.00    +0.000 OA
ATOM      7  H   UNL     1       9.486   8.397  19.299  0.00  0.00    +0.000 HD
BRANCH   2  13
ATOM      8  C   UNL     1       9.810  11.403  20.289  0.00  0.00    +0.000 A 
ATOM      9  C   UNL     1      10.854  12.224  20.762  0.00  0.00    +0.000 A 
ATOM     10  C   UNL     1      11.870  12.671  19.913  0.00  0.00    +0.000 A 
ATOM     11  C   UNL     1      11.877  12.288  18.583  0.00  0.00    +0.000 A 
ATOM     12  C   UNL     1      10.876  11.437  18.113  0.00  0.00    +0.000 A 
ATOM     13  C   UNL     1       9.837  10.973  18.952  0.00  0.00    +0.000 A 
BRANCH   8  15
ATOM     14  C   UNL     1       8.613  11.798  22.282  0.00  0.00    +0.000 C 
ATOM     15  O   UNL     1       8.778  10.998  21.105  0.00  0.00    +0.000 OA
ENDBRANCH   8  15
ENDBRANCH   2  13
ENDBRANCH   1   5
BRANCH   1  16
ATOM     16  O   UNL     1       6.785   5.638  18.456  0.00  0.00    +0.000 OA
BRANCH  16  17
ATOM     17  C   UNL     1       6.859   4.737  17.444  0.00  0.00    +0.000 C 
ATOM     18  O   UNL     1       7.856   4.511  16.776  0.00  0.00    +0.000 OA
BRANCH  17  19
ATOM     19  C   UNL     1       5.553   4.009  17.252  0.00  0.00    +0.000 C 
BRANCH  19  20
ATOM     20  C   UNL     1       4.880   3.661  18.574  0.00  0.00    +0.000 C 
BRANCH  20  21
ATOM     21  S   UNL     1       3.120   3.606  18.410  0.00  0.00    +0.000 S 
ATOM     22  O   UNL     1       2.805   3.644  16.993  0.00  0.00    +0.000 OA
ATOM     23  O   UNL     1       2.624   2.540  19.261  0.00  0.00    +0.000 OA
BRANCH  21  24
ATOM     24  C   UNL     1       2.598   5.152  19.113  0.00  0.00    +0.000 A 
ATOM     25  C   UNL     1       2.799   6.335  18.398  0.00  0.00    +0.000 A 
ATOM     26  C   UNL     1       2.357   7.547  18.932  0.00  0.00    +0.000 A 
ATOM     27  C   UNL     1       1.710   7.582  20.175  0.00  0.00    +0.000 A 
ATOM     28  C   UNL     1       1.208   8.878  20.744  0.00  0.00    +0.000 C 
ATOM     29  C   UNL     1       1.509   6.386  20.878  0.00  0.00    +0.000 A 
ATOM     30  C   UNL     1       1.947   5.169  20.350  0.00  0.00    +0.000 A 
ENDBRANCH  21  24
ENDBRANCH  20  21
ENDBRANCH  19  20
ENDBRANCH  17  19
ENDBRANCH  16  17
ENDBRANCH   1  16
TORSDOF 9
ENDMDL
MODEL 2
REMARK VINA RESULT:      -7.8      3.689      5.588
REMARK  Name = 
REMARK  11 active torsions:
REMARK  status: ('A' for Active; 'I' for Inactive)
REMARK    1  A    between atoms: C_1  and  O_2
REMARK    2  A    between atoms: O_2  and  C_3
REMARK    3  A    between atoms: C_8  and  C_9
REMARK    4  A    between atoms: C_12  and  C_14
REMARK    5  A    between atoms: C_14  and  O_15
REMARK    6  A    between atoms: O_15  and  C_16
REMARK    7  A    between atoms: C_16  and  C_18
REMARK    8  A    between atoms: C_18  and  C_19
REMARK    9  A    between atoms: C_19  and  S_20
REMARK   10  A    between atoms: S_20  and  C_23
REMARK   11  A    between atoms: C_26  and  C_27
REMARK                            x       y       z     vdW  Elec       q    Type
REMARK                         _______ _______ _______ _____ _____    ______ ____
ROOT
ATOM      1  C   UNL     1       3.772   1.963  19.647  0.00  0.00    +0.000 C 
ENDROOT
BRANCH   1   5
ATOM      2  C   UNL     1       5.425   4.368  17.268  0.00  0.00    +0.000 C 
ATOM      3  O   UNL     1       5.194   4.004  16.119  0.00  0.00    +0.000 OA
ATOM      4  N   UNL     1       5.017   3.666  18.383  0.00  0.00    +0.000 N 
ATOM      5  C   UNL     1       4.212   2.540  18.312  0.00  0.00    +0.000 C 
ATOM      6  O   UNL     1       3.861   1.971  17.278  0.00  0.00    +0.000 OA
ATOM      7  H   UNL     1       5.264   4.030  19.296  0.00  0.00    +0.000 HD
BRANCH   2  13
ATOM      8  C   UNL     1       7.344   5.804  18.262  0.00  0.00    +0.000 A 
ATOM      9  C   UNL     1       7.984   7.060  18.283  0.00  0.00    +0.000 A 
ATOM     10  C   UNL     1       7.474   8.148  17.569  0.00  0.00    +0.000 A 
ATOM     11  C   UNL     1       6.332   7.996  16.802  0.00  0.00    +0.000 A 
ATOM     12  C   UNL     1       5.717   6.745  16.734  0.00  0.00    +0.000 A 
ATOM     13  C   UNL     1       6.212   5.632  17.449  0.00  0.00    +0.000 A 
BRANCH   8  15
ATOM     14  C   UNL     1       8.403   5.109  20.252  0.00  0.00    +0.000 C 
ATOM     15  O   UNL     1       7.810   4.739  19.001  0.00  0.00    +0.000 OA
ENDBRANCH   8  15
ENDBRANCH   2  13
ENDBRANCH   1   5
BRANCH   1  16
ATOM     16  O   UNL     1       2.381   2.064  19.934  0.00  0.00    +0.000 OA
BRANCH  16  17
ATOM     17  C   UNL     1       2.042   2.913  20.936  0.00  0.00    +0.000 C 
ATOM     18  O   UNL     1       2.533   2.911  22.055  0.00  0.00    +0.000 OA
BRANCH  17  19
ATOM     19  C   UNL     1       0.992   3.902  20.496  0.00  0.00    +0.000 C 
BRANCH  19  20
ATOM     20  C   UNL     1       1.423   5.346  20.718  0.00  0.00    +0.000 C 
BRANCH  20  21
ATOM     21  S   UNL     1       2.484   5.911  19.421  0.00  0.00    +0.000 S 
ATOM     22  O   UNL     1       3.851   5.858  19.910  0.00  0.00    +0.000 OA
ATOM     23  O   UNL     1       2.099   5.233  18.198  0.00  0.00    +0.000 OA
BRANCH  21  24
ATOM     24  C   UNL     1       2.046   7.625  19.255  0.00  0.00    +0.000 A 
ATOM     25  C   UNL     1       2.301   8.286  18.051  0.00  0.00    +0.000 A 
ATOM     26  C   UNL     1       1.925   9.623  17.905  0.00  0.00    +0.000 A 
ATOM     27  C   UNL     1       1.290  10.301  18.955  0.00  0.00    +0.000 A 
ATOM     28  C   UNL     1       0.858  11.731  18.797  0.00  0.00    +0.000 C 
ATOM     29  C   UNL     1       1.035   9.622  20.155  0.00  0.00    +0.000 A 
ATOM     30  C   UNL     1       1.407   8.284  20.308  0.00  0.00    +0.000 A 
ENDBRANCH  21  24
ENDBRANCH  20  21
ENDBRANCH  19  20
ENDBRANCH  17  19
ENDBRANCH  16  17
ENDBRANCH   1  16
TORSDOF 9
ENDMDL
MODEL 3
REMARK VINA RESULT:      -7.7      4.290      7.170
REMARK  Name = 
REMARK  11 active torsions:
REMARK  status: ('A' for Active; 'I' for Inactive)
REMARK    1  A    between atoms: C_1  and  O_2
REMARK    2  A    between atoms: O_2  and  C_3
REMARK    3  A    between atoms: C_8  and  C_9
REMARK    4  A    between atoms: C_12  and  C_14
REMARK    5  A    between atoms: C_14  and  O_15
REMARK    6  A    between atoms: O_15  and  C_16
REMARK    7  A    between atoms: C_16  and  C_18
REMARK    8  A    between atoms: C_18  and  C_19
REMARK    9  A    between atoms: C_19  and  S_20
REMARK   10  A    between atoms: S_20  and  C_23
REMARK   11  A    between atoms: C_26  and  C_27
REMARK                            x       y       z     vdW  Elec       q    Type
REMARK                         _______ _______ _______ _____ _____    ______ ____
ROOT
ATOM      1  C   UNL     1       2.183   5.729  20.896  0.00  0.00    +0.000 C 
ENDROOT
BRANCH   1   5
ATOM      2  C   UNL     1       1.341   9.080  19.400  0.00  0.00    +0.000 C 
ATOM      3  O   UNL     1       1.758   9.110  18.246  0.00  0.00    +0.000 OA
ATOM      4  N   UNL     1       1.544   8.015  20.253  0.00  0.00    +0.000 N 
ATOM      5  C   UNL     1       2.144   6.832  19.852  0.00  0.00    +0.000 C 
ATOM      6  O   UNL     1       2.658   6.623  18.753  0.00  0.00    +0.000 OA
ATOM      7  H   UNL     1       1.179   8.080  21.196  0.00  0.00    +0.000 HD
BRANCH   2  13
ATOM      8  C   UNL     1       0.462  10.691  21.235  0.00  0.00    +0.000 A 
ATOM      9  C   UNL     1      -0.249  11.875  21.518  0.00  0.00    +0.000 A 
ATOM     10  C   UNL     1      -0.880  12.604  20.507  0.00  0.00    +0.000 A 
ATOM     11  C   UNL     1      -0.791  12.181  19.192  0.00  0.00    +0.000 A 
ATOM     12  C   UNL     1      -0.049  11.037  18.892  0.00  0.00    +0.000 A 
ATOM     13  C   UNL     1       0.595  10.282  19.898  0.00  0.00    +0.000 A 
BRANCH   8  15
ATOM     14  C   UNL     1       0.127   9.479  23.231  0.00  0.00    +0.000 C 
ATOM     15  O   UNL     1       1.045   9.937  22.229  0.00  0.00    +0.000 OA
ENDBRANCH   8  15
ENDBRANCH   2  13
ENDBRANCH   1   5
BRANCH   1  16
ATOM     16  O   UNL     1       1.274   4.653  20.692  0.00  0.00    +0.000 OA
BRANCH  16  17
ATOM     17  C   UNL     1       1.677   3.441  21.148  0.00  0.00    +0.000 C 
ATOM     18  O   UNL     1       1.872   3.161  22.321  0.00  0.00    +0.000 OA
BRANCH  17  19
ATOM     19  C   UNL     1       1.833   2.447  20.025  0.00  0.00    +0.000 C 
BRANCH  19  20
ATOM     20  C   UNL     1       3.271   2.347  19.532  0.00  0.00    +0.000 C 
BRANCH  20  21
ATOM     21  S   UNL     1       3.391   2.711  17.806  0.00  0.00    +0.000 S 
ATOM     22  O   UNL     1       3.956   1.547  17.145  0.00  0.00    +0.000 OA
ATOM     23  O   UNL     1       2.125   3.275  17.377  0.00  0.00    +0.000 OA
BRANCH  21  24
ATOM     24  C   UNL     1       4.612   4.001  17.746  0.00  0.00    +0.000 A 
ATOM     25  C   UNL     1       4.828   4.688  16.549  0.00  0.00    +0.000 A 
ATOM     26  C   UNL     1       5.761   5.725  16.508  0.00  0.00    +0.000 A 
ATOM     27  C   UNL     1       6.475   6.084  17.659  0.00  0.00    +0.000 A 
ATOM     28  C   UNL     1       7.461   7.217  17.630  0.00  0.00    +0.000 C 
ATOM     29  C   UNL     1       6.242   5.390  18.855  0.00  0.00    +0.000 A 
ATOM     30  C   UNL     1       5.310   4.351  18.905  0.00  0.00    +0.000 A 
ENDBRANCH  21  24
ENDBRANCH  20  21
ENDBRANCH  19  20
ENDBRANCH  17  19
ENDBRANCH  16  17
ENDBRANCH   1  16
TORSDOF 9
ENDMDL
MODEL 4
REMARK VINA RESULT:      -7.6      3.984      6.521
REMARK  Name = 
REMARK  11 active torsions:
REMARK  status: ('A' for Active; 'I' for Inactive)
REMARK    1  A    between atoms: C_1  and  O_2
REMARK    2  A    between atoms: O_2  and  C_3
REMARK    3  A    between atoms: C_8  and  C_9
REMARK    4  A    between atoms: C_12  and  C_14
REMARK    5  A    between atoms: C_14  and  O_15
REMARK    6  A    between atoms: O_15  and  C_16
REMARK    7  A    between atoms: C_16  and  C_18
REMARK    8  A    between atoms: C_18  and  C_19
REMARK    9  A    between atoms: C_19  and  S_20
REMARK   10  A    between atoms: S_20  and  C_23
REMARK   11  A    between atoms: C_26  and  C_27
REMARK                            x       y       z     vdW  Elec       q    Type
REMARK                         _______ _______ _______ _____ _____    ______ ____
ROOT
ATOM      1  C   UNL     1       2.819   1.730  19.334  0.00  0.00    +0.000 C 
ENDROOT
BRANCH   1   5
ATOM      2  C   UNL     1       5.597   3.786  17.841  0.00  0.00    +0.000 C 
ATOM      3  O   UNL     1       6.466   3.948  18.692  0.00  0.00    +0.000 OA
ATOM      4  N   UNL     1       4.409   3.130  18.085  0.00  0.00    +0.000 N 
ATOM      5  C   UNL     1       4.131   2.495  19.284  0.00  0.00    +0.000 C 
ATOM      6  O   UNL     1       4.834   2.528  20.295  0.00  0.00    +0.000 OA
ATOM      7  H   UNL     1       3.739   3.053  17.327  0.00  0.00    +0.000 HD
BRANCH   2  13
ATOM      8  C   UNL     1       5.951   5.719  16.145  0.00  0.00    +0.000 A 
ATOM      9  C   UNL     1       6.229   6.076  14.810  0.00  0.00    +0.000 A 
ATOM     10  C   UNL     1       6.333   5.110  13.806  0.00  0.00    +0.000 A 
ATOM     11  C   UNL     1       6.188   3.770  14.119  0.00  0.00    +0.000 A 
ATOM     12  C   UNL     1       5.960   3.400  15.445  0.00  0.00    +0.000 A 
ATOM     13  C   UNL     1       5.849   4.358  16.477  0.00  0.00    +0.000 A 
BRANCH   8  15
ATOM     14  C   UNL     1       7.031   7.210  17.620  0.00  0.00    +0.000 C 
ATOM     15  O   UNL     1       5.797   6.665  17.134  0.00  0.00    +0.000 OA
ENDBRANCH   8  15
ENDBRANCH   2  13
ENDBRANCH   1   5
BRANCH   1  16
ATOM     16  O   UNL     1       1.695   2.461  19.813  0.00  0.00    +0.000 OA
BRANCH  16  17
ATOM     17  C   UNL     1       1.751   2.851  21.111  0.00  0.00    +0.000 C 
ATOM     18  O   UNL     1       1.692   2.100  22.073  0.00  0.00    +0.000 OA
BRANCH  17  19
ATOM     19  C   UNL     1       1.928   4.343  21.236  0.00  0.00    +0.000 C 
BRANCH  19  20
ATOM     20  C   UNL     1       1.330   5.100  20.058  0.00  0.00    +0.000 C 
BRANCH  20  21
ATOM     21  S   UNL     1       2.580   5.920  19.113  0.00  0.00    +0.000 S 
ATOM     22  O   UNL     1       3.819   5.858  19.869  0.00  0.00    +0.000 OA
ATOM     23  O   UNL     1       2.508   5.429  17.750  0.00  0.00    +0.000 OA
BRANCH  21  24
ATOM     24  C   UNL     1       2.043   7.614  19.111  0.00  0.00    +0.000 A 
ATOM     25  C   UNL     1       2.060   8.339  17.917  0.00  0.00    +0.000 A 
ATOM     26  C   UNL     1       1.605   9.659  17.905  0.00  0.00    +0.000 A 
ATOM     27  C   UNL     1       1.127  10.256  19.080  0.00  0.00    +0.000 A 
ATOM     28  C   UNL     1       0.611  11.667  19.070  0.00  0.00    +0.000 C 
ATOM     29  C   UNL     1       1.110   9.514  20.269  0.00  0.00    +0.000 A 
ATOM     30  C   UNL     1       1.563   8.192  20.289  0.00  0.00    +0.000 A 
ENDBRANCH  21  24
ENDBRANCH  20  21
ENDBRANCH  19  20
ENDBRANCH  17  19
ENDBRANCH  16  17
ENDBRANCH   1  16
TORSDOF 9
ENDMDL
MODEL 5
REMARK VINA RESULT:      -7.6      3.783      6.038
REMARK  Name = 
REMARK  11 active torsions:
REMARK  status: ('A' for Active; 'I' for Inactive)
REMARK    1  A    between atoms: C_1  and  O_2
REMARK    2  A    between atoms: O_2  and  C_3
REMARK    3  A    between atoms: C_8  and  C_9
REMARK    4  A    between atoms: C_12  and  C_14
REMARK    5  A    between atoms: C_14  and  O_15
REMARK    6  A    between atoms: O_15  and  C_16
REMARK    7  A    between atoms: C_16  and  C_18
REMARK    8  A    between atoms: C_18  and  C_19
REMARK    9  A    between atoms: C_19  and  S_20
REMARK   10  A    between atoms: S_20  and  C_23
REMARK   11  A    between atoms: C_26  and  C_27
REMARK                            x       y       z     vdW  Elec       q    Type
REMARK                         _______ _______ _______ _____ _____    ______ ____
ROOT
ATOM      1  C   UNL     1       3.263   2.033  19.931  0.00  0.00    +0.000 C 
ENDROOT
BRANCH   1   5
ATOM      2  C   UNL     1       5.540   3.857  17.550  0.00  0.00    +0.000 C 
ATOM      3  O   UNL     1       5.464   3.322  16.448  0.00  0.00    +0.000 OA
ATOM      4  N   UNL     1       4.878   3.390  18.667  0.00  0.00    +0.000 N 
ATOM      5  C   UNL     1       3.979   2.337  18.626  0.00  0.00    +0.000 C 
ATOM      6  O   UNL     1       3.745   1.631  17.645  0.00  0.00    +0.000 OA
ATOM      7  H   UNL     1       5.008   3.884  19.543  0.00  0.00    +0.000 HD
BRANCH   2  13
ATOM      8  C   UNL     1       6.687   6.013  16.672  0.00  0.00    +0.000 A 
ATOM      9  C   UNL     1       7.513   7.114  16.978  0.00  0.00    +0.000 A 
ATOM     10  C   UNL     1       8.122   7.241  18.229  0.00  0.00    +0.000 A 
ATOM     11  C   UNL     1       7.898   6.286  19.206  0.00  0.00    +0.000 A 
ATOM     12  C   UNL     1       7.044   5.217  18.932  0.00  0.00    +0.000 A 
ATOM     13  C   UNL     1       6.419   5.066  17.674  0.00  0.00    +0.000 A 
BRANCH   8  15
ATOM     14  C   UNL     1       6.984   5.223  14.470  0.00  0.00    +0.000 C 
ATOM     15  O   UNL     1       6.122   5.852  15.427  0.00  0.00    +0.000 OA
ENDBRANCH   8  15
ENDBRANCH   2  13
ENDBRANCH   1   5
BRANCH   1  16
ATOM     16  O   UNL     1       1.905   2.455  20.003  0.00  0.00    +0.000 OA
BRANCH  16  17
ATOM     17  C   UNL     1       1.567   3.184  21.095  0.00  0.00    +0.000 C 
ATOM     18  O   UNL     1       1.534   2.760  22.241  0.00  0.00    +0.000 OA
BRANCH  17  19
ATOM     19  C   UNL     1       1.260   4.616  20.735  0.00  0.00    +0.000 C 
BRANCH  19  20
ATOM     20  C   UNL     1       1.413   4.885  19.243  0.00  0.00    +0.000 C 
BRANCH  20  21
ATOM     21  S   UNL     1       2.759   5.986  18.919  0.00  0.00    +0.000 S 
ATOM     22  O   UNL     1       3.741   5.809  19.974  0.00  0.00    +0.000 OA
ATOM     23  O   UNL     1       3.126   5.846  17.522  0.00  0.00    +0.000 OA
BRANCH  21  24
ATOM     24  C   UNL     1       2.031   7.592  19.132  0.00  0.00    +0.000 A 
ATOM     25  C   UNL     1       1.844   8.416  18.019  0.00  0.00    +0.000 A 
ATOM     26  C   UNL     1       1.240   9.665  18.179  0.00  0.00    +0.000 A 
ATOM     27  C   UNL     1       0.816  10.092  19.446  0.00  0.00    +0.000 A 
ATOM     28  C   UNL     1       0.141  11.422  19.622  0.00  0.00    +0.000 C 
ATOM     29  C   UNL     1       1.005   9.251  20.552  0.00  0.00    +0.000 A 
ATOM     30  C   UNL     1       1.607   8.000  20.400  0.00  0.00    +0.000 A 
ENDBRANCH  21  24
ENDBRANCH  20  21
ENDBRANCH  19  20
ENDBRANCH  17  19
ENDBRANCH  16  17
ENDBRANCH   1  16
TORSDOF 9
ENDMDL
MODEL 6
REMARK VINA RESULT:      -7.5      4.325      7.511
REMARK  Name = 
REMARK  11 active torsions:
REMARK  status: ('A' for Active; 'I' for Inactive)
REMARK    1  A    between atoms: C_1  and  O_2
REMARK    2  A    between atoms: O_2  and  C_3
REMARK    3  A    between atoms: C_8  and  C_9
REMARK    4  A    between atoms: C_12  and  C_14
REMARK    5  A    between atoms: C_14  and  O_15
REMARK    6  A    between atoms: O_15  and  C_16
REMARK    7  A    between atoms: C_16  and  C_18
REMARK    8  A    between atoms: C_18  and  C_19
REMARK    9  A    between atoms: C_19  and  S_20
REMARK   10  A    between atoms: S_20  and  C_23
REMARK   11  A    between atoms: C_26  and  C_27
REMARK                            x       y       z     vdW  Elec       q    Type
REMARK                         _______ _______ _______ _____ _____    ______ ____
ROOT
ATOM      1  C   UNL     1       2.597   5.901  20.193  0.00  0.00    +0.000 C 
ENDROOT
BRANCH   1   5
ATOM      2  C   UNL     1       1.040   9.323  19.987  0.00  0.00    +0.000 C 
ATOM      3  O   UNL     1       1.229   9.772  18.861  0.00  0.00    +0.000 OA
ATOM      4  N   UNL     1       1.542   8.111  20.415  0.00  0.00    +0.000 N 
ATOM      5  C   UNL     1       2.214   7.236  19.577  0.00  0.00    +0.000 C 
ATOM      6  O   UNL     1       2.541   7.464  18.412  0.00  0.00    +0.000 OA
ATOM      7  H   UNL     1       1.351   7.822  21.368  0.00  0.00    +0.000 HD
BRANCH   2  13
ATOM      8  C   UNL     1      -0.189  11.482  20.739  0.00  0.00    +0.000 A 
ATOM      9  C   UNL     1      -0.969  12.105  21.735  0.00  0.00    +0.000 A 
ATOM     10  C   UNL     1      -1.262  11.459  22.939  0.00  0.00    +0.000 A 
ATOM     11  C   UNL     1      -0.803  10.173  23.162  0.00  0.00    +0.000 A 
ATOM     12  C   UNL     1      -0.070   9.527  22.166  0.00  0.00    +0.000 A 
ATOM     13  C   UNL     1       0.240  10.159  20.941  0.00  0.00    +0.000 A 
BRANCH   8  15
ATOM     14  C   UNL     1      -0.760  13.170  19.194  0.00  0.00    +0.000 C 
ATOM     15  O   UNL     1       0.148  12.126  19.570  0.00  0.00    +0.000 OA
ENDBRANCH   8  15
ENDBRANCH   2  13
ENDBRANCH   1   5
BRANCH   1  16
ATOM     16  O   UNL     1       1.520   5.130  20.713  0.00  0.00    +0.000 OA
BRANCH  16  17
ATOM     17  C   UNL     1       1.834   3.880  21.137  0.00  0.00    +0.000 C 
ATOM     18  O   UNL     1       2.170   3.588  22.275  0.00  0.00    +0.000 OA
BRANCH  17  19
ATOM     19  C   UNL     1       1.692   2.866  20.031  0.00  0.00    +0.000 C 
BRANCH  19  20
ATOM     20  C   UNL     1       3.036   2.325  19.560  0.00  0.00    +0.000 C 
BRANCH  20  21
ATOM     21  S   UNL     1       3.279   2.609  17.831  0.00  0.00    +0.000 S 
ATOM     22  O   UNL     1       3.935   1.438  17.277  0.00  0.00    +0.000 OA
ATOM     23  O   UNL     1       2.031   3.102  17.278  0.00  0.00    +0.000 OA
BRANCH  21  24
ATOM     24  C   UNL     1       4.454   3.942  17.799  0.00  0.00    +0.000 A 
ATOM     25  C   UNL     1       5.283   4.154  18.903  0.00  0.00    +0.000 A 
ATOM     26  C   UNL     1       6.231   5.178  18.867  0.00  0.00    +0.000 A 
ATOM     27  C   UNL     1       6.359   5.987  17.729  0.00  0.00    +0.000 A 
ATOM     28  C   UNL     1       7.395   7.073  17.672  0.00  0.00    +0.000 C 
ATOM     29  C   UNL     1       5.525   5.758  16.626  0.00  0.00    +0.000 A 
ATOM     30  C   UNL     1       4.574   4.734  16.655  0.00  0.00    +0.000 A 
ENDBRANCH  21  24
ENDBRANCH  20  21
ENDBRANCH  19  20
ENDBRANCH  17  19
ENDBRANCH  16  17
ENDBRANCH   1  16
TORSDOF 9
ENDMDL
MODEL 7
REMARK VINA RESULT:      -7.4      5.493      9.247
REMARK  Name = 
REMARK  11 active torsions:
REMARK  status: ('A' for Active; 'I' for Inactive)
REMARK    1  A    between atoms: C_1  and  O_2
REMARK    2  A    between atoms: O_2  and  C_3
REMARK    3  A    between atoms: C_8  and  C_9
REMARK    4  A    between atoms: C_12  and  C_14
REMARK    5  A    between atoms: C_14  and  O_15
REMARK    6  A    between atoms: O_15  and  C_16
REMARK    7  A    between atoms: C_16  and  C_18
REMARK    8  A    between atoms: C_18  and  C_19
REMARK    9  A    between atoms: C_19  and  S_20
REMARK   10  A    between atoms: S_20  and  C_23
REMARK   11  A    between atoms: C_26  and  C_27
REMARK                            x       y       z     vdW  Elec       q    Type
REMARK                         _______ _______ _______ _____ _____    ______ ____
ROOT
ATOM      1  C   UNL     1       0.971   8.360  21.582  0.00  0.00    +0.000 C 
ENDROOT
BRANCH   1   5
ATOM      2  C   UNL     1       2.508   6.699  18.572  0.00  0.00    +0.000 C 
ATOM      3  O   UNL     1       2.795   7.564  17.751  0.00  0.00    +0.000 OA
ATOM      4  N   UNL     1       1.866   6.967  19.763  0.00  0.00    +0.000 N 
ATOM      5  C   UNL     1       1.582   8.252  20.194  0.00  0.00    +0.000 C 
ATOM      6  O   UNL     1       1.757   9.283  19.544  0.00  0.00    +0.000 OA
ATOM      7  H   UNL     1       1.652   6.189  20.379  0.00  0.00    +0.000 HD
BRANCH   2  13
ATOM      8  C   UNL     1       4.147   4.777  17.975  0.00  0.00    +0.000 A 
ATOM      9  C   UNL     1       4.299   3.401  17.711  0.00  0.00    +0.000 A 
ATOM     10  C   UNL     1       3.193   2.548  17.635  0.00  0.00    +0.000 A 
ATOM     11  C   UNL     1       1.921   3.048  17.845  0.00  0.00    +0.000 A 
ATOM     12  C   UNL     1       1.760   4.399  18.155  0.00  0.00    +0.000 A 
ATOM     13  C   UNL     1       2.861   5.280  18.236  0.00  0.00    +0.000 A 
BRANCH   8  15
ATOM     14  C   UNL     1       6.043   5.507  19.172  0.00  0.00    +0.000 C 
ATOM     15  O   UNL     1       5.223   5.635  18.003  0.00  0.00    +0.000 OA
ENDBRANCH   8  15
ENDBRANCH   2  13
ENDBRANCH   1   5
BRANCH   1  16
ATOM     16  O   UNL     1      -0.115   9.272  21.708  0.00  0.00    +0.000 OA
BRANCH  16  17
ATOM     17  C   UNL     1      -0.180   9.958  22.877  0.00  0.00    +0.000 C 
ATOM     18  O   UNL     1       0.252   9.562  23.949  0.00  0.00    +0.000 OA
BRANCH  17  19
ATOM     19  C   UNL     1      -0.833  11.304  22.695  0.00  0.00    +0.000 C 
BRANCH  19  20
ATOM     20  C   UNL     1      -0.549  11.909  21.326  0.00  0.00    +0.000 C 
BRANCH  20  21
ATOM     21  S   UNL     1      -1.987  12.688  20.652  0.00  0.00    +0.000 S 
ATOM     22  O   UNL     1      -3.094  12.437  21.558  0.00  0.00    +0.000 OA
ATOM     23  O   UNL     1      -1.625  14.039  20.266  0.00  0.00    +0.000 OA
BRANCH  21  24
ATOM     24  C   UNL     1      -2.294  11.761  19.168  0.00  0.00    +0.000 A 
ATOM     25  C   UNL     1      -3.503  11.930  18.489  0.00  0.00    +0.000 A 
ATOM     26  C   UNL     1      -3.733  11.229  17.303  0.00  0.00    +0.000 A 
ATOM     27  C   UNL     1      -2.757  10.365  16.789  0.00  0.00    +0.000 A 
ATOM     28  C   UNL     1      -2.985   9.628  15.500  0.00  0.00    +0.000 C 
ATOM     29  C   UNL     1      -1.545  10.210  17.478  0.00  0.00    +0.000 A 
ATOM     30  C   UNL     1      -1.308  10.908  18.664  0.00  0.00    +0.000 A 
ENDBRANCH  21  24
ENDBRANCH  20  21
ENDBRANCH  19  20
ENDBRANCH  17  19
ENDBRANCH  16  17
ENDBRANCH   1  16
TORSDOF 9
ENDMDL
MODEL 8
REMARK VINA RESULT:      -7.3      6.156      9.717
REMARK  Name = 
REMARK  11 active torsions:
REMARK  status: ('A' for Active; 'I' for Inactive)
REMARK    1  A    between atoms: C_1  and  O_2
REMARK    2  A    between atoms: O_2  and  C_3
REMARK    3  A    between atoms: C_8  and  C_9
REMARK    4  A    between atoms: C_12  and  C_14
REMARK    5  A    between atoms: C_14  and  O_15
REMARK    6  A    between atoms: O_15  and  C_16
REMARK    7  A    between atoms: C_16  and  C_18
REMARK    8  A    between atoms: C_18  and  C_19
REMARK    9  A    between atoms: C_19  and  S_20
REMARK   10  A    between atoms: S_20  and  C_23
REMARK   11  A    between atoms: C_26  and  C_27
REMARK                            x       y       z     vdW  Elec       q    Type
REMARK                         _______ _______ _______ _____ _____    ______ ____
ROOT
ATOM      1  C   UNL     1       1.202   8.561  21.511  0.00  0.00    +0.000 C 
ENDROOT
BRANCH   1   5
ATOM      2  C   UNL     1       2.627   7.655  18.145  0.00  0.00    +0.000 C 
ATOM      3  O   UNL     1       2.409   8.578  17.366  0.00  0.00    +0.000 OA
ATOM      4  N   UNL     1       2.176   7.640  19.449  0.00  0.00    +0.000 N 
ATOM      5  C   UNL     1       1.527   8.716  20.035  0.00  0.00    +0.000 C 
ATOM      6  O   UNL     1       1.180   9.746  19.457  0.00  0.00    +0.000 OA
ATOM      7  H   UNL     1       2.387   6.830  20.021  0.00  0.00    +0.000 HD
BRANCH   2  13
ATOM      8  C   UNL     1       3.065   5.125  17.764  0.00  0.00    +0.000 A 
ATOM      9  C   UNL     1       3.901   4.152  17.180  0.00  0.00    +0.000 A 
ATOM     10  C   UNL     1       5.089   4.505  16.536  0.00  0.00    +0.000 A 
ATOM     11  C   UNL     1       5.453   5.837  16.440  0.00  0.00    +0.000 A 
ATOM     12  C   UNL     1       4.611   6.814  16.971  0.00  0.00    +0.000 A 
ATOM     13  C   UNL     1       3.406   6.482  17.629  0.00  0.00    +0.000 A 
BRANCH   8  15
ATOM     14  C   UNL     1       2.141   3.952  19.590  0.00  0.00    +0.000 C 
ATOM     15  O   UNL     1       1.917   4.785  18.445  0.00  0.00    +0.000 OA
ENDBRANCH   8  15
ENDBRANCH   2  13
ENDBRANCH   1   5
BRANCH   1  16
ATOM     16  O   UNL     1      -0.088   9.014  21.908  0.00  0.00    +0.000 OA
BRANCH  16  17
ATOM     17  C   UNL     1      -0.140   9.708  23.073  0.00  0.00    +0.000 C 
ATOM     18  O   UNL     1       0.596   9.529  24.031  0.00  0.00    +0.000 OA
BRANCH  17  19
ATOM     19  C   UNL     1      -1.212  10.769  23.040  0.00  0.00    +0.000 C 
BRANCH  19  20
ATOM     20  C   UNL     1      -0.973  11.804  21.948  0.00  0.00    +0.000 C 
BRANCH  20  21
ATOM     21  S   UNL     1      -1.485  13.416  22.462  0.00  0.00    +0.000 S 
ATOM     22  O   UNL     1      -0.829  13.710  23.724  0.00  0.00    +0.000 OA
ATOM     23  O   UNL     1      -1.360  14.310  21.326  0.00  0.00    +0.000 OA
BRANCH  21  24
ATOM     24  C   UNL     1      -3.217  13.204  22.800  0.00  0.00    +0.000 A 
ATOM     25  C   UNL     1      -4.115  13.082  21.737  0.00  0.00    +0.000 A 
ATOM     26  C   UNL     1      -5.471  12.880  21.999  0.00  0.00    +0.000 A 
ATOM     27  C   UNL     1      -5.934  12.793  23.320  0.00  0.00    +0.000 A 
ATOM     28  C   UNL     1      -7.387  12.549  23.610  0.00  0.00    +0.000 C 
ATOM     29  C   UNL     1      -5.020  12.912  24.376  0.00  0.00    +0.000 A 
ATOM     30  C   UNL     1      -3.661  13.113  24.122  0.00  0.00    +0.000 A 
ENDBRANCH  21  24
ENDBRANCH  20  21
ENDBRANCH  19  20
ENDBRANCH  17  19
ENDBRANCH  16  17
ENDBRANCH   1  16
TORSDOF 9
ENDMDL
MODEL 9
REMARK VINA RESULT:      -7.3      4.679      7.857
REMARK  Name = 
REMARK  11 active torsions:
REMARK  status: ('A' for Active; 'I' for Inactive)
REMARK    1  A    between atoms: C_1  and  O_2
REMARK    2  A    between atoms: O_2  and  C_3
REMARK    3  A    between atoms: C_8  and  C_9
REMARK    4  A    between atoms: C_12  and  C_14
REMARK    5  A    between atoms: C_14  and  O_15
REMARK    6  A    between atoms: O_15  and  C_16
REMARK    7  A    between atoms: C_16  and  C_18
REMARK    8  A    between atoms: C_18  and  C_19
REMARK    9  A    between atoms: C_19  and  S_20
REMARK   10  A    between atoms: S_20  and  C_23
REMARK   11  A    between atoms: C_26  and  C_27
REMARK                            x       y       z     vdW  Elec       q    Type
REMARK                         _______ _______ _______ _____ _____    ______ ____
ROOT
ATOM      1  C   UNL     1       2.158   5.073  21.016  0.00  0.00    +0.000 C 
ENDROOT
BRANCH   1   5
ATOM      2  C   UNL     1       3.806   3.695  17.923  0.00  0.00    +0.000 C 
ATOM      3  O   UNL     1       3.126   2.766  17.498  0.00  0.00    +0.000 OA
ATOM      4  N   UNL     1       3.515   4.378  19.086  0.00  0.00    +0.000 N 
ATOM      5  C   UNL     1       2.366   4.151  19.826  0.00  0.00    +0.000 C 
ATOM      6  O   UNL     1       1.539   3.264  19.615  0.00  0.00    +0.000 OA
ATOM      7  H   UNL     1       4.139   5.124  19.373  0.00  0.00    +0.000 HD
BRANCH   2  13
ATOM      8  C   UNL     1       6.254   4.514  17.657  0.00  0.00    +0.000 A 
ATOM      9  C   UNL     1       7.309   4.799  16.765  0.00  0.00    +0.000 A 
ATOM     10  C   UNL     1       7.130   4.726  15.381  0.00  0.00    +0.000 A 
ATOM     11  C   UNL     1       5.906   4.343  14.862  0.00  0.00    +0.000 A 
ATOM     12  C   UNL     1       4.869   4.011  15.734  0.00  0.00    +0.000 A 
ATOM     13  C   UNL     1       5.024   4.079  17.136  0.00  0.00    +0.000 A 
BRANCH   8  15
ATOM     14  C   UNL     1       7.342   5.637  19.423  0.00  0.00    +0.000 C 
ATOM     15  O   UNL     1       6.404   4.631  19.021  0.00  0.00    +0.000 OA
ENDBRANCH   8  15
ENDBRANCH   2  13
ENDBRANCH   1   5
BRANCH   1  16
ATOM     16  O   UNL     1       1.272   6.167  20.802  0.00  0.00    +0.000 OA
BRANCH  16  17
ATOM     17  C   UNL     1       1.842   7.315  20.358  0.00  0.00    +0.000 C 
ATOM     18  O   UNL     1       2.535   7.413  19.357  0.00  0.00    +0.000 OA
BRANCH  17  19
ATOM     19  C   UNL     1       1.493   8.486  21.240  0.00  0.00    +0.000 C 
BRANCH  19  20
ATOM     20  C   UNL     1       0.033   8.900  21.107  0.00  0.00    +0.000 C 
BRANCH  20  21
ATOM     21  S   UNL     1      -0.137  10.370  20.140  0.00  0.00    +0.000 S 
ATOM     22  O   UNL     1       1.160  10.675  19.563  0.00  0.00    +0.000 OA
ATOM     23  O   UNL     1      -1.314  10.224  19.304  0.00  0.00    +0.000 OA
BRANCH  21  24
ATOM     24  C   UNL     1      -0.485  11.619  21.356  0.00  0.00    +0.000 A 
ATOM     25  C   UNL     1       0.136  12.866  21.257  0.00  0.00    +0.000 A 
ATOM     26  C   UNL     1      -0.162  13.861  22.191  0.00  0.00    +0.000 A 
ATOM     27  C   UNL     1      -1.082  13.616  23.219  0.00  0.00    +0.000 A 
ATOM     28  C   UNL     1      -1.429  14.690  24.212  0.00  0.00    +0.000 C 
ATOM     29  C   UNL     1      -1.703  12.362  23.302  0.00  0.00    +0.000 A 
ATOM     30  C   UNL     1      -1.410  11.362  22.371  0.00  0.00    +0.000 A 
ENDBRANCH  21  24
ENDBRANCH  20  21
ENDBRANCH  19  20
ENDBRANCH  17  19
ENDBRANCH  16  17
ENDBRANCH   1  16
TORSDOF 9
ENDMDL
