MODEL 1
REMARK VINA RESULT:     -10.1      0.000      0.000
REMARK  Name = 
REMARK  5 active torsions:
REMARK  status: ('A' for Active; 'I' for Inactive)
REMARK    1  A    between atoms: C_1  and  C_2
REMARK    2  A    between atoms: C_8  and  C_10
REMARK    3  A    between atoms: C_14  and  N_15
REMARK    4  A    between atoms: N_15  and  C_16
REMARK    5  A    between atoms: C_20  and  C_21
REMARK                            x       y       z     vdW  Elec       q    Type
REMARK                         _______ _______ _______ _____ _____    ______ ____
ROOT
ATOM      1  N   UNL     1       2.638   7.404  20.209  0.00  0.00    +0.000 N 
ATOM      2  H   UNL     1       3.477   7.952  20.023  0.00  0.00    +0.000 HD
ENDROOT
BRANCH   1   3
ATOM      3  C   UNL     1       2.820   6.234  19.446  0.00  0.00    +0.000 A 
ATOM      4  N   UNL     1       3.814   6.357  18.519  0.00  0.00    +0.000 NA
ATOM      5  C   UNL     1       4.163   5.354  17.702  0.00  0.00    +0.000 A 
ATOM      6  C   UNL     1       5.156   5.567  16.749  0.00  0.00    +0.000 A 
ATOM      7  C   UNL     1       5.544   4.576  15.830  0.00  0.00    +0.000 A 
ATOM      8  C   UNL     1       4.937   3.321  15.899  0.00  0.00    +0.000 A 
ATOM      9  C   UNL     1       3.959   3.069  16.861  0.00  0.00    +0.000 A 
ATOM     10  C   UNL     1       3.562   4.094  17.752  0.00  0.00    +0.000 A 
ATOM     11  C   UNL     1       2.549   3.929  18.739  0.00  0.00    +0.000 A 
ATOM     12  S   UNL     1       1.619   2.498  19.052  0.00  0.00    +0.000 S 
ATOM     13  C   UNL     1       0.810   3.209  20.359  0.00  0.00    +0.000 A 
ATOM     14  C   UNL     1       1.229   4.498  20.576  0.00  0.00    +0.000 A 
ATOM     15  C   UNL     1       2.185   4.973  19.608  0.00  0.00    +0.000 A 
BRANCH   7  16
ATOM     16  C   UNL     1       6.520   4.846  14.781  0.00  0.00    +0.000 A 
ATOM     17  N   UNL     1       7.601   5.598  14.864  0.00  0.00    +0.000 NA
ATOM     18  N   UNL     1       8.228   5.518  13.643  0.00  0.00    +0.000 NA
ATOM     19  N   UNL     1       7.535   4.761  12.805  0.00  0.00    +0.000 NA
ATOM     20  N   UNL     1       6.469   4.357  13.504  0.00  0.00    +0.000 N 
ATOM     21  H   UNL     1       5.766   3.784  13.056  0.00  0.00    +0.000 HD
ENDBRANCH   7  16
ENDBRANCH   1   3
BRANCH   1  26
ATOM     22  C   UNL     1       0.028  10.121  19.931  0.00  0.00    +0.000 A 
ATOM     23  C   UNL     1      -0.738   9.823  21.064  0.00  0.00    +0.000 A 
ATOM     24  C   UNL     1      -0.383   8.759  21.886  0.00  0.00    +0.000 A 
ATOM     25  C   UNL     1       0.743   7.994  21.577  0.00  0.00    +0.000 A 
ATOM     26  C   UNL     1       1.540   8.263  20.448  0.00  0.00    +0.000 A 
ATOM     27  C   UNL     1       1.128   9.304  19.612  0.00  0.00    +0.000 A 
BRANCH  22  35
ATOM     28  C   UNL     1       3.257  16.389  19.737  0.00  0.00    +0.000 C 
ATOM     29  C   UNL     1       1.836  16.298  19.235  0.00  0.00    +0.000 C 
ATOM     30  O   UNL     1       1.340  17.233  18.612  0.00  0.00    +0.000 OA
ATOM     31  N   UNL     1       1.164  15.111  19.458  0.00  0.00    +0.000 N 
ATOM     32  C   UNL     1      -0.158  14.876  18.861  0.00  0.00    +0.000 C 
ATOM     33  C   UNL     1      -0.194  13.529  18.110  0.00  0.00    +0.000 C 
ATOM     34  N   UNL     1       0.338  12.420  18.931  0.00  0.00    +0.000 N 
ATOM     35  C   UNL     1      -0.431  11.268  19.088  0.00  0.00    +0.000 C 
ATOM     36  O   UNL     1      -1.547  11.162  18.575  0.00  0.00    +0.000 OA
ATOM     37  C   UNL     1       1.643  12.704  19.538  0.00  0.00    +0.000 C 
ATOM     38  C   UNL     1       1.640  14.024  20.303  0.00  0.00    +0.000 C 
ENDBRANCH  22  35
ENDBRANCH   1  26
TORSDOF 4
ENDMDL
MODEL 2
REMARK VINA RESULT:     -10.0      2.971      3.931
REMARK  Name = 
REMARK  5 active torsions:
REMARK  status: ('A' for Active; 'I' for Inactive)
REMARK    1  A    between atoms: C_1  and  C_2
REMARK    2  A    between atoms: C_8  and  C_10
REMARK    3  A    between atoms: C_14  and  N_15
REMARK    4  A    between atoms: N_15  and  C_16
REMARK    5  A    between atoms: C_20  and  C_21
REMARK                            x       y       z     vdW  Elec       q    Type
REMARK                         _______ _______ _______ _____ _____    ______ ____
ROOT
ATOM      1  N   UNL     1       2.456   8.732  18.597  0.00  0.00    +0.000 N 
ATOM      2  H   UNL     1       2.936   9.260  17.870  0.00  0.00    +0.000 HD
ENDROOT
BRANCH   1   3
ATOM      3  C   UNL     1       2.880   7.405  18.389  0.00  0.00    +0.000 A 
ATOM      4  N   UNL     1       3.763   7.288  17.354  0.00  0.00    +0.000 NA
ATOM      5  C   UNL     1       4.305   6.115  17.001  0.00  0.00    +0.000 A 
ATOM      6  C   UNL     1       5.162   6.065  15.905  0.00  0.00    +0.000 A 
ATOM      7  C   UNL     1       5.734   4.864  15.448  0.00  0.00    +0.000 A 
ATOM      8  C   UNL     1       5.461   3.684  16.143  0.00  0.00    +0.000 A 
ATOM      9  C   UNL     1       4.628   3.707  17.262  0.00  0.00    +0.000 A 
ATOM     10  C   UNL     1       4.038   4.924  17.679  0.00  0.00    +0.000 A 
ATOM     11  C   UNL     1       3.152   5.027  18.789  0.00  0.00    +0.000 A 
ATOM     12  S   UNL     1       2.623   3.741  19.826  0.00  0.00    +0.000 S 
ATOM     13  C   UNL     1       1.734   4.791  20.814  0.00  0.00    +0.000 A 
ATOM     14  C   UNL     1       1.832   6.093  20.390  0.00  0.00    +0.000 A 
ATOM     15  C   UNL     1       2.588   6.256  19.173  0.00  0.00    +0.000 A 
BRANCH   7  16
ATOM     16  C   UNL     1       6.556   4.817  14.245  0.00  0.00    +0.000 A 
ATOM     17  N   UNL     1       6.390   4.045  13.188  0.00  0.00    +0.000 NA
ATOM     18  N   UNL     1       7.380   4.384  12.297  0.00  0.00    +0.000 NA
ATOM     19  N   UNL     1       8.168   5.323  12.800  0.00  0.00    +0.000 NA
ATOM     20  N   UNL     1       7.667   5.581  14.013  0.00  0.00    +0.000 N 
ATOM     21  H   UNL     1       8.130   6.254  14.612  0.00  0.00    +0.000 HD
ENDBRANCH   7  16
ENDBRANCH   1   3
BRANCH   1  26
ATOM     22  C   UNL     1      -1.042  10.138  18.356  0.00  0.00    +0.000 A 
ATOM     23  C   UNL     1      -1.245  10.484  19.697  0.00  0.00    +0.000 A 
ATOM     24  C   UNL     1      -0.244  10.258  20.636  0.00  0.00    +0.000 A 
ATOM     25  C   UNL     1       0.966   9.690  20.231  0.00  0.00    +0.000 A 
ATOM     26  C   UNL     1       1.209   9.331  18.892  0.00  0.00    +0.000 A 
ATOM     27  C   UNL     1       0.166   9.521  17.982  0.00  0.00    +0.000 A 
BRANCH  22  35
ATOM     28  C   UNL     1      -6.523  14.320  19.846  0.00  0.00    +0.000 C 
ATOM     29  C   UNL     1      -6.662  13.331  18.715  0.00  0.00    +0.000 C 
ATOM     30  O   UNL     1      -7.615  13.405  17.942  0.00  0.00    +0.000 OA
ATOM     31  N   UNL     1      -5.654  12.398  18.566  0.00  0.00    +0.000 N 
ATOM     32  C   UNL     1      -5.624  11.507  17.398  0.00  0.00    +0.000 C 
ATOM     33  C   UNL     1      -4.247  11.547  16.705  0.00  0.00    +0.000 C 
ATOM     34  N   UNL     1      -3.136  11.372  17.667  0.00  0.00    +0.000 N 
ATOM     35  C   UNL     1      -2.174  10.395  17.413  0.00  0.00    +0.000 C 
ATOM     36  O   UNL     1      -2.238   9.667  16.421  0.00  0.00    +0.000 OA
ATOM     37  C   UNL     1      -3.217  12.254  18.835  0.00  0.00    +0.000 C 
ATOM     38  C   UNL     1      -4.577  12.168  19.520  0.00  0.00    +0.000 C 
ENDBRANCH  22  35
ENDBRANCH   1  26
TORSDOF 4
ENDMDL
MODEL 3
REMARK VINA RESULT:      -9.8      2.493      3.351
REMARK  Name = 
REMARK  5 active torsions:
REMARK  status: ('A' for Active; 'I' for Inactive)
REMARK    1  A    between atoms: C_1  and  C_2
REMARK    2  A    between atoms: C_8  and  C_10
REMARK    3  A    between atoms: C_14  and  N_15
REMARK    4  A    between atoms: N_15  and  C_16
REMARK    5  A    between atoms: C_20  and  C_21
REMARK                            x       y       z     vdW  Elec       q    Type
REMARK                         _______ _______ _______ _____ _____    ______ ____
ROOT
ATOM      1  N   UNL     1       2.261   7.603  20.061  0.00  0.00    +0.000 N 
ATOM      2  H   UNL     1       3.131   7.853  20.528  0.00  0.00    +0.000 HD
ENDROOT
BRANCH   1   3
ATOM      3  C   UNL     1       2.564   6.395  19.402  0.00  0.00    +0.000 A 
ATOM      4  N   UNL     1       3.574   6.528  18.494  0.00  0.00    +0.000 NA
ATOM      5  C   UNL     1       4.031   5.497  17.771  0.00  0.00    +0.000 A 
ATOM      6  C   UNL     1       5.033   5.717  16.829  0.00  0.00    +0.000 A 
ATOM      7  C   UNL     1       5.532   4.693  16.005  0.00  0.00    +0.000 A 
ATOM      8  C   UNL     1       5.030   3.400  16.162  0.00  0.00    +0.000 A 
ATOM      9  C   UNL     1       4.045   3.143  17.115  0.00  0.00    +0.000 A 
ATOM     10  C   UNL     1       3.535   4.199  17.909  0.00  0.00    +0.000 A 
ATOM     11  C   UNL     1       2.509   4.027  18.880  0.00  0.00    +0.000 A 
ATOM     12  S   UNL     1       1.691   2.551  19.285  0.00  0.00    +0.000 S 
ATOM     13  C   UNL     1       0.784   3.292  20.509  0.00  0.00    +0.000 A 
ATOM     14  C   UNL     1       1.087   4.625  20.630  0.00  0.00    +0.000 A 
ATOM     15  C   UNL     1       2.032   5.101  19.651  0.00  0.00    +0.000 A 
BRANCH   7  16
ATOM     16  C   UNL     1       6.516   4.962  14.963  0.00  0.00    +0.000 A 
ATOM     17  N   UNL     1       7.630   5.659  15.070  0.00  0.00    +0.000 NA
ATOM     18  N   UNL     1       8.248   5.601  13.844  0.00  0.00    +0.000 NA
ATOM     19  N   UNL     1       7.519   4.912  12.979  0.00  0.00    +0.000 NA
ATOM     20  N   UNL     1       6.438   4.528  13.668  0.00  0.00    +0.000 N 
ATOM     21  H   UNL     1       5.708   4.006  13.200  0.00  0.00    +0.000 HD
ENDBRANCH   7  16
ENDBRANCH   1   3
BRANCH   1  26
ATOM     22  C   UNL     1       0.769  11.073  20.009  0.00  0.00    +0.000 A 
ATOM     23  C   UNL     1       0.124  11.029  18.768  0.00  0.00    +0.000 A 
ATOM     24  C   UNL     1       0.185   9.878  17.990  0.00  0.00    +0.000 A 
ATOM     25  C   UNL     1       0.888   8.765  18.457  0.00  0.00    +0.000 A 
ATOM     26  C   UNL     1       1.548   8.770  19.700  0.00  0.00    +0.000 A 
ATOM     27  C   UNL     1       1.515   9.958  20.435  0.00  0.00    +0.000 A 
BRANCH  22  35
ATOM     28  C   UNL     1      -4.313  12.470  24.696  0.00  0.00    +0.000 C 
ATOM     29  C   UNL     1      -3.518  13.623  24.135  0.00  0.00    +0.000 C 
ATOM     30  O   UNL     1      -3.605  14.739  24.642  0.00  0.00    +0.000 OA
ATOM     31  N   UNL     1      -2.664  13.348  23.085  0.00  0.00    +0.000 N 
ATOM     32  C   UNL     1      -1.733  14.371  22.588  0.00  0.00    +0.000 C 
ATOM     33  C   UNL     1      -0.293  13.822  22.518  0.00  0.00    +0.000 C 
ATOM     34  N   UNL     1      -0.230  12.516  21.826  0.00  0.00    +0.000 N 
ATOM     35  C   UNL     1       0.672  12.353  20.776  0.00  0.00    +0.000 C 
ATOM     36  O   UNL     1       1.400  13.275  20.401  0.00  0.00    +0.000 OA
ATOM     37  C   UNL     1      -1.195  11.531  22.326  0.00  0.00    +0.000 C 
ATOM     38  C   UNL     1      -2.615  12.089  22.352  0.00  0.00    +0.000 C 
ENDBRANCH  22  35
ENDBRANCH   1  26
TORSDOF 4
ENDMDL
MODEL 4
REMARK VINA RESULT:      -9.6      2.222      2.774
REMARK  Name = 
REMARK  5 active torsions:
REMARK  status: ('A' for Active; 'I' for Inactive)
REMARK    1  A    between atoms: C_1  and  C_2
REMARK    2  A    between atoms: C_8  and  C_10
REMARK    3  A    between atoms: C_14  and  N_15
REMARK    4  A    between atoms: N_15  and  C_16
REMARK    5  A    between atoms: C_20  and  C_21
REMARK                            x       y       z     vdW  Elec       q    Type
REMARK                         _______ _______ _______ _____ _____    ______ ____
ROOT
ATOM      1  N   UNL     1       2.604   7.433  20.110  0.00  0.00    +0.000 N 
ATOM      2  H   UNL     1       3.531   7.851  20.178  0.00  0.00    +0.000 HD
ENDROOT
BRANCH   1   3
ATOM      3  C   UNL     1       2.823   6.233  19.406  0.00  0.00    +0.000 A 
ATOM      4  N   UNL     1       3.796   6.348  18.455  0.00  0.00    +0.000 NA
ATOM      5  C   UNL     1       4.174   5.318  17.686  0.00  0.00    +0.000 A 
ATOM      6  C   UNL     1       5.141   5.522  16.705  0.00  0.00    +0.000 A 
ATOM      7  C   UNL     1       5.557   4.502  15.831  0.00  0.00    +0.000 A 
ATOM      8  C   UNL     1       5.006   3.227  15.978  0.00  0.00    +0.000 A 
ATOM      9  C   UNL     1       4.055   2.986  16.969  0.00  0.00    +0.000 A 
ATOM     10  C   UNL     1       3.629   4.039  17.813  0.00  0.00    +0.000 A 
ATOM     11  C   UNL     1       2.641   3.884  18.826  0.00  0.00    +0.000 A 
ATOM     12  S   UNL     1       1.779   2.434  19.230  0.00  0.00    +0.000 S 
ATOM     13  C   UNL     1       0.961   3.178  20.514  0.00  0.00    +0.000 A 
ATOM     14  C   UNL     1       1.328   4.494  20.655  0.00  0.00    +0.000 A 
ATOM     15  C   UNL     1       2.247   4.956  19.646  0.00  0.00    +0.000 A 
BRANCH   7  16
ATOM     16  C   UNL     1       6.503   4.757  14.752  0.00  0.00    +0.000 A 
ATOM     17  N   UNL     1       6.487   4.254  13.533  0.00  0.00    +0.000 NA
ATOM     18  N   UNL     1       7.549   4.814  12.864  0.00  0.00    +0.000 NA
ATOM     19  N   UNL     1       8.235   5.622  13.659  0.00  0.00    +0.000 NA
ATOM     20  N   UNL     1       7.597   5.576  14.833  0.00  0.00    +0.000 N 
ATOM     21  H   UNL     1       7.961   6.097  15.621  0.00  0.00    +0.000 HD
ENDBRANCH   7  16
ENDBRANCH   1   3
BRANCH   1  26
ATOM     22  C   UNL     1      -0.019  10.001  21.000  0.00  0.00    +0.000 A 
ATOM     23  C   UNL     1      -0.279  10.518  19.726  0.00  0.00    +0.000 A 
ATOM     24  C   UNL     1       0.396  10.017  18.618  0.00  0.00    +0.000 A 
ATOM     25  C   UNL     1       1.329   8.991  18.785  0.00  0.00    +0.000 A 
ATOM     26  C   UNL     1       1.616   8.444  20.049  0.00  0.00    +0.000 A 
ATOM     27  C   UNL     1       0.962   9.004  21.149  0.00  0.00    +0.000 A 
BRANCH  22  35
ATOM     28  C   UNL     1      -2.275  16.683  21.112  0.00  0.00    +0.000 C 
ATOM     29  C   UNL     1      -2.183  15.935  22.420  0.00  0.00    +0.000 C 
ATOM     30  O   UNL     1      -2.693  16.402  23.436  0.00  0.00    +0.000 OA
ATOM     31  N   UNL     1      -1.563  14.701  22.397  0.00  0.00    +0.000 N 
ATOM     32  C   UNL     1      -1.575  13.834  23.584  0.00  0.00    +0.000 C 
ATOM     33  C   UNL     1      -2.066  12.416  23.229  0.00  0.00    +0.000 C 
ATOM     34  N   UNL     1      -1.365  11.866  22.048  0.00  0.00    +0.000 N 
ATOM     35  C   UNL     1      -0.773  10.607  22.141  0.00  0.00    +0.000 C 
ATOM     36  O   UNL     1      -0.804   9.955  23.187  0.00  0.00    +0.000 OA
ATOM     37  C   UNL     1      -1.344  12.771  20.894  0.00  0.00    +0.000 C 
ATOM     38  C   UNL     1      -0.822  14.155  21.267  0.00  0.00    +0.000 C 
ENDBRANCH  22  35
ENDBRANCH   1  26
TORSDOF 4
ENDMDL
MODEL 5
REMARK VINA RESULT:      -9.5      2.279      3.231
REMARK  Name = 
REMARK  5 active torsions:
REMARK  status: ('A' for Active; 'I' for Inactive)
REMARK    1  A    between atoms: C_1  and  C_2
REMARK    2  A    between atoms: C_8  and  C_10
REMARK    3  A    between atoms: C_14  and  N_15
REMARK    4  A    between atoms: N_15  and  C_16
REMARK    5  A    between atoms: C_20  and  C_21
REMARK                            x       y       z     vdW  Elec       q    Type
REMARK                         _______ _______ _______ _____ _____    ______ ____
ROOT
ATOM      1  N   UNL     1       2.225   7.237  20.125  0.00  0.00    +0.000 N 
ATOM      2  H   UNL     1       2.927   7.308  20.861  0.00  0.00    +0.000 HD
ENDROOT
BRANCH   1   3
ATOM      3  C   UNL     1       2.570   6.055  19.440  0.00  0.00    +0.000 A 
ATOM      4  N   UNL     1       3.566   6.245  18.528  0.00  0.00    +0.000 NA
ATOM      5  C   UNL     1       4.058   5.246  17.782  0.00  0.00    +0.000 A 
ATOM      6  C   UNL     1       5.043   5.525  16.837  0.00  0.00    +0.000 A 
ATOM      7  C   UNL     1       5.575   4.537  15.989  0.00  0.00    +0.000 A 
ATOM      8  C   UNL     1       5.126   3.222  16.125  0.00  0.00    +0.000 A 
ATOM      9  C   UNL     1       4.160   2.908  17.081  0.00  0.00    +0.000 A 
ATOM     10  C   UNL     1       3.616   3.927  17.898  0.00  0.00    +0.000 A 
ATOM     11  C   UNL     1       2.605   3.696  18.873  0.00  0.00    +0.000 A 
ATOM     12  S   UNL     1       1.850   2.182  19.257  0.00  0.00    +0.000 S 
ATOM     13  C   UNL     1       0.924   2.862  20.501  0.00  0.00    +0.000 A 
ATOM     14  C   UNL     1       1.175   4.204  20.646  0.00  0.00    +0.000 A 
ATOM     15  C   UNL     1       2.092   4.736  19.668  0.00  0.00    +0.000 A 
BRANCH   7  16
ATOM     16  C   UNL     1       6.539   4.864  14.946  0.00  0.00    +0.000 A 
ATOM     17  N   UNL     1       7.605   5.635  15.048  0.00  0.00    +0.000 NA
ATOM     18  N   UNL     1       8.226   5.610  13.822  0.00  0.00    +0.000 NA
ATOM     19  N   UNL     1       7.543   4.869  12.962  0.00  0.00    +0.000 NA
ATOM     20  N   UNL     1       6.490   4.419  13.653  0.00  0.00    +0.000 N 
ATOM     21  H   UNL     1       5.796   3.847  13.188  0.00  0.00    +0.000 HD
ENDBRANCH   7  16
ENDBRANCH   1   3
BRANCH   1  26
ATOM     22  C   UNL     1       0.935  10.786  20.074  0.00  0.00    +0.000 A 
ATOM     23  C   UNL     1       1.112  11.078  18.717  0.00  0.00    +0.000 A 
ATOM     24  C   UNL     1       1.636  10.117  17.859  0.00  0.00    +0.000 A 
ATOM     25  C   UNL     1       1.979   8.858  18.359  0.00  0.00    +0.000 A 
ATOM     26  C   UNL     1       1.813   8.527  19.717  0.00  0.00    +0.000 A 
ATOM     27  C   UNL     1       1.335   9.530  20.564  0.00  0.00    +0.000 A 
BRANCH  22  35
ATOM     28  C   UNL     1      -5.831  12.779  20.038  0.00  0.00    +0.000 C 
ATOM     29  C   UNL     1      -4.808  13.724  20.621  0.00  0.00    +0.000 C 
ATOM     30  O   UNL     1      -5.170  14.706  21.265  0.00  0.00    +0.000 OA
ATOM     31  N   UNL     1      -3.477  13.397  20.445  0.00  0.00    +0.000 N 
ATOM     32  C   UNL     1      -2.422  14.167  21.118  0.00  0.00    +0.000 C 
ATOM     33  C   UNL     1      -1.457  13.236  21.880  0.00  0.00    +0.000 C 
ATOM     34  N   UNL     1      -0.986  12.115  21.037  0.00  0.00    +0.000 N 
ATOM     35  C   UNL     1       0.384  11.880  20.933  0.00  0.00    +0.000 C 
ATOM     36  O   UNL     1       1.207  12.593  21.510  0.00  0.00    +0.000 OA
ATOM     37  C   UNL     1      -2.064  11.391  20.356  0.00  0.00    +0.000 C 
ATOM     38  C   UNL     1      -2.982  12.333  19.582  0.00  0.00    +0.000 C 
ENDBRANCH  22  35
ENDBRANCH   1  26
TORSDOF 4
ENDMDL
MODEL 6
REMARK VINA RESULT:      -9.5      2.540      3.164
REMARK  Name = 
REMARK  5 active torsions:
REMARK  status: ('A' for Active; 'I' for Inactive)
REMARK    1  A    between atoms: C_1  and  C_2
REMARK    2  A    between atoms: C_8  and  C_10
REMARK    3  A    between atoms: C_14  and  N_15
REMARK    4  A    between atoms: N_15  and  C_16
REMARK    5  A    between atoms: C_20  and  C_21
REMARK                            x       y       z     vdW  Elec       q    Type
REMARK                         _______ _______ _______ _____ _____    ______ ____
ROOT
ATOM      1  N   UNL     1       2.531   8.722  18.688  0.00  0.00    +0.000 N 
ATOM      2  H   UNL     1       3.000   9.244  17.948  0.00  0.00    +0.000 HD
ENDROOT
BRANCH   1   3
ATOM      3  C   UNL     1       2.904   7.384  18.449  0.00  0.00    +0.000 A 
ATOM      4  N   UNL     1       3.788   7.259  17.417  0.00  0.00    +0.000 NA
ATOM      5  C   UNL     1       4.286   6.074  17.037  0.00  0.00    +0.000 A 
ATOM      6  C   UNL     1       5.148   6.018  15.945  0.00  0.00    +0.000 A 
ATOM      7  C   UNL     1       5.675   4.807  15.462  0.00  0.00    +0.000 A 
ATOM      8  C   UNL     1       5.350   3.621  16.124  0.00  0.00    +0.000 A 
ATOM      9  C   UNL     1       4.511   3.649  17.237  0.00  0.00    +0.000 A 
ATOM     10  C   UNL     1       3.966   4.878  17.682  0.00  0.00    +0.000 A 
ATOM     11  C   UNL     1       3.077   4.988  18.788  0.00  0.00    +0.000 A 
ATOM     12  S   UNL     1       2.489   3.698  19.789  0.00  0.00    +0.000 S 
ATOM     13  C   UNL     1       1.635   4.758  20.798  0.00  0.00    +0.000 A 
ATOM     14  C   UNL     1       1.789   6.065  20.408  0.00  0.00    +0.000 A 
ATOM     15  C   UNL     1       2.560   6.229  19.201  0.00  0.00    +0.000 A 
BRANCH   7  16
ATOM     16  C   UNL     1       6.503   4.757  14.263  0.00  0.00    +0.000 A 
ATOM     17  N   UNL     1       6.328   4.002  13.195  0.00  0.00    +0.000 NA
ATOM     18  N   UNL     1       7.330   4.332  12.314  0.00  0.00    +0.000 NA
ATOM     19  N   UNL     1       8.135   5.248  12.834  0.00  0.00    +0.000 NA
ATOM     20  N   UNL     1       7.632   5.501  14.047  0.00  0.00    +0.000 N 
ATOM     21  H   UNL     1       8.105   6.156  14.657  0.00  0.00    +0.000 HD
ENDBRANCH   7  16
ENDBRANCH   1   3
BRANCH   1  26
ATOM     22  C   UNL     1      -0.220  10.505  20.565  0.00  0.00    +0.000 A 
ATOM     23  C   UNL     1      -1.143  10.663  19.526  0.00  0.00    +0.000 A 
ATOM     24  C   UNL     1      -0.852  10.184  18.254  0.00  0.00    +0.000 A 
ATOM     25  C   UNL     1       0.364   9.539  18.021  0.00  0.00    +0.000 A 
ATOM     26  C   UNL     1       1.318   9.357  19.040  0.00  0.00    +0.000 A 
ATOM     27  C   UNL     1       1.020   9.897  20.294  0.00  0.00    +0.000 A 
BRANCH  22  35
ATOM     28  C   UNL     1      -3.850  16.491  21.421  0.00  0.00    +0.000 C 
ATOM     29  C   UNL     1      -3.077  15.947  22.597  0.00  0.00    +0.000 C 
ATOM     30  O   UNL     1      -3.254  16.410  23.722  0.00  0.00    +0.000 OA
ATOM     31  N   UNL     1      -2.226  14.885  22.355  0.00  0.00    +0.000 N 
ATOM     32  C   UNL     1      -1.563  14.188  23.466  0.00  0.00    +0.000 C 
ATOM     33  C   UNL     1      -1.781  12.664  23.373  0.00  0.00    +0.000 C 
ATOM     34  N   UNL     1      -1.477  12.142  22.023  0.00  0.00    +0.000 N 
ATOM     35  C   UNL     1      -0.600  11.065  21.899  0.00  0.00    +0.000 C 
ATOM     36  O   UNL     1      -0.062  10.554  22.883  0.00  0.00    +0.000 OA
ATOM     37  C   UNL     1      -2.129  12.882  20.938  0.00  0.00    +0.000 C 
ATOM     38  C   UNL     1      -1.868  14.382  21.036  0.00  0.00    +0.000 C 
ENDBRANCH  22  35
ENDBRANCH   1  26
TORSDOF 4
ENDMDL
MODEL 7
REMARK VINA RESULT:      -9.5      2.318      3.012
REMARK  Name = 
REMARK  5 active torsions:
REMARK  status: ('A' for Active; 'I' for Inactive)
REMARK    1  A    between atoms: C_1  and  C_2
REMARK    2  A    between atoms: C_8  and  C_10
REMARK    3  A    between atoms: C_14  and  N_15
REMARK    4  A    between atoms: N_15  and  C_16
REMARK    5  A    between atoms: C_20  and  C_21
REMARK                            x       y       z     vdW  Elec       q    Type
REMARK                         _______ _______ _______ _____ _____    ______ ____
ROOT
ATOM      1  N   UNL     1       2.187   7.662  19.816  0.00  0.00    +0.000 N 
ATOM      2  H   UNL     1       2.963   7.870  20.444  0.00  0.00    +0.000 HD
ENDROOT
BRANCH   1   3
ATOM      3  C   UNL     1       2.531   6.419  19.251  0.00  0.00    +0.000 A 
ATOM      4  N   UNL     1       3.510   6.521  18.305  0.00  0.00    +0.000 NA
ATOM      5  C   UNL     1       3.998   5.454  17.657  0.00  0.00    +0.000 A 
ATOM      6  C   UNL     1       4.963   5.641  16.671  0.00  0.00    +0.000 A 
ATOM      7  C   UNL     1       5.490   4.575  15.920  0.00  0.00    +0.000 A 
ATOM      8  C   UNL     1       5.055   3.278  16.199  0.00  0.00    +0.000 A 
ATOM      9  C   UNL     1       4.110   3.057  17.200  0.00  0.00    +0.000 A 
ATOM     10  C   UNL     1       3.570   4.151  17.918  0.00  0.00    +0.000 A 
ATOM     11  C   UNL     1       2.579   4.014  18.930  0.00  0.00    +0.000 A 
ATOM     12  S   UNL     1       1.845   2.542  19.482  0.00  0.00    +0.000 S 
ATOM     13  C   UNL     1       0.935   3.341  20.666  0.00  0.00    +0.000 A 
ATOM     14  C   UNL     1       1.175   4.692  20.667  0.00  0.00    +0.000 A 
ATOM     15  C   UNL     1       2.070   5.127  19.623  0.00  0.00    +0.000 A 
BRANCH   7  16
ATOM     16  C   UNL     1       6.432   4.799  14.830  0.00  0.00    +0.000 A 
ATOM     17  N   UNL     1       6.387   4.296  13.612  0.00  0.00    +0.000 NA
ATOM     18  N   UNL     1       7.458   4.822  12.931  0.00  0.00    +0.000 NA
ATOM     19  N   UNL     1       8.178   5.610  13.717  0.00  0.00    +0.000 NA
ATOM     20  N   UNL     1       7.551   5.584  14.898  0.00  0.00    +0.000 N 
ATOM     21  H   UNL     1       7.940   6.095  15.681  0.00  0.00    +0.000 HD
ENDBRANCH   7  16
ENDBRANCH   1   3
BRANCH   1  26
ATOM     22  C   UNL     1      -0.080  10.587  19.059  0.00  0.00    +0.000 A 
ATOM     23  C   UNL     1       0.762  11.322  18.218  0.00  0.00    +0.000 A 
ATOM     24  C   UNL     1       2.034  10.847  17.916  0.00  0.00    +0.000 A 
ATOM     25  C   UNL     1       2.462   9.630  18.452  0.00  0.00    +0.000 A 
ATOM     26  C   UNL     1       1.643   8.861  19.300  0.00  0.00    +0.000 A 
ATOM     27  C   UNL     1       0.392   9.390  19.629  0.00  0.00    +0.000 A 
BRANCH  22  35
ATOM     28  C   UNL     1      -1.419  14.794  24.560  0.00  0.00    +0.000 C 
ATOM     29  C   UNL     1      -2.582  14.128  23.867  0.00  0.00    +0.000 C 
ATOM     30  O   UNL     1      -3.733  14.482  24.113  0.00  0.00    +0.000 OA
ATOM     31  N   UNL     1      -2.285  13.166  22.920  0.00  0.00    +0.000 N 
ATOM     32  C   UNL     1      -3.344  12.588  22.082  0.00  0.00    +0.000 C 
ATOM     33  C   UNL     1      -2.969  12.662  20.587  0.00  0.00    +0.000 C 
ATOM     34  N   UNL     1      -1.605  12.150  20.331  0.00  0.00    +0.000 N 
ATOM     35  C   UNL     1      -1.424  11.176  19.351  0.00  0.00    +0.000 C 
ATOM     36  O   UNL     1      -2.374  10.721  18.709  0.00  0.00    +0.000 OA
ATOM     37  C   UNL     1      -0.580  12.724  21.209  0.00  0.00    +0.000 C 
ATOM     38  C   UNL     1      -0.961  12.606  22.681  0.00  0.00    +0.000 C 
ENDBRANCH  22  35
ENDBRANCH   1  26
TORSDOF 4
ENDMDL
MODEL 8
REMARK VINA RESULT:      -9.4      2.525      3.397
REMARK  Name = 
REMARK  5 active torsions:
REMARK  status: ('A' for Active; 'I' for Inactive)
REMARK    1  A    between atoms: C_1  and  C_2
REMARK    2  A    between atoms: C_8  and  C_10
REMARK    3  A    between atoms: C_14  and  N_15
REMARK    4  A    between atoms: N_15  and  C_16
REMARK    5  A    between atoms: C_20  and  C_21
REMARK                            x       y       z     vdW  Elec       q    Type
REMARK                         _______ _______ _______ _____ _____    ______ ____
ROOT
ATOM      1  N   UNL     1       2.422   8.742  18.888  0.00  0.00    +0.000 N 
ATOM      2  H   UNL     1       3.256   9.278  18.652  0.00  0.00    +0.000 HD
ENDROOT
BRANCH   1   3
ATOM      3  C   UNL     1       2.776   7.412  18.590  0.00  0.00    +0.000 A 
ATOM      4  N   UNL     1       3.716   7.324  17.604  0.00  0.00    +0.000 NA
ATOM      5  C   UNL     1       4.206   6.151  17.181  0.00  0.00    +0.000 A 
ATOM      6  C   UNL     1       5.129   6.136  16.139  0.00  0.00    +0.000 A 
ATOM      7  C   UNL     1       5.654   4.942  15.613  0.00  0.00    +0.000 A 
ATOM      8  C   UNL     1       5.264   3.729  16.182  0.00  0.00    +0.000 A 
ATOM      9  C   UNL     1       4.362   3.713  17.246  0.00  0.00    +0.000 A 
ATOM     10  C   UNL     1       3.822   4.927  17.734  0.00  0.00    +0.000 A 
ATOM     11  C   UNL     1       2.873   4.996  18.792  0.00  0.00    +0.000 A 
ATOM     12  S   UNL     1       2.197   3.665  19.678  0.00  0.00    +0.000 S 
ATOM     13  C   UNL     1       1.312   4.686  20.699  0.00  0.00    +0.000 A 
ATOM     14  C   UNL     1       1.518   6.009  20.399  0.00  0.00    +0.000 A 
ATOM     15  C   UNL     1       2.362   6.224  19.250  0.00  0.00    +0.000 A 
BRANCH   7  16
ATOM     16  C   UNL     1       6.550   4.942  14.462  0.00  0.00    +0.000 A 
ATOM     17  N   UNL     1       6.404   4.280  13.330  0.00  0.00    +0.000 NA
ATOM     18  N   UNL     1       7.471   4.624  12.535  0.00  0.00    +0.000 NA
ATOM     19  N   UNL     1       8.284   5.455  13.170  0.00  0.00    +0.000 NA
ATOM     20  N   UNL     1       7.722   5.640  14.369  0.00  0.00    +0.000 N 
ATOM     21  H   UNL     1       8.188   6.223  15.054  0.00  0.00    +0.000 HD
ENDBRANCH   7  16
ENDBRANCH   1   3
BRANCH   1  26
ATOM     22  C   UNL     1      -0.132  11.526  18.906  0.00  0.00    +0.000 A 
ATOM     23  C   UNL     1      -1.098  10.959  18.068  0.00  0.00    +0.000 A 
ATOM     24  C   UNL     1      -0.899   9.693  17.529  0.00  0.00    +0.000 A 
ATOM     25  C   UNL     1       0.269   8.989  17.833  0.00  0.00    +0.000 A 
ATOM     26  C   UNL     1       1.263   9.524  18.674  0.00  0.00    +0.000 A 
ATOM     27  C   UNL     1       1.059  10.819  19.157  0.00  0.00    +0.000 A 
BRANCH  22  35
ATOM     28  C   UNL     1      -4.119  12.826  24.578  0.00  0.00    +0.000 C 
ATOM     29  C   UNL     1      -3.856  13.955  23.611  0.00  0.00    +0.000 C 
ATOM     30  O   UNL     1      -4.142  15.111  23.918  0.00  0.00    +0.000 OA
ATOM     31  N   UNL     1      -3.237  13.633  22.419  0.00  0.00    +0.000 N 
ATOM     32  C   UNL     1      -2.796  14.687  21.495  0.00  0.00    +0.000 C 
ATOM     33  C   UNL     1      -1.319  14.490  21.095  0.00  0.00    +0.000 C 
ATOM     34  N   UNL     1      -1.043  13.104  20.657  0.00  0.00    +0.000 N 
ATOM     35  C   UNL     1      -0.413  12.898  19.430  0.00  0.00    +0.000 C 
ATOM     36  O   UNL     1      -0.099  13.840  18.699  0.00  0.00    +0.000 OA
ATOM     37  C   UNL     1      -1.527  12.078  21.587  0.00  0.00    +0.000 C 
ATOM     38  C   UNL     1      -2.998  12.278  21.937  0.00  0.00    +0.000 C 
ENDBRANCH  22  35
ENDBRANCH   1  26
TORSDOF 4
ENDMDL
MODEL 9
REMARK VINA RESULT:      -9.3      1.244      1.761
REMARK  Name = 
REMARK  5 active torsions:
REMARK  status: ('A' for Active; 'I' for Inactive)
REMARK    1  A    between atoms: C_1  and  C_2
REMARK    2  A    between atoms: C_8  and  C_10
REMARK    3  A    between atoms: C_14  and  N_15
REMARK    4  A    between atoms: N_15  and  C_16
REMARK    5  A    between atoms: C_20  and  C_21
REMARK                            x       y       z     vdW  Elec       q    Type
REMARK                         _______ _______ _______ _____ _____    ______ ____
ROOT
ATOM      1  N   UNL     1       2.255   7.390  20.083  0.00  0.00    +0.000 N 
ATOM      2  H   UNL     1       3.088   7.639  20.616  0.00  0.00    +0.000 HD
ENDROOT
BRANCH   1   3
ATOM      3  C   UNL     1       2.609   6.187  19.442  0.00  0.00    +0.000 A 
ATOM      4  N   UNL     1       3.587   6.356  18.504  0.00  0.00    +0.000 NA
ATOM      5  C   UNL     1       4.083   5.335  17.792  0.00  0.00    +0.000 A 
ATOM      6  C   UNL     1       5.047   5.590  16.819  0.00  0.00    +0.000 A 
ATOM      7  C   UNL     1       5.581   4.577  16.003  0.00  0.00    +0.000 A 
ATOM      8  C   UNL     1       5.158   3.262  16.201  0.00  0.00    +0.000 A 
ATOM      9  C   UNL     1       4.214   2.971  17.186  0.00  0.00    +0.000 A 
ATOM     10  C   UNL     1       3.665   4.015  17.971  0.00  0.00    +0.000 A 
ATOM     11  C   UNL     1       2.676   3.807  18.972  0.00  0.00    +0.000 A 
ATOM     12  S   UNL     1       1.954   2.298  19.431  0.00  0.00    +0.000 S 
ATOM     13  C   UNL     1       1.037   3.014  20.662  0.00  0.00    +0.000 A 
ATOM     14  C   UNL     1       1.267   4.365  20.747  0.00  0.00    +0.000 A 
ATOM     15  C   UNL     1       2.158   4.871  19.732  0.00  0.00    +0.000 A 
BRANCH   7  16
ATOM     16  C   UNL     1       6.522   4.877  14.930  0.00  0.00    +0.000 A 
ATOM     17  N   UNL     1       6.459   4.481  13.673  0.00  0.00    +0.000 NA
ATOM     18  N   UNL     1       7.537   5.043  13.032  0.00  0.00    +0.000 NA
ATOM     19  N   UNL     1       8.277   5.746  13.878  0.00  0.00    +0.000 NA
ATOM     20  N   UNL     1       7.657   5.630  15.057  0.00  0.00    +0.000 N 
ATOM     21  H   UNL     1       8.061   6.064  15.878  0.00  0.00    +0.000 HD
ENDBRANCH   7  16
ENDBRANCH   1   3
BRANCH   1  26
ATOM     22  C   UNL     1       0.787  10.867  19.927  0.00  0.00    +0.000 A 
ATOM     23  C   UNL     1       0.211  10.818  18.653  0.00  0.00    +0.000 A 
ATOM     24  C   UNL     1       0.309   9.662  17.886  0.00  0.00    +0.000 A 
ATOM     25  C   UNL     1       0.980   8.549  18.398  0.00  0.00    +0.000 A 
ATOM     26  C   UNL     1       1.570   8.558  19.676  0.00  0.00    +0.000 A 
ATOM     27  C   UNL     1       1.502   9.751  20.401  0.00  0.00    +0.000 A 
BRANCH  22  35
ATOM     28  C   UNL     1       2.677  17.149  17.335  0.00  0.00    +0.000 C 
ATOM     29  C   UNL     1       2.504  17.011  18.828  0.00  0.00    +0.000 C 
ATOM     30  O   UNL     1       2.477  18.011  19.542  0.00  0.00    +0.000 OA
ATOM     31  N   UNL     1       2.322  15.736  19.327  0.00  0.00    +0.000 N 
ATOM     32  C   UNL     1       1.982  15.525  20.740  0.00  0.00    +0.000 C 
ATOM     33  C   UNL     1       0.743  14.618  20.883  0.00  0.00    +0.000 C 
ATOM     34  N   UNL     1       0.858  13.389  20.068  0.00  0.00    +0.000 N 
ATOM     35  C   UNL     1       0.654  12.153  20.680  0.00  0.00    +0.000 C 
ATOM     36  O   UNL     1       0.400  12.062  21.882  0.00  0.00    +0.000 OA
ATOM     37  C   UNL     1       1.231  13.635  18.671  0.00  0.00    +0.000 C 
ATOM     38  C   UNL     1       2.479  14.506  18.561  0.00  0.00    +0.000 C 
ENDBRANCH  22  35
ENDBRANCH   1  26
TORSDOF 4
ENDMDL
