MODEL 1
REMARK VINA RESULT:      -8.8      0.000      0.000
REMARK  Name = 
REMARK  9 active torsions:
REMARK  status: ('A' for Active; 'I' for Inactive)
REMARK    1  A    between atoms: C_2  and  C_3
REMARK    2  A    between atoms: C_3  and  C_4
REMARK    3  A    between atoms: C_5  and  C_6
REMARK    4  A    between atoms: C_5  and  C_12
REMARK    5  A    between atoms: N_18  and  C_19
REMARK    6  A    between atoms: C_19  and  C_20
REMARK    7  A    between atoms: C_20  and  C_21
REMARK    8  A    between atoms: C_21  and  C_22
REMARK    9  A    between atoms: C_22  and  C_23
REMARK                            x       y       z     vdW  Elec       q    Type
REMARK                         _______ _______ _______ _____ _____    ______ ____
ROOT
ATOM      1  C   UNL     1       4.587   5.228  17.404  0.00  0.00    +0.000 C 
ENDROOT
BRANCH   1   3
ATOM      2  O   UNL     1       6.899   4.714  16.847  0.00  0.00    +0.000 OA
ATOM      3  C   UNL     1       6.070   5.550  17.179  0.00  0.00    +0.000 C 
ATOM      4  N   UNL     1       6.374   6.885  17.360  0.00  0.00    +0.000 N 
ATOM      5  H   UNL     1       5.637   7.510  17.667  0.00  0.00    +0.000 HD
BRANCH   4   6
ATOM      6  C   UNL     1       7.706   7.424  17.171  0.00  0.00    +0.000 C 
BRANCH   6   7
ATOM      7  C   UNL     1       8.215   8.135  18.425  0.00  0.00    +0.000 C 
BRANCH   7   8
ATOM      8  C   UNL     1       8.581   9.600  18.153  0.00  0.00    +0.000 C 
BRANCH   8   9
ATOM      9  C   UNL     1       9.298  10.237  19.344  0.00  0.00    +0.000 C 
BRANCH   9  10
ATOM     10  C   UNL     1      10.206  11.353  18.908  0.00  0.00    +0.000 A 
ATOM     11  C   UNL     1      11.510  11.462  19.395  0.00  0.00    +0.000 A 
ATOM     12  C   UNL     1      12.321  12.509  18.968  0.00  0.00    +0.000 A 
ATOM     13  C   UNL     1      11.794  13.424  18.072  0.00  0.00    +0.000 A 
ATOM     14  N   UNL     1      10.533  13.365  17.592  0.00  0.00    +0.000 NA
ATOM     15  C   UNL     1       9.770  12.335  18.020  0.00  0.00    +0.000 A 
ENDBRANCH   9  10
ENDBRANCH   8   9
ENDBRANCH   7   8
ENDBRANCH   6   7
ENDBRANCH   4   6
ENDBRANCH   1   3
BRANCH   1  16
ATOM     16  C   UNL     1       3.777   6.425  17.834  0.00  0.00    +0.000 C 
ATOM     17  C   UNL     1       2.694   6.383  18.645  0.00  0.00    +0.000 C 
BRANCH  17  18
ATOM     18  C   UNL     1       2.241   5.092  19.209  0.00  0.00    +0.000 A 
ATOM     19  C   UNL     1       2.561   4.746  20.527  0.00  0.00    +0.000 A 
ATOM     20  C   UNL     1       2.170   3.512  21.053  0.00  0.00    +0.000 A 
ATOM     21  C   UNL     1       1.448   2.615  20.267  0.00  0.00    +0.000 A 
ATOM     22  C   UNL     1       1.120   2.949  18.953  0.00  0.00    +0.000 A 
ATOM     23  C   UNL     1       1.517   4.181  18.424  0.00  0.00    +0.000 A 
ENDBRANCH  17  18
BRANCH  17  24
ATOM     24  C   UNL     1       2.001   7.667  18.897  0.00  0.00    +0.000 A 
ATOM     25  C   UNL     1       1.847   8.593  17.854  0.00  0.00    +0.000 A 
ATOM     26  C   UNL     1       1.254   9.836  18.090  0.00  0.00    +0.000 A 
ATOM     27  C   UNL     1       0.806  10.165  19.367  0.00  0.00    +0.000 A 
ATOM     28  C   UNL     1       0.938   9.244  20.407  0.00  0.00    +0.000 A 
ATOM     29  C   UNL     1       1.530   8.000  20.174  0.00  0.00    +0.000 A 
ENDBRANCH  17  24
ENDBRANCH   1  16
TORSDOF 9
ENDMDL
MODEL 2
REMARK VINA RESULT:      -8.6      0.811      1.559
REMARK  Name = 
REMARK  9 active torsions:
REMARK  status: ('A' for Active; 'I' for Inactive)
REMARK    1  A    between atoms: C_2  and  C_3
REMARK    2  A    between atoms: C_3  and  C_4
REMARK    3  A    between atoms: C_5  and  C_6
REMARK    4  A    between atoms: C_5  and  C_12
REMARK    5  A    between atoms: N_18  and  C_19
REMARK    6  A    between atoms: C_19  and  C_20
REMARK    7  A    between atoms: C_20  and  C_21
REMARK    8  A    between atoms: C_21  and  C_22
REMARK    9  A    between atoms: C_22  and  C_23
REMARK                            x       y       z     vdW  Elec       q    Type
REMARK                         _______ _______ _______ _____ _____    ______ ____
ROOT
ATOM      1  C   UNL     1       5.094   5.757  17.349  0.00  0.00    +0.000 C 
ENDROOT
BRANCH   1   3
ATOM      2  O   UNL     1       7.142   5.806  16.036  0.00  0.00    +0.000 OA
ATOM      3  C   UNL     1       6.466   6.300  16.928  0.00  0.00    +0.000 C 
ATOM      4  N   UNL     1       6.852   7.420  17.638  0.00  0.00    +0.000 N 
ATOM      5  H   UNL     1       6.251   7.749  18.385  0.00  0.00    +0.000 HD
BRANCH   4   6
ATOM      6  C   UNL     1       8.096   8.120  17.390  0.00  0.00    +0.000 C 
BRANCH   6   7
ATOM      7  C   UNL     1       8.106   9.507  18.035  0.00  0.00    +0.000 C 
BRANCH   7   8
ATOM      8  C   UNL     1       9.213   9.649  19.088  0.00  0.00    +0.000 C 
BRANCH   8   9
ATOM      9  C   UNL     1       9.231  11.047  19.707  0.00  0.00    +0.000 C 
BRANCH   9  10
ATOM     10  C   UNL     1       9.911  12.040  18.805  0.00  0.00    +0.000 A 
ATOM     11  C   UNL     1      11.093  11.722  18.133  0.00  0.00    +0.000 A 
ATOM     12  C   UNL     1      11.693  12.667  17.307  0.00  0.00    +0.000 A 
ATOM     13  C   UNL     1      11.095  13.910  17.188  0.00  0.00    +0.000 A 
ATOM     14  N   UNL     1       9.963  14.263  17.835  0.00  0.00    +0.000 NA
ATOM     15  C   UNL     1       9.400  13.324  18.627  0.00  0.00    +0.000 A 
ENDBRANCH   9  10
ENDBRANCH   8   9
ENDBRANCH   7   8
ENDBRANCH   6   7
ENDBRANCH   4   6
ENDBRANCH   1   3
BRANCH   1  16
ATOM     16  C   UNL     1       4.154   6.830  17.837  0.00  0.00    +0.000 C 
ATOM     17  C   UNL     1       2.999   6.609  18.508  0.00  0.00    +0.000 C 
BRANCH  17  18
ATOM     18  C   UNL     1       2.592   5.227  18.844  0.00  0.00    +0.000 A 
ATOM     19  C   UNL     1       1.717   4.525  18.005  0.00  0.00    +0.000 A 
ATOM     20  C   UNL     1       1.298   3.234  18.337  0.00  0.00    +0.000 A 
ATOM     21  C   UNL     1       1.756   2.629  19.506  0.00  0.00    +0.000 A 
ATOM     22  C   UNL     1       2.630   3.316  20.348  0.00  0.00    +0.000 A 
ATOM     23  C   UNL     1       3.045   4.611  20.020  0.00  0.00    +0.000 A 
ENDBRANCH  17  18
BRANCH  17  24
ATOM     24  C   UNL     1       2.186   7.800  18.844  0.00  0.00    +0.000 A 
ATOM     25  C   UNL     1       1.750   7.998  20.162  0.00  0.00    +0.000 A 
ATOM     26  C   UNL     1       0.929   9.083  20.483  0.00  0.00    +0.000 A 
ATOM     27  C   UNL     1       0.538   9.980  19.492  0.00  0.00    +0.000 A 
ATOM     28  C   UNL     1       0.981   9.802  18.182  0.00  0.00    +0.000 A 
ATOM     29  C   UNL     1       1.804   8.719  17.858  0.00  0.00    +0.000 A 
ENDBRANCH  17  24
ENDBRANCH   1  16
TORSDOF 9
ENDMDL
MODEL 3
REMARK VINA RESULT:      -8.6      1.234      1.581
REMARK  Name = 
REMARK  9 active torsions:
REMARK  status: ('A' for Active; 'I' for Inactive)
REMARK    1  A    between atoms: C_2  and  C_3
REMARK    2  A    between atoms: C_3  and  C_4
REMARK    3  A    between atoms: C_5  and  C_6
REMARK    4  A    between atoms: C_5  and  C_12
REMARK    5  A    between atoms: N_18  and  C_19
REMARK    6  A    between atoms: C_19  and  C_20
REMARK    7  A    between atoms: C_20  and  C_21
REMARK    8  A    between atoms: C_21  and  C_22
REMARK    9  A    between atoms: C_22  and  C_23
REMARK                            x       y       z     vdW  Elec       q    Type
REMARK                         _______ _______ _______ _____ _____    ______ ____
ROOT
ATOM      1  C   UNL     1       5.063   5.840  16.788  0.00  0.00    +0.000 C 
ENDROOT
BRANCH   1   3
ATOM      2  O   UNL     1       7.348   5.950  15.960  0.00  0.00    +0.000 OA
ATOM      3  C   UNL     1       6.526   6.301  16.796  0.00  0.00    +0.000 C 
ATOM      4  N   UNL     1       6.819   7.175  17.825  0.00  0.00    +0.000 N 
ATOM      5  H   UNL     1       6.092   7.391  18.496  0.00  0.00    +0.000 HD
BRANCH   4   6
ATOM      6  C   UNL     1       8.131   7.763  18.010  0.00  0.00    +0.000 C 
BRANCH   6   7
ATOM      7  C   UNL     1       8.099   9.284  17.853  0.00  0.00    +0.000 C 
BRANCH   7   8
ATOM      8  C   UNL     1       9.035   9.989  18.842  0.00  0.00    +0.000 C 
BRANCH   8   9
ATOM      9  C   UNL     1       9.984  10.957  18.134  0.00  0.00    +0.000 C 
BRANCH   9  10
ATOM     10  C   UNL     1      10.275  12.163  18.983  0.00  0.00    +0.000 A 
ATOM     11  C   UNL     1      11.523  12.788  18.956  0.00  0.00    +0.000 A 
ATOM     12  C   UNL     1      11.755  13.902  19.757  0.00  0.00    +0.000 A 
ATOM     13  C   UNL     1      10.729  14.351  20.571  0.00  0.00    +0.000 A 
ATOM     14  N   UNL     1       9.515  13.764  20.640  0.00  0.00    +0.000 NA
ATOM     15  C   UNL     1       9.316  12.687  19.849  0.00  0.00    +0.000 A 
ENDBRANCH   9  10
ENDBRANCH   8   9
ENDBRANCH   7   8
ENDBRANCH   6   7
ENDBRANCH   4   6
ENDBRANCH   1   3
BRANCH   1  16
ATOM     16  C   UNL     1       4.123   6.833  17.423  0.00  0.00    +0.000 C 
ATOM     17  C   UNL     1       3.077   6.516  18.222  0.00  0.00    +0.000 C 
BRANCH  17  18
ATOM     18  C   UNL     1       2.804   5.102  18.557  0.00  0.00    +0.000 A 
ATOM     19  C   UNL     1       1.811   4.393  17.870  0.00  0.00    +0.000 A 
ATOM     20  C   UNL     1       1.522   3.068  18.207  0.00  0.00    +0.000 A 
ATOM     21  C   UNL     1       2.229   2.437  19.230  0.00  0.00    +0.000 A 
ATOM     22  C   UNL     1       3.222   3.131  19.919  0.00  0.00    +0.000 A 
ATOM     23  C   UNL     1       3.508   4.459  19.587  0.00  0.00    +0.000 A 
ENDBRANCH  17  18
BRANCH  17  24
ATOM     24  C   UNL     1       2.237   7.641  18.696  0.00  0.00    +0.000 A 
ATOM     25  C   UNL     1       1.833   8.638  17.796  0.00  0.00    +0.000 A 
ATOM     26  C   UNL     1       1.096   9.738  18.240  0.00  0.00    +0.000 A 
ATOM     27  C   UNL     1       0.753   9.852  19.585  0.00  0.00    +0.000 A 
ATOM     28  C   UNL     1       1.134   8.857  20.485  0.00  0.00    +0.000 A 
ATOM     29  C   UNL     1       1.871   7.754  20.044  0.00  0.00    +0.000 A 
ENDBRANCH  17  24
ENDBRANCH   1  16
TORSDOF 9
ENDMDL
MODEL 4
REMARK VINA RESULT:      -8.4      3.847      8.557
REMARK  Name = 
REMARK  9 active torsions:
REMARK  status: ('A' for Active; 'I' for Inactive)
REMARK    1  A    between atoms: C_2  and  C_3
REMARK    2  A    between atoms: C_3  and  C_4
REMARK    3  A    between atoms: C_5  and  C_6
REMARK    4  A    between atoms: C_5  and  C_12
REMARK    5  A    between atoms: N_18  and  C_19
REMARK    6  A    between atoms: C_19  and  C_20
REMARK    7  A    between atoms: C_20  and  C_21
REMARK    8  A    between atoms: C_21  and  C_22
REMARK    9  A    between atoms: C_22  and  C_23
REMARK                            x       y       z     vdW  Elec       q    Type
REMARK                         _______ _______ _______ _____ _____    ______ ____
ROOT
ATOM      1  C   UNL     1       4.349   3.753  17.756  0.00  0.00    +0.000 C 
ENDROOT
BRANCH   1   3
ATOM      2  O   UNL     1       2.064   4.550  17.501  0.00  0.00    +0.000 OA
ATOM      3  C   UNL     1       3.197   4.754  17.915  0.00  0.00    +0.000 C 
ATOM      4  N   UNL     1       3.557   5.900  18.598  0.00  0.00    +0.000 N 
ATOM      5  H   UNL     1       4.525   6.009  18.880  0.00  0.00    +0.000 HD
BRANCH   4   6
ATOM      6  C   UNL     1       2.624   6.969  18.891  0.00  0.00    +0.000 C 
BRANCH   6   7
ATOM      7  C   UNL     1       2.816   8.163  17.955  0.00  0.00    +0.000 C 
BRANCH   7   8
ATOM      8  C   UNL     1       1.489   8.857  17.622  0.00  0.00    +0.000 C 
BRANCH   8   9
ATOM      9  C   UNL     1       0.984   9.708  18.789  0.00  0.00    +0.000 C 
BRANCH   9  10
ATOM     10  C   UNL     1      -0.339  10.347  18.472  0.00  0.00    +0.000 A 
ATOM     11  C   UNL     1      -1.249   9.742  17.603  0.00  0.00    +0.000 A 
ATOM     12  C   UNL     1      -2.465  10.364  17.334  0.00  0.00    +0.000 A 
ATOM     13  C   UNL     1      -2.726  11.584  17.936  0.00  0.00    +0.000 A 
ATOM     14  N   UNL     1      -1.864  12.210  18.766  0.00  0.00    +0.000 NA
ATOM     15  C   UNL     1      -0.694  11.581  19.013  0.00  0.00    +0.000 A 
ENDBRANCH   9  10
ENDBRANCH   8   9
ENDBRANCH   7   8
ENDBRANCH   6   7
ENDBRANCH   4   6
ENDBRANCH   1   3
BRANCH   1  16
ATOM     16  C   UNL     1       4.915   3.715  16.360  0.00  0.00    +0.000 C 
ATOM     17  C   UNL     1       5.992   4.418  15.935  0.00  0.00    +0.000 C 
BRANCH  17  18
ATOM     18  C   UNL     1       6.729   5.284  16.880  0.00  0.00    +0.000 A 
ATOM     19  C   UNL     1       7.466   4.719  17.927  0.00  0.00    +0.000 A 
ATOM     20  C   UNL     1       8.133   5.534  18.846  0.00  0.00    +0.000 A 
ATOM     21  C   UNL     1       8.075   6.921  18.723  0.00  0.00    +0.000 A 
ATOM     22  C   UNL     1       7.347   7.496  17.682  0.00  0.00    +0.000 A 
ATOM     23  C   UNL     1       6.674   6.682  16.765  0.00  0.00    +0.000 A 
ENDBRANCH  17  18
BRANCH  17  24
ATOM     24  C   UNL     1       6.349   4.287  14.504  0.00  0.00    +0.000 A 
ATOM     25  C   UNL     1       7.423   5.023  13.982  0.00  0.00    +0.000 A 
ATOM     26  C   UNL     1       7.732   4.961  12.621  0.00  0.00    +0.000 A 
ATOM     27  C   UNL     1       6.974   4.161  11.769  0.00  0.00    +0.000 A 
ATOM     28  C   UNL     1       5.916   3.411  12.280  0.00  0.00    +0.000 A 
ATOM     29  C   UNL     1       5.605   3.470  13.642  0.00  0.00    +0.000 A 
ENDBRANCH  17  24
ENDBRANCH   1  16
TORSDOF 9
ENDMDL
MODEL 5
REMARK VINA RESULT:      -8.4      1.440      1.981
REMARK  Name = 
REMARK  9 active torsions:
REMARK  status: ('A' for Active; 'I' for Inactive)
REMARK    1  A    between atoms: C_2  and  C_3
REMARK    2  A    between atoms: C_3  and  C_4
REMARK    3  A    between atoms: C_5  and  C_6
REMARK    4  A    between atoms: C_5  and  C_12
REMARK    5  A    between atoms: N_18  and  C_19
REMARK    6  A    between atoms: C_19  and  C_20
REMARK    7  A    between atoms: C_20  and  C_21
REMARK    8  A    between atoms: C_21  and  C_22
REMARK    9  A    between atoms: C_22  and  C_23
REMARK                            x       y       z     vdW  Elec       q    Type
REMARK                         _______ _______ _______ _____ _____    ______ ____
ROOT
ATOM      1  C   UNL     1       5.103   5.882  16.994  0.00  0.00    +0.000 C 
ENDROOT
BRANCH   1   3
ATOM      2  O   UNL     1       7.376   5.863  16.126  0.00  0.00    +0.000 OA
ATOM      3  C   UNL     1       6.545   6.389  16.853  0.00  0.00    +0.000 C 
ATOM      4  N   UNL     1       6.805   7.516  17.608  0.00  0.00    +0.000 N 
ATOM      5  H   UNL     1       6.072   7.873  18.211  0.00  0.00    +0.000 HD
BRANCH   4   6
ATOM      6  C   UNL     1       8.089   8.187  17.607  0.00  0.00    +0.000 C 
BRANCH   6   7
ATOM      7  C   UNL     1       7.963   9.659  18.004  0.00  0.00    +0.000 C 
BRANCH   7   8
ATOM      8  C   UNL     1       9.305  10.258  18.443  0.00  0.00    +0.000 C 
BRANCH   8   9
ATOM      9  C   UNL     1       9.353  10.499  19.953  0.00  0.00    +0.000 C 
BRANCH   9  10
ATOM     10  C   UNL     1       9.837  11.885  20.274  0.00  0.00    +0.000 A 
ATOM     11  C   UNL     1      10.768  12.536  19.463  0.00  0.00    +0.000 A 
ATOM     12  C   UNL     1      11.193  13.820  19.792  0.00  0.00    +0.000 A 
ATOM     13  C   UNL     1      10.678  14.409  20.935  0.00  0.00    +0.000 A 
ATOM     14  N   UNL     1       9.791  13.806  21.755  0.00  0.00    +0.000 NA
ATOM     15  C   UNL     1       9.393  12.562  21.408  0.00  0.00    +0.000 A 
ENDBRANCH   9  10
ENDBRANCH   8   9
ENDBRANCH   7   8
ENDBRANCH   6   7
ENDBRANCH   4   6
ENDBRANCH   1   3
BRANCH   1  16
ATOM     16  C   UNL     1       4.165   6.911  17.573  0.00  0.00    +0.000 C 
ATOM     17  C   UNL     1       3.071   6.635  18.321  0.00  0.00    +0.000 C 
BRANCH  17  18
ATOM     18  C   UNL     1       2.737   5.233  18.654  0.00  0.00    +0.000 A 
ATOM     19  C   UNL     1       1.821   4.521  17.870  0.00  0.00    +0.000 A 
ATOM     20  C   UNL     1       1.472   3.209  18.201  0.00  0.00    +0.000 A 
ATOM     21  C   UNL     1       2.041   2.594  19.315  0.00  0.00    +0.000 A 
ATOM     22  C   UNL     1       2.957   3.291  20.102  0.00  0.00    +0.000 A 
ATOM     23  C   UNL     1       3.302   4.607  19.775  0.00  0.00    +0.000 A 
ENDBRANCH  17  18
BRANCH  17  24
ATOM     24  C   UNL     1       2.245   7.790  18.742  0.00  0.00    +0.000 A 
ATOM     25  C   UNL     1       1.831   7.901  20.078  0.00  0.00    +0.000 A 
ATOM     26  C   UNL     1       0.997   8.950  20.477  0.00  0.00    +0.000 A 
ATOM     27  C   UNL     1       0.572   9.896  19.549  0.00  0.00    +0.000 A 
ATOM     28  C   UNL     1       0.993   9.805  18.222  0.00  0.00    +0.000 A 
ATOM     29  C   UNL     1       1.827   8.758  17.819  0.00  0.00    +0.000 A 
ENDBRANCH  17  24
ENDBRANCH   1  16
TORSDOF 9
ENDMDL
MODEL 6
REMARK VINA RESULT:      -8.4      3.822      8.521
REMARK  Name = 
REMARK  9 active torsions:
REMARK  status: ('A' for Active; 'I' for Inactive)
REMARK    1  A    between atoms: C_2  and  C_3
REMARK    2  A    between atoms: C_3  and  C_4
REMARK    3  A    between atoms: C_5  and  C_6
REMARK    4  A    between atoms: C_5  and  C_12
REMARK    5  A    between atoms: N_18  and  C_19
REMARK    6  A    between atoms: C_19  and  C_20
REMARK    7  A    between atoms: C_20  and  C_21
REMARK    8  A    between atoms: C_21  and  C_22
REMARK    9  A    between atoms: C_22  and  C_23
REMARK                            x       y       z     vdW  Elec       q    Type
REMARK                         _______ _______ _______ _____ _____    ______ ____
ROOT
ATOM      1  C   UNL     1       4.128   3.959  17.785  0.00  0.00    +0.000 C 
ENDROOT
BRANCH   1   3
ATOM      2  O   UNL     1       1.848   4.776  17.548  0.00  0.00    +0.000 OA
ATOM      3  C   UNL     1       3.002   4.997  17.889  0.00  0.00    +0.000 C 
ATOM      4  N   UNL     1       3.413   6.198  18.431  0.00  0.00    +0.000 N 
ATOM      5  H   UNL     1       4.394   6.314  18.659  0.00  0.00    +0.000 HD
BRANCH   4   6
ATOM      6  C   UNL     1       2.514   7.313  18.653  0.00  0.00    +0.000 C 
BRANCH   6   7
ATOM      7  C   UNL     1       2.741   8.436  17.640  0.00  0.00    +0.000 C 
BRANCH   7   8
ATOM      8  C   UNL     1       1.817   9.635  17.887  0.00  0.00    +0.000 C 
BRANCH   8   9
ATOM      9  C   UNL     1       0.927   9.423  19.113  0.00  0.00    +0.000 C 
BRANCH   9  10
ATOM     10  C   UNL     1      -0.329  10.245  19.031  0.00  0.00    +0.000 A 
ATOM     11  C   UNL     1      -1.165  10.186  17.914  0.00  0.00    +0.000 A 
ATOM     12  C   UNL     1      -2.319  10.963  17.873  0.00  0.00    +0.000 A 
ATOM     13  C   UNL     1      -2.595  11.786  18.952  0.00  0.00    +0.000 A 
ATOM     14  N   UNL     1      -1.802  11.886  20.041  0.00  0.00    +0.000 NA
ATOM     15  C   UNL     1      -0.691  11.117  20.055  0.00  0.00    +0.000 A 
ENDBRANCH   9  10
ENDBRANCH   8   9
ENDBRANCH   7   8
ENDBRANCH   6   7
ENDBRANCH   4   6
ENDBRANCH   1   3
BRANCH   1  16
ATOM     16  C   UNL     1       4.727   3.869  16.405  0.00  0.00    +0.000 C 
ATOM     17  C   UNL     1       5.847   4.513  15.997  0.00  0.00    +0.000 C 
BRANCH  17  18
ATOM     18  C   UNL     1       6.599   5.361  16.947  0.00  0.00    +0.000 A 
ATOM     19  C   UNL     1       6.598   6.754  16.803  0.00  0.00    +0.000 A 
ATOM     20  C   UNL     1       7.338   7.559  17.673  0.00  0.00    +0.000 A 
ATOM     21  C   UNL     1       8.079   6.979  18.701  0.00  0.00    +0.000 A 
ATOM     22  C   UNL     1       8.086   5.593  18.858  0.00  0.00    +0.000 A 
ATOM     23  C   UNL     1       7.351   4.787  17.983  0.00  0.00    +0.000 A 
ENDBRANCH  17  18
BRANCH  17  24
ATOM     24  C   UNL     1       6.235   4.339  14.578  0.00  0.00    +0.000 A 
ATOM     25  C   UNL     1       7.348   5.025  14.071  0.00  0.00    +0.000 A 
ATOM     26  C   UNL     1       7.689   4.923  12.719  0.00  0.00    +0.000 A 
ATOM     27  C   UNL     1       6.923   4.134  11.864  0.00  0.00    +0.000 A 
ATOM     28  C   UNL     1       5.825   3.434  12.363  0.00  0.00    +0.000 A 
ATOM     29  C   UNL     1       5.482   3.533  13.714  0.00  0.00    +0.000 A 
ENDBRANCH  17  24
ENDBRANCH   1  16
TORSDOF 9
ENDMDL
MODEL 7
REMARK VINA RESULT:      -8.4      1.214      1.561
REMARK  Name = 
REMARK  9 active torsions:
REMARK  status: ('A' for Active; 'I' for Inactive)
REMARK    1  A    between atoms: C_2  and  C_3
REMARK    2  A    between atoms: C_3  and  C_4
REMARK    3  A    between atoms: C_5  and  C_6
REMARK    4  A    between atoms: C_5  and  C_12
REMARK    5  A    between atoms: N_18  and  C_19
REMARK    6  A    between atoms: C_19  and  C_20
REMARK    7  A    between atoms: C_20  and  C_21
REMARK    8  A    between atoms: C_21  and  C_22
REMARK    9  A    between atoms: C_22  and  C_23
REMARK                            x       y       z     vdW  Elec       q    Type
REMARK                         _______ _______ _______ _____ _____    ______ ____
ROOT
ATOM      1  C   UNL     1       5.066   5.662  17.075  0.00  0.00    +0.000 C 
ENDROOT
BRANCH   1   3
ATOM      2  O   UNL     1       7.344   5.557  16.226  0.00  0.00    +0.000 OA
ATOM      3  C   UNL     1       6.517   6.136  16.918  0.00  0.00    +0.000 C 
ATOM      4  N   UNL     1       6.793   7.297  17.613  0.00  0.00    +0.000 N 
ATOM      5  H   UNL     1       6.063   7.699  18.190  0.00  0.00    +0.000 HD
BRANCH   4   6
ATOM      6  C   UNL     1       8.089   7.944  17.585  0.00  0.00    +0.000 C 
BRANCH   6   7
ATOM      7  C   UNL     1       7.978   9.451  17.822  0.00  0.00    +0.000 C 
BRANCH   7   8
ATOM      8  C   UNL     1       8.990   9.952  18.861  0.00  0.00    +0.000 C 
BRANCH   8   9
ATOM      9  C   UNL     1       9.952  10.980  18.265  0.00  0.00    +0.000 C 
BRANCH   9  10
ATOM     10  C   UNL     1       9.912  12.276  19.025  0.00  0.00    +0.000 A 
ATOM     11  C   UNL     1      10.554  12.418  20.257  0.00  0.00    +0.000 A 
ATOM     12  C   UNL     1      10.494  13.633  20.932  0.00  0.00    +0.000 A 
ATOM     13  C   UNL     1       9.780  14.670  20.354  0.00  0.00    +0.000 A 
ATOM     14  N   UNL     1       9.130  14.568  19.175  0.00  0.00    +0.000 NA
ATOM     15  C   UNL     1       9.209  13.378  18.540  0.00  0.00    +0.000 A 
ENDBRANCH   9  10
ENDBRANCH   8   9
ENDBRANCH   7   8
ENDBRANCH   6   7
ENDBRANCH   4   6
ENDBRANCH   1   3
BRANCH   1  16
ATOM     16  C   UNL     1       4.151   6.726  17.627  0.00  0.00    +0.000 C 
ATOM     17  C   UNL     1       3.038   6.492  18.363  0.00  0.00    +0.000 C 
BRANCH  17  18
ATOM     18  C   UNL     1       2.660   5.105  18.711  0.00  0.00    +0.000 A 
ATOM     19  C   UNL     1       3.255   4.463  19.803  0.00  0.00    +0.000 A 
ATOM     20  C   UNL     1       2.930   3.140  20.113  0.00  0.00    +0.000 A 
ATOM     21  C   UNL     1       2.001   2.449  19.338  0.00  0.00    +0.000 A 
ATOM     22  C   UNL     1       1.397   3.078  18.250  0.00  0.00    +0.000 A 
ATOM     23  C   UNL     1       1.727   4.400  17.935  0.00  0.00    +0.000 A 
ENDBRANCH  17  18
BRANCH  17  24
ATOM     24  C   UNL     1       2.240   7.676  18.757  0.00  0.00    +0.000 A 
ATOM     25  C   UNL     1       1.844   7.838  20.092  0.00  0.00    +0.000 A 
ATOM     26  C   UNL     1       1.037   8.915  20.467  0.00  0.00    +0.000 A 
ATOM     27  C   UNL     1       0.619   9.841  19.514  0.00  0.00    +0.000 A 
ATOM     28  C   UNL     1       1.023   9.699  18.186  0.00  0.00    +0.000 A 
ATOM     29  C   UNL     1       1.832   8.623  17.808  0.00  0.00    +0.000 A 
ENDBRANCH  17  24
ENDBRANCH   1  16
TORSDOF 9
ENDMDL
MODEL 8
REMARK VINA RESULT:      -8.3      4.555      8.730
REMARK  Name = 
REMARK  9 active torsions:
REMARK  status: ('A' for Active; 'I' for Inactive)
REMARK    1  A    between atoms: C_2  and  C_3
REMARK    2  A    between atoms: C_3  and  C_4
REMARK    3  A    between atoms: C_5  and  C_6
REMARK    4  A    between atoms: C_5  and  C_12
REMARK    5  A    between atoms: N_18  and  C_19
REMARK    6  A    between atoms: C_19  and  C_20
REMARK    7  A    between atoms: C_20  and  C_21
REMARK    8  A    between atoms: C_21  and  C_22
REMARK    9  A    between atoms: C_22  and  C_23
REMARK                            x       y       z     vdW  Elec       q    Type
REMARK                         _______ _______ _______ _____ _____    ______ ____
ROOT
ATOM      1  C   UNL     1       1.906   7.724  18.679  0.00  0.00    +0.000 C 
ENDROOT
BRANCH   1   3
ATOM      2  O   UNL     1       2.113   9.814  17.450  0.00  0.00    +0.000 OA
ATOM      3  C   UNL     1       1.709   9.228  18.445  0.00  0.00    +0.000 C 
ATOM      4  N   UNL     1       1.005   9.852  19.456  0.00  0.00    +0.000 N 
ATOM      5  H   UNL     1       0.733   9.303  20.264  0.00  0.00    +0.000 HD
BRANCH   4   6
ATOM      6  C   UNL     1       0.675  11.263  19.433  0.00  0.00    +0.000 C 
BRANCH   6   7
ATOM      7  C   UNL     1      -0.620  11.556  20.193  0.00  0.00    +0.000 C 
BRANCH   7   8
ATOM      8  C   UNL     1      -1.570  12.456  19.393  0.00  0.00    +0.000 C 
BRANCH   8   9
ATOM      9  C   UNL     1      -2.936  11.800  19.188  0.00  0.00    +0.000 C 
BRANCH   9  10
ATOM     10  C   UNL     1      -3.043  11.164  17.830  0.00  0.00    +0.000 A 
ATOM     11  C   UNL     1      -2.130  10.196  17.407  0.00  0.00    +0.000 A 
ATOM     12  C   UNL     1      -2.260   9.630  16.142  0.00  0.00    +0.000 A 
ATOM     13  C   UNL     1      -3.298  10.060  15.334  0.00  0.00    +0.000 A 
ATOM     14  N   UNL     1      -4.190  11.007  15.698  0.00  0.00    +0.000 NA
ATOM     15  C   UNL     1      -4.042  11.536  16.933  0.00  0.00    +0.000 A 
ENDBRANCH   9  10
ENDBRANCH   8   9
ENDBRANCH   7   8
ENDBRANCH   6   7
ENDBRANCH   4   6
ENDBRANCH   1   3
BRANCH   1  16
ATOM     16  C   UNL     1       3.099   7.161  17.949  0.00  0.00    +0.000 C 
ATOM     17  C   UNL     1       3.471   5.859  17.952  0.00  0.00    +0.000 C 
BRANCH  17  18
ATOM     18  C   UNL     1       2.665   4.861  18.688  0.00  0.00    +0.000 A 
ATOM     19  C   UNL     1       1.703   4.097  18.017  0.00  0.00    +0.000 A 
ATOM     20  C   UNL     1       0.911   3.180  18.714  0.00  0.00    +0.000 A 
ATOM     21  C   UNL     1       1.079   3.013  20.087  0.00  0.00    +0.000 A 
ATOM     22  C   UNL     1       2.036   3.766  20.767  0.00  0.00    +0.000 A 
ATOM     23  C   UNL     1       2.825   4.688  20.072  0.00  0.00    +0.000 A 
ENDBRANCH  17  18
BRANCH  17  24
ATOM     24  C   UNL     1       4.713   5.520  17.220  0.00  0.00    +0.000 A 
ATOM     25  C   UNL     1       4.759   4.370  16.419  0.00  0.00    +0.000 A 
ATOM     26  C   UNL     1       5.943   4.001  15.773  0.00  0.00    +0.000 A 
ATOM     27  C   UNL     1       7.089   4.778  15.920  0.00  0.00    +0.000 A 
ATOM     28  C   UNL     1       7.049   5.934  16.700  0.00  0.00    +0.000 A 
ATOM     29  C   UNL     1       5.866   6.306  17.346  0.00  0.00    +0.000 A 
ENDBRANCH  17  24
ENDBRANCH   1  16
TORSDOF 9
ENDMDL
MODEL 9
REMARK VINA RESULT:      -8.3      3.819      8.222
REMARK  Name = 
REMARK  9 active torsions:
REMARK  status: ('A' for Active; 'I' for Inactive)
REMARK    1  A    between atoms: C_2  and  C_3
REMARK    2  A    between atoms: C_3  and  C_4
REMARK    3  A    between atoms: C_5  and  C_6
REMARK    4  A    between atoms: C_5  and  C_12
REMARK    5  A    between atoms: N_18  and  C_19
REMARK    6  A    between atoms: C_19  and  C_20
REMARK    7  A    between atoms: C_20  and  C_21
REMARK    8  A    between atoms: C_21  and  C_22
REMARK    9  A    between atoms: C_22  and  C_23
REMARK                            x       y       z     vdW  Elec       q    Type
REMARK                         _______ _______ _______ _____ _____    ______ ____
ROOT
ATOM      1  C   UNL     1       4.267   3.796  17.816  0.00  0.00    +0.000 C 
ENDROOT
BRANCH   1   3
ATOM      2  O   UNL     1       1.949   4.522  17.677  0.00  0.00    +0.000 OA
ATOM      3  C   UNL     1       3.102   4.778  17.996  0.00  0.00    +0.000 C 
ATOM      4  N   UNL     1       3.478   5.973  18.578  0.00  0.00    +0.000 N 
ATOM      5  H   UNL     1       4.459   6.121  18.783  0.00  0.00    +0.000 HD
BRANCH   4   6
ATOM      6  C   UNL     1       2.539   7.036  18.872  0.00  0.00    +0.000 C 
BRANCH   6   7
ATOM      7  C   UNL     1       2.271   7.912  17.647  0.00  0.00    +0.000 C 
BRANCH   7   8
ATOM      8  C   UNL     1       2.002   9.374  18.027  0.00  0.00    +0.000 C 
BRANCH   8   9
ATOM      9  C   UNL     1       0.505   9.679  18.089  0.00  0.00    +0.000 C 
BRANCH   9  10
ATOM     10  C   UNL     1       0.141  10.396  19.360  0.00  0.00    +0.000 A 
ATOM     11  C   UNL     1      -1.061  11.096  19.480  0.00  0.00    +0.000 A 
ATOM     12  C   UNL     1      -1.364  11.748  20.672  0.00  0.00    +0.000 A 
ATOM     13  C   UNL     1      -0.444  11.687  21.705  0.00  0.00    +0.000 A 
ATOM     14  N   UNL     1       0.737  11.038  21.622  0.00  0.00    +0.000 NA
ATOM     15  C   UNL     1       1.002  10.410  20.455  0.00  0.00    +0.000 A 
ENDBRANCH   9  10
ENDBRANCH   8   9
ENDBRANCH   7   8
ENDBRANCH   6   7
ENDBRANCH   4   6
ENDBRANCH   1   3
BRANCH   1  16
ATOM     16  C   UNL     1       4.825   3.785  16.415  0.00  0.00    +0.000 C 
ATOM     17  C   UNL     1       5.901   4.494  15.999  0.00  0.00    +0.000 C 
BRANCH  17  18
ATOM     18  C   UNL     1       6.645   5.339  16.958  0.00  0.00    +0.000 A 
ATOM     19  C   UNL     1       6.628   6.733  16.831  0.00  0.00    +0.000 A 
ATOM     20  C   UNL     1       7.361   7.535  17.710  0.00  0.00    +0.000 A 
ATOM     21  C   UNL     1       8.112   6.951  18.729  0.00  0.00    +0.000 A 
ATOM     22  C   UNL     1       8.134   5.563  18.867  0.00  0.00    +0.000 A 
ATOM     23  C   UNL     1       7.407   4.760  17.984  0.00  0.00    +0.000 A 
ENDBRANCH  17  18
BRANCH  17  24
ATOM     24  C   UNL     1       6.250   4.392  14.563  0.00  0.00    +0.000 A 
ATOM     25  C   UNL     1       5.506   3.551  13.723  0.00  0.00    +0.000 A 
ATOM     26  C   UNL     1       5.862   3.393  12.380  0.00  0.00    +0.000 A 
ATOM     27  C   UNL     1       6.962   4.076  11.865  0.00  0.00    +0.000 A 
ATOM     28  C   UNL     1       7.697   4.929  12.688  0.00  0.00    +0.000 A 
ATOM     29  C   UNL     1       7.342   5.089  14.031  0.00  0.00    +0.000 A 
ENDBRANCH  17  24
ENDBRANCH   1  16
TORSDOF 9
ENDMDL
