MODEL 1
REMARK VINA RESULT:      -6.8      0.000      0.000
REMARK  Name = 
REMARK  5 active torsions:
REMARK  status: ('A' for Active; 'I' for Inactive)
REMARK    1  A    between atoms: C_1  and  C_2
REMARK    2  A    between atoms: C_12  and  O_13
REMARK    3  A    between atoms: C_17  and  S_18
REMARK    4  A    between atoms: S_18  and  C_19
REMARK    5  A    between atoms: C_19  and  C_20
REMARK                            x       y       z     vdW  Elec       q    Type
REMARK                         _______ _______ _______ _____ _____    ______ ____
ROOT
ATOM      1  C   UNL     1      -7.191  13.217  20.954  0.00  0.00    +0.000 C 
ATOM      2  C   UNL     1      -5.786  12.796  20.535  0.00  0.00    +0.000 C 
ATOM      3  C   UNL     1      -5.838  11.689  19.478  0.00  0.00    +0.000 C 
ATOM      4  C   UNL     1      -4.600  11.768  18.587  0.00  0.00    +0.000 C 
ATOM      5  C   UNL     1      -4.641  10.751  17.455  0.00  0.00    +0.000 C 
ATOM      6  C   UNL     1      -3.400  10.832  16.557  0.00  0.00    +0.000 C 
ATOM      7  C   UNL     1      -2.209  10.024  17.084  0.00  0.00    +0.000 C 
ATOM      8  C   UNL     1      -1.191  10.861  17.861  0.00  0.00    +0.000 C 
ATOM      9  C   UNL     1      -0.054   9.979  18.382  0.00  0.00    +0.000 C 
ATOM     10  C   UNL     1       0.910  10.708  19.325  0.00  0.00    +0.000 C 
ATOM     11  C   UNL     1       0.530  10.579  20.810  0.00  0.00    +0.000 C 
ATOM     12  C   UNL     1      -0.340  11.736  21.316  0.00  0.00    +0.000 C 
ATOM     13  C   UNL     1      -0.868  11.502  22.739  0.00  0.00    +0.000 C 
ATOM     14  O   UNL     1      -0.656  10.477  23.367  0.00  0.00    +0.000 OA
ATOM     15  C   UNL     1      -1.758  12.596  23.327  0.00  0.00    +0.000 C 
ATOM     16  C   UNL     1      -3.234  12.173  23.205  0.00  0.00    +0.000 C 
ATOM     17  C   UNL     1      -3.821  12.701  21.900  0.00  0.00    +0.000 C 
ATOM     18  O   UNL     1      -3.203  13.430  21.135  0.00  0.00    +0.000 OA
ATOM     19  O   UNL     1      -5.087  12.268  21.680  0.00  0.00    +0.000 OA
ENDROOT
BRANCH  12  20
ATOM     20  O   UNL     1       0.408  12.946  21.264  0.00  0.00    +0.000 OA
ATOM     21  H   UNL     1       1.350  12.719  21.365  0.00  0.00    +0.000 HD
ENDBRANCH  12  20
BRANCH  16  22
ATOM     22  S   UNL     1      -4.185  12.897  24.629  0.00  0.00    +0.000 S 
BRANCH  22  23
ATOM     23  C   UNL     1      -4.137  14.694  24.199  0.00  0.00    +0.000 C 
BRANCH  23  24
ATOM     24  C   UNL     1      -5.465  15.348  23.823  0.00  0.00    +0.000 C 
ATOM     25  F   UNL     1      -5.518  15.735  22.530  0.00  0.00    +0.000 F 
ATOM     26  F   UNL     1      -6.493  14.497  24.026  0.00  0.00    +0.000 F 
ATOM     27  F   UNL     1      -5.699  16.450  24.575  0.00  0.00    +0.000 F 
ENDBRANCH  23  24
ENDBRANCH  22  23
ENDBRANCH  16  22
TORSDOF 4
ENDMDL
MODEL 2
REMARK VINA RESULT:      -6.8      1.073      1.338
REMARK  Name = 
REMARK  5 active torsions:
REMARK  status: ('A' for Active; 'I' for Inactive)
REMARK    1  A    between atoms: C_1  and  C_2
REMARK    2  A    between atoms: C_12  and  O_13
REMARK    3  A    between atoms: C_17  and  S_18
REMARK    4  A    between atoms: S_18  and  C_19
REMARK    5  A    between atoms: C_19  and  C_20
REMARK                            x       y       z     vdW  Elec       q    Type
REMARK                         _______ _______ _______ _____ _____    ______ ____
ROOT
ATOM      1  C   UNL     1      -7.026  13.343  20.718  0.00  0.00    +0.000 C 
ATOM      2  C   UNL     1      -5.617  12.869  20.373  0.00  0.00    +0.000 C 
ATOM      3  C   UNL     1      -5.654  11.763  19.316  0.00  0.00    +0.000 C 
ATOM      4  C   UNL     1      -4.369  11.794  18.490  0.00  0.00    +0.000 C 
ATOM      5  C   UNL     1      -4.388  10.775  17.359  0.00  0.00    +0.000 C 
ATOM      6  C   UNL     1      -3.100  10.808  16.528  0.00  0.00    +0.000 C 
ATOM      7  C   UNL     1      -1.969   9.959  17.116  0.00  0.00    +0.000 C 
ATOM      8  C   UNL     1      -0.963  10.760  17.945  0.00  0.00    +0.000 C 
ATOM      9  C   UNL     1       0.113   9.838  18.525  0.00  0.00    +0.000 C 
ATOM     10  C   UNL     1       1.052  10.534  19.516  0.00  0.00    +0.000 C 
ATOM     11  C   UNL     1       0.590  10.423  20.980  0.00  0.00    +0.000 C 
ATOM     12  C   UNL     1      -0.262  11.613  21.439  0.00  0.00    +0.000 C 
ATOM     13  C   UNL     1      -0.871  11.403  22.833  0.00  0.00    +0.000 C 
ATOM     14  O   UNL     1      -0.730  10.373  23.472  0.00  0.00    +0.000 OA
ATOM     15  C   UNL     1      -1.750  12.530  23.372  0.00  0.00    +0.000 C 
ATOM     16  C   UNL     1      -3.232  12.161  23.174  0.00  0.00    +0.000 C 
ATOM     17  C   UNL     1      -3.731  12.707  21.839  0.00  0.00    +0.000 C 
ATOM     18  O   UNL     1      -3.047  13.410  21.107  0.00  0.00    +0.000 OA
ATOM     19  O   UNL     1      -4.999  12.320  21.553  0.00  0.00    +0.000 OA
ENDROOT
BRANCH  12  20
ATOM     20  O   UNL     1       0.532  12.795  21.424  0.00  0.00    +0.000 OA
ATOM     21  H   UNL     1       1.467  12.525  21.389  0.00  0.00    +0.000 HD
ENDBRANCH  12  20
BRANCH  16  22
ATOM     22  S   UNL     1      -4.229  12.924  24.545  0.00  0.00    +0.000 S 
BRANCH  22  23
ATOM     23  C   UNL     1      -4.209  14.701  24.040  0.00  0.00    +0.000 C 
BRANCH  23  24
ATOM     24  C   UNL     1      -3.381  15.653  24.901  0.00  0.00    +0.000 C 
ATOM     25  F   UNL     1      -4.110  16.662  25.426  0.00  0.00    +0.000 F 
ATOM     26  F   UNL     1      -2.812  14.994  25.932  0.00  0.00    +0.000 F 
ATOM     27  F   UNL     1      -2.382  16.220  24.184  0.00  0.00    +0.000 F 
ENDBRANCH  23  24
ENDBRANCH  22  23
ENDBRANCH  16  22
TORSDOF 4
ENDMDL
MODEL 3
REMARK VINA RESULT:      -6.4      5.075      8.092
REMARK  Name = 
REMARK  5 active torsions:
REMARK  status: ('A' for Active; 'I' for Inactive)
REMARK    1  A    between atoms: C_1  and  C_2
REMARK    2  A    between atoms: C_12  and  O_13
REMARK    3  A    between atoms: C_17  and  S_18
REMARK    4  A    between atoms: S_18  and  C_19
REMARK    5  A    between atoms: C_19  and  C_20
REMARK                            x       y       z     vdW  Elec       q    Type
REMARK                         _______ _______ _______ _____ _____    ______ ____
ROOT
ATOM      1  C   UNL     1       1.067   9.995  18.185  0.00  0.00    +0.000 C 
ATOM      2  C   UNL     1      -0.143  10.650  18.845  0.00  0.00    +0.000 C 
ATOM      3  C   UNL     1      -0.180  10.347  20.344  0.00  0.00    +0.000 C 
ATOM      4  C   UNL     1      -0.880  11.486  21.084  0.00  0.00    +0.000 C 
ATOM      5  C   UNL     1      -0.865  11.287  22.593  0.00  0.00    +0.000 C 
ATOM      6  C   UNL     1      -1.564  12.432  23.336  0.00  0.00    +0.000 C 
ATOM      7  C   UNL     1      -3.082  12.253  23.446  0.00  0.00    +0.000 C 
ATOM      8  C   UNL     1      -3.871  13.016  22.381  0.00  0.00    +0.000 C 
ATOM      9  C   UNL     1      -5.372  12.760  22.536  0.00  0.00    +0.000 C 
ATOM     10  C   UNL     1      -6.218  13.340  21.397  0.00  0.00    +0.000 C 
ATOM     11  C   UNL     1      -6.470  12.343  20.252  0.00  0.00    +0.000 C 
ATOM     12  C   UNL     1      -5.442  12.450  19.119  0.00  0.00    +0.000 C 
ATOM     13  C   UNL     1      -5.591  11.331  18.078  0.00  0.00    +0.000 C 
ATOM     14  O   UNL     1      -6.407  10.429  18.182  0.00  0.00    +0.000 OA
ATOM     15  C   UNL     1      -4.600  11.343  16.915  0.00  0.00    +0.000 C 
ATOM     16  C   UNL     1      -3.485  10.315  17.184  0.00  0.00    +0.000 C 
ATOM     17  C   UNL     1      -2.317  10.988  17.899  0.00  0.00    +0.000 C 
ATOM     18  O   UNL     1      -2.274  12.191  18.123  0.00  0.00    +0.000 OA
ATOM     19  O   UNL     1      -1.348  10.113  18.264  0.00  0.00    +0.000 OA
ENDROOT
BRANCH  12  20
ATOM     20  O   UNL     1      -5.561  13.722  18.491  0.00  0.00    +0.000 OA
ATOM     21  H   UNL     1      -5.820  13.573  17.564  0.00  0.00    +0.000 HD
ENDBRANCH  12  20
BRANCH  16  22
ATOM     22  S   UNL     1      -2.885   9.640  15.558  0.00  0.00    +0.000 S 
BRANCH  22  23
ATOM     23  C   UNL     1      -4.066  10.451  14.391  0.00  0.00    +0.000 C 
BRANCH  23  24
ATOM     24  C   UNL     1      -4.193   9.834  12.999  0.00  0.00    +0.000 C 
ATOM     25  F   UNL     1      -3.053   9.250  12.573  0.00  0.00    +0.000 F 
ATOM     26  F   UNL     1      -5.156   8.887  12.982  0.00  0.00    +0.000 F 
ATOM     27  F   UNL     1      -4.528  10.767  12.078  0.00  0.00    +0.000 F 
ENDBRANCH  23  24
ENDBRANCH  22  23
ENDBRANCH  16  22
TORSDOF 4
ENDMDL
MODEL 4
REMARK VINA RESULT:      -6.3      5.177      7.224
REMARK  Name = 
REMARK  5 active torsions:
REMARK  status: ('A' for Active; 'I' for Inactive)
REMARK    1  A    between atoms: C_1  and  C_2
REMARK    2  A    between atoms: C_12  and  O_13
REMARK    3  A    between atoms: C_17  and  S_18
REMARK    4  A    between atoms: S_18  and  C_19
REMARK    5  A    between atoms: C_19  and  C_20
REMARK                            x       y       z     vdW  Elec       q    Type
REMARK                         _______ _______ _______ _____ _____    ______ ____
ROOT
ATOM      1  C   UNL     1      -2.626   9.653  15.593  0.00  0.00    +0.000 C 
ATOM      2  C   UNL     1      -2.775  10.209  17.006  0.00  0.00    +0.000 C 
ATOM      3  C   UNL     1      -3.735  11.401  17.026  0.00  0.00    +0.000 C 
ATOM      4  C   UNL     1      -4.417  11.493  18.390  0.00  0.00    +0.000 C 
ATOM      5  C   UNL     1      -5.455  12.605  18.441  0.00  0.00    +0.000 C 
ATOM      6  C   UNL     1      -6.142  12.694  19.809  0.00  0.00    +0.000 C 
ATOM      7  C   UNL     1      -5.366  13.533  20.830  0.00  0.00    +0.000 C 
ATOM      8  C   UNL     1      -4.502  12.703  21.781  0.00  0.00    +0.000 C 
ATOM      9  C   UNL     1      -3.735  13.612  22.744  0.00  0.00    +0.000 C 
ATOM     10  C   UNL     1      -2.709  12.869  23.608  0.00  0.00    +0.000 C 
ATOM     11  C   UNL     1      -1.299  12.834  22.990  0.00  0.00    +0.000 C 
ATOM     12  C   UNL     1      -1.035  11.577  22.153  0.00  0.00    +0.000 C 
ATOM     13  C   UNL     1       0.297  11.641  21.392  0.00  0.00    +0.000 C 
ATOM     14  O   UNL     1       1.030  12.616  21.415  0.00  0.00    +0.000 OA
ATOM     15  C   UNL     1       0.643  10.437  20.517  0.00  0.00    +0.000 C 
ATOM     16  C   UNL     1       0.316  10.764  19.047  0.00  0.00    +0.000 C 
ATOM     17  C   UNL     1      -1.105  10.317  18.718  0.00  0.00    +0.000 C 
ATOM     18  O   UNL     1      -1.814   9.708  19.508  0.00  0.00    +0.000 OA
ATOM     19  O   UNL     1      -1.494  10.677  17.470  0.00  0.00    +0.000 OA
ENDROOT
BRANCH  12  20
ATOM     20  O   UNL     1      -1.061  10.433  23.000  0.00  0.00    +0.000 OA
ATOM     21  H   UNL     1      -1.272  10.734  23.902  0.00  0.00    +0.000 HD
ENDBRANCH  12  20
BRANCH  16  22
ATOM     22  S   UNL     1       1.504   9.846  17.950  0.00  0.00    +0.000 S 
BRANCH  22  23
ATOM     23  C   UNL     1       1.885   8.378  19.005  0.00  0.00    +0.000 C 
BRANCH  23  24
ATOM     24  C   UNL     1       2.666   7.241  18.349  0.00  0.00    +0.000 C 
ATOM     25  F   UNL     1       1.870   6.322  17.760  0.00  0.00    +0.000 F 
ATOM     26  F   UNL     1       3.496   7.718  17.397  0.00  0.00    +0.000 F 
ATOM     27  F   UNL     1       3.427   6.582  19.254  0.00  0.00    +0.000 F 
ENDBRANCH  23  24
ENDBRANCH  22  23
ENDBRANCH  16  22
TORSDOF 4
ENDMDL
MODEL 5
REMARK VINA RESULT:      -6.2      3.934      6.660
REMARK  Name = 
REMARK  5 active torsions:
REMARK  status: ('A' for Active; 'I' for Inactive)
REMARK    1  A    between atoms: C_1  and  C_2
REMARK    2  A    between atoms: C_12  and  O_13
REMARK    3  A    between atoms: C_17  and  S_18
REMARK    4  A    between atoms: S_18  and  C_19
REMARK    5  A    between atoms: C_19  and  C_20
REMARK                            x       y       z     vdW  Elec       q    Type
REMARK                         _______ _______ _______ _____ _____    ______ ____
ROOT
ATOM      1  C   UNL     1      -1.314  14.417  23.957  0.00  0.00    +0.000 C 
ATOM      2  C   UNL     1      -2.412  13.887  23.039  0.00  0.00    +0.000 C 
ATOM      3  C   UNL     1      -3.531  13.227  23.849  0.00  0.00    +0.000 C 
ATOM      4  C   UNL     1      -4.854  13.348  23.095  0.00  0.00    +0.000 C 
ATOM      5  C   UNL     1      -6.025  12.793  23.895  0.00  0.00    +0.000 C 
ATOM      6  C   UNL     1      -7.354  12.917  23.140  0.00  0.00    +0.000 C 
ATOM      7  C   UNL     1      -7.619  11.760  22.171  0.00  0.00    +0.000 C 
ATOM      8  C   UNL     1      -7.242  12.071  20.721  0.00  0.00    +0.000 C 
ATOM      9  C   UNL     1      -7.503  10.858  19.825  0.00  0.00    +0.000 C 
ATOM     10  C   UNL     1      -6.982  11.026  18.393  0.00  0.00    +0.000 C 
ATOM     11  C   UNL     1      -5.553  10.490  18.194  0.00  0.00    +0.000 C 
ATOM     12  C   UNL     1      -4.473  11.563  18.376  0.00  0.00    +0.000 C 
ATOM     13  C   UNL     1      -3.052  10.981  18.363  0.00  0.00    +0.000 C 
ATOM     14  O   UNL     1      -2.823   9.786  18.271  0.00  0.00    +0.000 OA
ATOM     15  C   UNL     1      -1.905  11.973  18.551  0.00  0.00    +0.000 C 
ATOM     16  C   UNL     1      -1.418  11.918  20.011  0.00  0.00    +0.000 C 
ATOM     17  C   UNL     1      -2.161  12.955  20.848  0.00  0.00    +0.000 C 
ATOM     18  O   UNL     1      -2.953  13.757  20.370  0.00  0.00    +0.000 OA
ATOM     19  O   UNL     1      -1.858  12.882  22.168  0.00  0.00    +0.000 OA
ENDROOT
BRANCH  12  20
ATOM     20  O   UNL     1      -4.609  12.547  17.356  0.00  0.00    +0.000 OA
ATOM     21  H   UNL     1      -5.092  12.142  16.614  0.00  0.00    +0.000 HD
ENDBRANCH  12  20
BRANCH  16  22
ATOM     22  S   UNL     1       0.401  12.304  20.053  0.00  0.00    +0.000 S 
BRANCH  22  23
ATOM     23  C   UNL     1       1.052  10.808  20.919  0.00  0.00    +0.000 C 
BRANCH  23  24
ATOM     24  C   UNL     1       0.664   9.451  20.337  0.00  0.00    +0.000 C 
ATOM     25  F   UNL     1      -0.495   8.971  20.838  0.00  0.00    +0.000 F 
ATOM     26  F   UNL     1       0.517   9.529  18.997  0.00  0.00    +0.000 F 
ATOM     27  F   UNL     1       1.617   8.520  20.585  0.00  0.00    +0.000 F 
ENDBRANCH  23  24
ENDBRANCH  22  23
ENDBRANCH  16  22
TORSDOF 4
ENDMDL
MODEL 6
REMARK VINA RESULT:      -6.0      3.723      6.463
REMARK  Name = 
REMARK  5 active torsions:
REMARK  status: ('A' for Active; 'I' for Inactive)
REMARK    1  A    between atoms: C_1  and  C_2
REMARK    2  A    between atoms: C_12  and  O_13
REMARK    3  A    between atoms: C_17  and  S_18
REMARK    4  A    between atoms: S_18  and  C_19
REMARK    5  A    between atoms: C_19  and  C_20
REMARK                            x       y       z     vdW  Elec       q    Type
REMARK                         _______ _______ _______ _____ _____    ______ ____
ROOT
ATOM      1  C   UNL     1      -1.531  14.349  24.189  0.00  0.00    +0.000 C 
ATOM      2  C   UNL     1      -2.592  13.824  23.227  0.00  0.00    +0.000 C 
ATOM      3  C   UNL     1      -3.726  13.131  23.986  0.00  0.00    +0.000 C 
ATOM      4  C   UNL     1      -5.027  13.250  23.194  0.00  0.00    +0.000 C 
ATOM      5  C   UNL     1      -6.213  12.661  23.945  0.00  0.00    +0.000 C 
ATOM      6  C   UNL     1      -7.520  12.784  23.151  0.00  0.00    +0.000 C 
ATOM      7  C   UNL     1      -7.738  11.645  22.150  0.00  0.00    +0.000 C 
ATOM      8  C   UNL     1      -7.321  11.993  20.719  0.00  0.00    +0.000 C 
ATOM      9  C   UNL     1      -7.537  10.797  19.789  0.00  0.00    +0.000 C 
ATOM     10  C   UNL     1      -6.974  11.004  18.378  0.00  0.00    +0.000 C 
ATOM     11  C   UNL     1      -5.532  10.493  18.212  0.00  0.00    +0.000 C 
ATOM     12  C   UNL     1      -4.474  11.577  18.451  0.00  0.00    +0.000 C 
ATOM     13  C   UNL     1      -3.044  11.015  18.469  0.00  0.00    +0.000 C 
ATOM     14  O   UNL     1      -2.796   9.826  18.359  0.00  0.00    +0.000 OA
ATOM     15  C   UNL     1      -1.918  12.018  18.715  0.00  0.00    +0.000 C 
ATOM     16  C   UNL     1      -1.476  11.938  20.189  0.00  0.00    +0.000 C 
ATOM     17  C   UNL     1      -2.260  12.945  21.024  0.00  0.00    +0.000 C 
ATOM     18  O   UNL     1      -3.049  13.746  20.539  0.00  0.00    +0.000 OA
ATOM     19  O   UNL     1      -1.997  12.847  22.351  0.00  0.00    +0.000 OA
ENDROOT
BRANCH  12  20
ATOM     20  O   UNL     1      -4.593  12.582  17.450  0.00  0.00    +0.000 OA
ATOM     21  H   UNL     1      -5.538  12.673  17.231  0.00  0.00    +0.000 HD
ENDBRANCH  12  20
BRANCH  16  22
ATOM     22  S   UNL     1       0.334  12.349  20.295  0.00  0.00    +0.000 S 
BRANCH  22  23
ATOM     23  C   UNL     1       1.068  10.656  20.397  0.00  0.00    +0.000 C 
BRANCH  23  24
ATOM     24  C   UNL     1       0.558   9.750  21.516  0.00  0.00    +0.000 C 
ATOM     25  F   UNL     1       1.495   8.889  21.970  0.00  0.00    +0.000 F 
ATOM     26  F   UNL     1       0.144  10.482  22.573  0.00  0.00    +0.000 F 
ATOM     27  F   UNL     1      -0.495   9.005  21.104  0.00  0.00    +0.000 F 
ENDBRANCH  23  24
ENDBRANCH  22  23
ENDBRANCH  16  22
TORSDOF 4
ENDMDL
MODEL 7
REMARK VINA RESULT:      -6.0      4.166      6.468
REMARK  Name = 
REMARK  5 active torsions:
REMARK  status: ('A' for Active; 'I' for Inactive)
REMARK    1  A    between atoms: C_1  and  C_2
REMARK    2  A    between atoms: C_12  and  O_13
REMARK    3  A    between atoms: C_17  and  S_18
REMARK    4  A    between atoms: S_18  and  C_19
REMARK    5  A    between atoms: C_19  and  C_20
REMARK                            x       y       z     vdW  Elec       q    Type
REMARK                         _______ _______ _______ _____ _____    ______ ____
ROOT
ATOM      1  C   UNL     1      -2.662  10.650  15.736  0.00  0.00    +0.000 C 
ATOM      2  C   UNL     1      -3.182  11.038  17.117  0.00  0.00    +0.000 C 
ATOM      3  C   UNL     1      -4.577  11.659  17.022  0.00  0.00    +0.000 C 
ATOM      4  C   UNL     1      -5.350  11.393  18.313  0.00  0.00    +0.000 C 
ATOM      5  C   UNL     1      -6.782  11.906  18.242  0.00  0.00    +0.000 C 
ATOM      6  C   UNL     1      -7.559  11.635  19.536  0.00  0.00    +0.000 C 
ATOM      7  C   UNL     1      -7.351  12.708  20.611  0.00  0.00    +0.000 C 
ATOM      8  C   UNL     1      -6.297  12.338  21.656  0.00  0.00    +0.000 C 
ATOM      9  C   UNL     1      -6.124  13.471  22.671  0.00  0.00    +0.000 C 
ATOM     10  C   UNL     1      -4.958  13.256  23.643  0.00  0.00    +0.000 C 
ATOM     11  C   UNL     1      -3.637  13.885  23.164  0.00  0.00    +0.000 C 
ATOM     12  C   UNL     1      -2.751  12.909  22.380  0.00  0.00    +0.000 C 
ATOM     13  C   UNL     1      -1.530  13.595  21.749  0.00  0.00    +0.000 C 
ATOM     14  O   UNL     1      -1.329  14.796  21.824  0.00  0.00    +0.000 OA
ATOM     15  C   UNL     1      -0.592  12.706  20.934  0.00  0.00    +0.000 C 
ATOM     16  C   UNL     1      -0.892  12.887  19.434  0.00  0.00    +0.000 C 
ATOM     17  C   UNL     1      -1.914  11.850  18.979  0.00  0.00    +0.000 C 
ATOM     18  O   UNL     1      -2.337  10.963  19.709  0.00  0.00    +0.000 OA
ATOM     19  O   UNL     1      -2.305  12.027  17.692  0.00  0.00    +0.000 OA
ENDROOT
BRANCH  12  20
ATOM     20  O   UNL     1      -2.330  11.857  23.242  0.00  0.00    +0.000 OA
ATOM     21  H   UNL     1      -1.382  11.703  23.083  0.00  0.00    +0.000 HD
ENDBRANCH  12  20
BRANCH  16  22
ATOM     22  S   UNL     1       0.681  12.642  18.474  0.00  0.00    +0.000 S 
BRANCH  22  23
ATOM     23  C   UNL     1       1.308  11.078  19.230  0.00  0.00    +0.000 C 
BRANCH  23  24
ATOM     24  C   UNL     1       1.231   9.817  18.371  0.00  0.00    +0.000 C 
ATOM     25  F   UNL     1       2.204   9.753  17.436  0.00  0.00    +0.000 F 
ATOM     26  F   UNL     1       1.340   8.710  19.135  0.00  0.00    +0.000 F 
ATOM     27  F   UNL     1       0.048   9.742  17.716  0.00  0.00    +0.000 F 
ENDBRANCH  23  24
ENDBRANCH  22  23
ENDBRANCH  16  22
TORSDOF 4
ENDMDL
MODEL 8
REMARK VINA RESULT:      -5.8      4.291      7.787
REMARK  Name = 
REMARK  5 active torsions:
REMARK  status: ('A' for Active; 'I' for Inactive)
REMARK    1  A    between atoms: C_1  and  C_2
REMARK    2  A    between atoms: C_12  and  O_13
REMARK    3  A    between atoms: C_17  and  S_18
REMARK    4  A    between atoms: S_18  and  C_19
REMARK    5  A    between atoms: C_19  and  C_20
REMARK                            x       y       z     vdW  Elec       q    Type
REMARK                         _______ _______ _______ _____ _____    ______ ____
ROOT
ATOM      1  C   UNL     1       0.783  11.280  20.717  0.00  0.00    +0.000 C 
ATOM      2  C   UNL     1      -0.666  11.737  20.862  0.00  0.00    +0.000 C 
ATOM      3  C   UNL     1      -1.170  11.514  22.290  0.00  0.00    +0.000 C 
ATOM      4  C   UNL     1      -2.247  12.544  22.624  0.00  0.00    +0.000 C 
ATOM      5  C   UNL     1      -2.722  12.433  24.066  0.00  0.00    +0.000 C 
ATOM      6  C   UNL     1      -3.802  13.470  24.402  0.00  0.00    +0.000 C 
ATOM      7  C   UNL     1      -5.218  13.023  24.025  0.00  0.00    +0.000 C 
ATOM      8  C   UNL     1      -5.699  13.570  22.680  0.00  0.00    +0.000 C 
ATOM      9  C   UNL     1      -7.104  13.053  22.360  0.00  0.00    +0.000 C 
ATOM     10  C   UNL     1      -7.584  13.407  20.947  0.00  0.00    +0.000 C 
ATOM     11  C   UNL     1      -7.270  12.320  19.903  0.00  0.00    +0.000 C 
ATOM     12  C   UNL     1      -5.944  12.551  19.169  0.00  0.00    +0.000 C 
ATOM     13  C   UNL     1      -5.551  11.369  18.270  0.00  0.00    +0.000 C 
ATOM     14  O   UNL     1      -6.205  10.340  18.200  0.00  0.00    +0.000 OA
ATOM     15  C   UNL     1      -4.235  11.499  17.505  0.00  0.00    +0.000 C 
ATOM     16  C   UNL     1      -3.137  10.708  18.242  0.00  0.00    +0.000 C 
ATOM     17  C   UNL     1      -2.405  11.621  19.221  0.00  0.00    +0.000 C 
ATOM     18  O   UNL     1      -2.627  12.822  19.309  0.00  0.00    +0.000 OA
ATOM     19  O   UNL     1      -1.499  10.958  19.982  0.00  0.00    +0.000 OA
ENDROOT
BRANCH  12  20
ATOM     20  O   UNL     1      -6.034  13.744  18.397  0.00  0.00    +0.000 OA
ATOM     21  H   UNL     1      -5.658  13.559  17.518  0.00  0.00    +0.000 HD
ENDBRANCH  12  20
BRANCH  16  22
ATOM     22  S   UNL     1      -1.919  10.068  16.992  0.00  0.00    +0.000 S 
BRANCH  22  23
ATOM     23  C   UNL     1      -3.059   9.288  15.765  0.00  0.00    +0.000 C 
BRANCH  23  24
ATOM     24  C   UNL     1      -3.231  10.008  14.429  0.00  0.00    +0.000 C 
ATOM     25  F   UNL     1      -2.322   9.631  13.504  0.00  0.00    +0.000 F 
ATOM     26  F   UNL     1      -4.453   9.766  13.908  0.00  0.00    +0.000 F 
ATOM     27  F   UNL     1      -3.113  11.349  14.576  0.00  0.00    +0.000 F 
ENDBRANCH  23  24
ENDBRANCH  22  23
ENDBRANCH  16  22
TORSDOF 4
ENDMDL
MODEL 9
REMARK VINA RESULT:      -5.8      1.099      1.379
REMARK  Name = 
REMARK  5 active torsions:
REMARK  status: ('A' for Active; 'I' for Inactive)
REMARK    1  A    between atoms: C_1  and  C_2
REMARK    2  A    between atoms: C_12  and  O_13
REMARK    3  A    between atoms: C_17  and  S_18
REMARK    4  A    between atoms: S_18  and  C_19
REMARK    5  A    between atoms: C_19  and  C_20
REMARK                            x       y       z     vdW  Elec       q    Type
REMARK                         _______ _______ _______ _____ _____    ______ ____
ROOT
ATOM      1  C   UNL     1      -7.527  13.155  19.042  0.00  0.00    +0.000 C 
ATOM      2  C   UNL     1      -6.053  12.762  19.077  0.00  0.00    +0.000 C 
ATOM      3  C   UNL     1      -5.792  11.541  18.192  0.00  0.00    +0.000 C 
ATOM      4  C   UNL     1      -4.357  11.581  17.669  0.00  0.00    +0.000 C 
ATOM      5  C   UNL     1      -4.065  10.439  16.704  0.00  0.00    +0.000 C 
ATOM      6  C   UNL     1      -2.626  10.481  16.176  0.00  0.00    +0.000 C 
ATOM      7  C   UNL     1      -1.613   9.801  17.102  0.00  0.00    +0.000 C 
ATOM      8  C   UNL     1      -0.865  10.773  18.017  0.00  0.00    +0.000 C 
ATOM      9  C   UNL     1       0.100  10.016  18.933  0.00  0.00    +0.000 C 
ATOM     10  C   UNL     1       0.753  10.897  20.005  0.00  0.00    +0.000 C 
ATOM     11  C   UNL     1      -0.022  10.919  21.335  0.00  0.00    +0.000 C 
ATOM     12  C   UNL     1      -1.018  12.080  21.437  0.00  0.00    +0.000 C 
ATOM     13  C   UNL     1      -1.914  11.983  22.680  0.00  0.00    +0.000 C 
ATOM     14  O   UNL     1      -1.866  11.050  23.465  0.00  0.00    +0.000 OA
ATOM     15  C   UNL     1      -2.951  13.090  22.863  0.00  0.00    +0.000 C 
ATOM     16  C   UNL     1      -4.328  12.581  22.398  0.00  0.00    +0.000 C 
ATOM     17  C   UNL     1      -4.541  12.925  20.927  0.00  0.00    +0.000 C 
ATOM     18  O   UNL     1      -3.748  13.592  20.275  0.00  0.00    +0.000 OA
ATOM     19  O   UNL     1      -5.689  12.406  20.425  0.00  0.00    +0.000 OA
ENDROOT
BRANCH  12  20
ATOM     20  O   UNL     1      -0.306  13.313  21.440  0.00  0.00    +0.000 OA
ATOM     21  H   UNL     1      -0.710  13.891  20.769  0.00  0.00    +0.000 HD
ENDBRANCH  12  20
BRANCH  16  22
ATOM     22  S   UNL     1      -5.649  13.414  23.407  0.00  0.00    +0.000 S 
BRANCH  22  23
ATOM     23  C   UNL     1      -4.707  14.847  24.094  0.00  0.00    +0.000 C 
BRANCH  23  24
ATOM     24  C   UNL     1      -5.427  16.194  24.126  0.00  0.00    +0.000 C 
ATOM     25  F   UNL     1      -5.105  16.941  25.204  0.00  0.00    +0.000 F 
ATOM     26  F   UNL     1      -5.125  16.924  23.031  0.00  0.00    +0.000 F 
ATOM     27  F   UNL     1      -6.771  16.031  24.145  0.00  0.00    +0.000 F 
ENDBRANCH  23  24
ENDBRANCH  22  23
ENDBRANCH  16  22
TORSDOF 4
ENDMDL
