MODEL 1
REMARK VINA RESULT:      -9.5      0.000      0.000
REMARK  Name = 
REMARK  8 active torsions:
REMARK  status: ('A' for Active; 'I' for Inactive)
REMARK    1  A    between atoms: C_2  and  C_24
REMARK    2  A    between atoms: N_3  and  N_4
REMARK    3  A    between atoms: C_5  and  C_6
REMARK    4  A    between atoms: C_10  and  O_11
REMARK    5  A    between atoms: O_11  and  C_12
REMARK    6  A    between atoms: C_12  and  C_13
REMARK    7  A    between atoms: C_18  and  C_19
REMARK    8  A    between atoms: C_27  and  O_28
REMARK                            x       y       z     vdW  Elec       q    Type
REMARK                         _______ _______ _______ _____ _____    ______ ____
ROOT
ATOM      1  C   UNL     1       6.853   5.719  16.727  0.00  0.00    +0.000 A 
ATOM      2  C   UNL     1       7.149   5.193  15.465  0.00  0.00    +0.000 A 
ATOM      3  C   UNL     1       6.383   4.159  14.940  0.00  0.00    +0.000 A 
ATOM      4  C   UNL     1       5.324   3.638  15.680  0.00  0.00    +0.000 A 
ATOM      5  C   UNL     1       5.057   4.119  16.964  0.00  0.00    +0.000 A 
ATOM      6  C   UNL     1       5.808   5.182  17.482  0.00  0.00    +0.000 A 
ENDROOT
BRANCH   1   8
ATOM      7  N   UNL     1       7.946   6.905  18.510  0.00  0.00    +0.000 NA
ATOM      8  C   UNL     1       7.651   6.847  17.250  0.00  0.00    +0.000 C 
BRANCH   7  11
ATOM      9  O   UNL     1       7.557   9.460  17.555  0.00  0.00    +0.000 OA
ATOM     10  C   UNL     1       8.416   9.220  18.395  0.00  0.00    +0.000 C 
ATOM     11  N   UNL     1       8.686   7.966  18.932  0.00  0.00    +0.000 N 
ATOM     12  H   UNL     1       9.474   7.806  19.543  0.00  0.00    +0.000 HD
BRANCH  10  13
ATOM     13  C   UNL     1       9.286  10.333  18.876  0.00  0.00    +0.000 A 
ATOM     14  C   UNL     1       9.405  10.666  20.233  0.00  0.00    +0.000 A 
ATOM     15  C   UNL     1      10.238  11.717  20.630  0.00  0.00    +0.000 A 
ATOM     16  C   UNL     1      10.941  12.436  19.667  0.00  0.00    +0.000 A 
ATOM     17  C   UNL     1      10.815  12.134  18.316  0.00  0.00    +0.000 A 
ATOM     18  C   UNL     1       9.985  11.085  17.919  0.00  0.00    +0.000 A 
BRANCH  16  19
ATOM     19  O   UNL     1      11.773  13.460  20.010  0.00  0.00    +0.000 OA
ATOM     20  H   UNL     1      11.976  13.983  19.218  0.00  0.00    +0.000 HD
ENDBRANCH  16  19
ENDBRANCH  10  13
ENDBRANCH   7  11
ENDBRANCH   1   8
BRANCH   5  21
ATOM     21  O   UNL     1       4.092   3.614  17.792  0.00  0.00    +0.000 OA
BRANCH  21  22
ATOM     22  C   UNL     1       2.758   4.036  17.508  0.00  0.00    +0.000 C 
BRANCH  22  23
ATOM     23  C   UNL     1       2.333   4.972  18.613  0.00  0.00    +0.000 A 
ATOM     24  C   UNL     1       2.595   6.345  18.444  0.00  0.00    +0.000 A 
ATOM     25  C   UNL     1       2.270   7.264  19.436  0.00  0.00    +0.000 A 
ATOM     26  C   UNL     1       1.682   6.827  20.615  0.00  0.00    +0.000 A 
ATOM     27  C   UNL     1       1.416   5.471  20.800  0.00  0.00    +0.000 A 
ATOM     28  C   UNL     1       1.737   4.519  19.811  0.00  0.00    +0.000 A 
BRANCH  28  29
ATOM     29  C   UNL     1       1.419   3.068  20.126  0.00  0.00    +0.000 C 
ATOM     30  F   UNL     1       0.550   2.452  19.282  0.00  0.00    +0.000 F 
ATOM     31  F   UNL     1       2.535   2.286  20.138  0.00  0.00    +0.000 F 
ATOM     32  F   UNL     1       0.864   2.934  21.367  0.00  0.00    +0.000 F 
ENDBRANCH  28  29
ENDBRANCH  22  23
ENDBRANCH  21  22
ENDBRANCH   5  21
TORSDOF 8
ENDMDL
MODEL 2
REMARK VINA RESULT:      -9.4      0.200      1.140
REMARK  Name = 
REMARK  8 active torsions:
REMARK  status: ('A' for Active; 'I' for Inactive)
REMARK    1  A    between atoms: C_2  and  C_24
REMARK    2  A    between atoms: N_3  and  N_4
REMARK    3  A    between atoms: C_5  and  C_6
REMARK    4  A    between atoms: C_10  and  O_11
REMARK    5  A    between atoms: O_11  and  C_12
REMARK    6  A    between atoms: C_12  and  C_13
REMARK    7  A    between atoms: C_18  and  C_19
REMARK    8  A    between atoms: C_27  and  O_28
REMARK                            x       y       z     vdW  Elec       q    Type
REMARK                         _______ _______ _______ _____ _____    ______ ____
ROOT
ATOM      1  C   UNL     1       6.871   5.533  16.564  0.00  0.00    +0.000 A 
ATOM      2  C   UNL     1       7.060   5.015  15.278  0.00  0.00    +0.000 A 
ATOM      3  C   UNL     1       6.208   4.033  14.788  0.00  0.00    +0.000 A 
ATOM      4  C   UNL     1       5.173   3.553  15.585  0.00  0.00    +0.000 A 
ATOM      5  C   UNL     1       5.012   4.024  16.891  0.00  0.00    +0.000 A 
ATOM      6  C   UNL     1       5.849   5.036  17.376  0.00  0.00    +0.000 A 
ENDROOT
BRANCH   1   8
ATOM      7  N   UNL     1       7.705   6.983  18.292  0.00  0.00    +0.000 NA
ATOM      8  C   UNL     1       7.759   6.609  17.053  0.00  0.00    +0.000 C 
BRANCH   7  11
ATOM      9  O   UNL     1       7.362   9.609  17.532  0.00  0.00    +0.000 OA
ATOM     10  C   UNL     1       8.294   9.273  18.253  0.00  0.00    +0.000 C 
ATOM     11  N   UNL     1       8.549   7.976  18.684  0.00  0.00    +0.000 N 
ATOM     12  H   UNL     1       9.389   7.737  19.190  0.00  0.00    +0.000 HD
BRANCH  10  13
ATOM     13  C   UNL     1       9.277  10.307  18.692  0.00  0.00    +0.000 A 
ATOM     14  C   UNL     1      10.139  10.956  17.797  0.00  0.00    +0.000 A 
ATOM     15  C   UNL     1      11.039  11.921  18.262  0.00  0.00    +0.000 A 
ATOM     16  C   UNL     1      11.078  12.225  19.620  0.00  0.00    +0.000 A 
ATOM     17  C   UNL     1      10.248  11.572  20.522  0.00  0.00    +0.000 A 
ATOM     18  C   UNL     1       9.349  10.610  20.060  0.00  0.00    +0.000 A 
BRANCH  16  19
ATOM     19  O   UNL     1      11.932  13.166  20.114  0.00  0.00    +0.000 OA
ATOM     20  H   UNL     1      11.815  13.227  21.076  0.00  0.00    +0.000 HD
ENDBRANCH  16  19
ENDBRANCH  10  13
ENDBRANCH   7  11
ENDBRANCH   1   8
BRANCH   5  21
ATOM     21  O   UNL     1       4.076   3.553  17.770  0.00  0.00    +0.000 OA
BRANCH  21  22
ATOM     22  C   UNL     1       2.732   3.961  17.512  0.00  0.00    +0.000 C 
BRANCH  22  23
ATOM     23  C   UNL     1       2.330   4.920  18.605  0.00  0.00    +0.000 A 
ATOM     24  C   UNL     1       2.615   6.286  18.414  0.00  0.00    +0.000 A 
ATOM     25  C   UNL     1       2.312   7.225  19.394  0.00  0.00    +0.000 A 
ATOM     26  C   UNL     1       1.722   6.816  20.583  0.00  0.00    +0.000 A 
ATOM     27  C   UNL     1       1.432   5.467  20.789  0.00  0.00    +0.000 A 
ATOM     28  C   UNL     1       1.732   4.496  19.812  0.00  0.00    +0.000 A 
BRANCH  28  29
ATOM     29  C   UNL     1       1.388   3.056  20.150  0.00  0.00    +0.000 C 
ATOM     30  F   UNL     1       0.876   2.839  21.390  0.00  0.00    +0.000 F 
ATOM     31  F   UNL     1       0.481   2.525  19.282  0.00  0.00    +0.000 F 
ATOM     32  F   UNL     1       2.485   2.246  20.072  0.00  0.00    +0.000 F 
ENDBRANCH  28  29
ENDBRANCH  22  23
ENDBRANCH  21  22
ENDBRANCH   5  21
TORSDOF 8
ENDMDL
MODEL 3
REMARK VINA RESULT:      -9.2      1.733      2.370
REMARK  Name = 
REMARK  8 active torsions:
REMARK  status: ('A' for Active; 'I' for Inactive)
REMARK    1  A    between atoms: C_2  and  C_24
REMARK    2  A    between atoms: N_3  and  N_4
REMARK    3  A    between atoms: C_5  and  C_6
REMARK    4  A    between atoms: C_10  and  O_11
REMARK    5  A    between atoms: O_11  and  C_12
REMARK    6  A    between atoms: C_12  and  C_13
REMARK    7  A    between atoms: C_18  and  C_19
REMARK    8  A    between atoms: C_27  and  O_28
REMARK                            x       y       z     vdW  Elec       q    Type
REMARK                         _______ _______ _______ _____ _____    ______ ____
ROOT
ATOM      1  C   UNL     1       7.230   7.125  17.707  0.00  0.00    +0.000 A 
ATOM      2  C   UNL     1       7.837   6.368  18.715  0.00  0.00    +0.000 A 
ATOM      3  C   UNL     1       7.323   5.123  19.060  0.00  0.00    +0.000 A 
ATOM      4  C   UNL     1       6.194   4.636  18.408  0.00  0.00    +0.000 A 
ATOM      5  C   UNL     1       5.548   5.411  17.440  0.00  0.00    +0.000 A 
ATOM      6  C   UNL     1       6.082   6.651  17.068  0.00  0.00    +0.000 A 
ENDROOT
BRANCH   1   8
ATOM      7  N   UNL     1       8.417   9.156  18.208  0.00  0.00    +0.000 NA
ATOM      8  C   UNL     1       7.816   8.426  17.322  0.00  0.00    +0.000 C 
BRANCH   7  11
ATOM      9  O   UNL     1       9.898  10.785  19.865  0.00  0.00    +0.000 OA
ATOM     10  C   UNL     1       9.677  11.096  18.700  0.00  0.00    +0.000 C 
ATOM     11  N   UNL     1       8.940  10.342  17.794  0.00  0.00    +0.000 N 
ATOM     12  H   UNL     1       8.699  10.693  16.879  0.00  0.00    +0.000 HD
BRANCH  10  13
ATOM     13  C   UNL     1      10.192  12.401  18.191  0.00  0.00    +0.000 A 
ATOM     14  C   UNL     1       9.512  13.610  18.390  0.00  0.00    +0.000 A 
ATOM     15  C   UNL     1      10.043  14.806  17.893  0.00  0.00    +0.000 A 
ATOM     16  C   UNL     1      11.246  14.783  17.192  0.00  0.00    +0.000 A 
ATOM     17  C   UNL     1      11.918  13.589  16.965  0.00  0.00    +0.000 A 
ATOM     18  C   UNL     1      11.391  12.396  17.461  0.00  0.00    +0.000 A 
BRANCH  16  19
ATOM     19  O   UNL     1      11.805  15.926  16.702  0.00  0.00    +0.000 OA
ATOM     20  H   UNL     1      11.107  16.478  16.312  0.00  0.00    +0.000 HD
ENDBRANCH  16  19
ENDBRANCH  10  13
ENDBRANCH   7  11
ENDBRANCH   1   8
BRANCH   5  21
ATOM     21  O   UNL     1       4.391   5.048  16.808  0.00  0.00    +0.000 OA
BRANCH  21  22
ATOM     22  C   UNL     1       3.544   4.161  17.540  0.00  0.00    +0.000 C 
BRANCH  22  23
ATOM     23  C   UNL     1       2.875   4.966  18.627  0.00  0.00    +0.000 A 
ATOM     24  C   UNL     1       2.607   6.323  18.365  0.00  0.00    +0.000 A 
ATOM     25  C   UNL     1       2.030   7.139  19.333  0.00  0.00    +0.000 A 
ATOM     26  C   UNL     1       1.714   6.615  20.579  0.00  0.00    +0.000 A 
ATOM     27  C   UNL     1       1.973   5.273  20.856  0.00  0.00    +0.000 A 
ATOM     28  C   UNL     1       2.559   4.425  19.894  0.00  0.00    +0.000 A 
BRANCH  28  29
ATOM     29  C   UNL     1       2.811   2.987  20.309  0.00  0.00    +0.000 C 
ATOM     30  F   UNL     1       2.156   2.036  19.592  0.00  0.00    +0.000 F 
ATOM     31  F   UNL     1       4.131   2.653  20.240  0.00  0.00    +0.000 F 
ATOM     32  F   UNL     1       2.446   2.768  21.606  0.00  0.00    +0.000 F 
ENDBRANCH  28  29
ENDBRANCH  22  23
ENDBRANCH  21  22
ENDBRANCH   5  21
TORSDOF 8
ENDMDL
MODEL 4
REMARK VINA RESULT:      -9.1      1.847      2.687
REMARK  Name = 
REMARK  8 active torsions:
REMARK  status: ('A' for Active; 'I' for Inactive)
REMARK    1  A    between atoms: C_2  and  C_24
REMARK    2  A    between atoms: N_3  and  N_4
REMARK    3  A    between atoms: C_5  and  C_6
REMARK    4  A    between atoms: C_10  and  O_11
REMARK    5  A    between atoms: O_11  and  C_12
REMARK    6  A    between atoms: C_12  and  C_13
REMARK    7  A    between atoms: C_18  and  C_19
REMARK    8  A    between atoms: C_27  and  O_28
REMARK                            x       y       z     vdW  Elec       q    Type
REMARK                         _______ _______ _______ _____ _____    ______ ____
ROOT
ATOM      1  C   UNL     1       7.443   7.529  17.833  0.00  0.00    +0.000 A 
ATOM      2  C   UNL     1       8.135   6.593  18.609  0.00  0.00    +0.000 A 
ATOM      3  C   UNL     1       7.682   5.281  18.691  0.00  0.00    +0.000 A 
ATOM      4  C   UNL     1       6.530   4.903  18.008  0.00  0.00    +0.000 A 
ATOM      5  C   UNL     1       5.801   5.846  17.277  0.00  0.00    +0.000 A 
ATOM      6  C   UNL     1       6.273   7.160  17.167  0.00  0.00    +0.000 A 
ENDROOT
BRANCH   1   8
ATOM      7  N   UNL     1       8.849   9.339  18.564  0.00  0.00    +0.000 NA
ATOM      8  C   UNL     1       7.964   8.908  17.722  0.00  0.00    +0.000 C 
BRANCH   7  11
ATOM      9  O   UNL     1       9.382  10.995  20.700  0.00  0.00    +0.000 OA
ATOM     10  C   UNL     1       9.538  11.377  19.546  0.00  0.00    +0.000 C 
ATOM     11  N   UNL     1       9.293  10.616  18.409  0.00  0.00    +0.000 N 
ATOM     12  H   UNL     1       9.337  11.013  17.482  0.00  0.00    +0.000 HD
BRANCH  10  13
ATOM     13  C   UNL     1       9.990  12.778  19.304  0.00  0.00    +0.000 A 
ATOM     14  C   UNL     1       9.586  13.519  18.184  0.00  0.00    +0.000 A 
ATOM     15  C   UNL     1      10.038  14.831  18.008  0.00  0.00    +0.000 A 
ATOM     16  C   UNL     1      10.899  15.392  18.948  0.00  0.00    +0.000 A 
ATOM     17  C   UNL     1      11.328  14.662  20.049  0.00  0.00    +0.000 A 
ATOM     18  C   UNL     1      10.877  13.353  20.227  0.00  0.00    +0.000 A 
BRANCH  16  19
ATOM     19  O   UNL     1      11.354  16.671  18.821  0.00  0.00    +0.000 OA
ATOM     20  H   UNL     1      12.265  16.718  19.155  0.00  0.00    +0.000 HD
ENDBRANCH  16  19
ENDBRANCH  10  13
ENDBRANCH   7  11
ENDBRANCH   1   8
BRANCH   5  21
ATOM     21  O   UNL     1       4.618   5.583  16.642  0.00  0.00    +0.000 OA
BRANCH  21  22
ATOM     22  C   UNL     1       3.970   4.371  17.031  0.00  0.00    +0.000 C 
BRANCH  22  23
ATOM     23  C   UNL     1       3.119   4.678  18.238  0.00  0.00    +0.000 A 
ATOM     24  C   UNL     1       3.022   6.022  18.646  0.00  0.00    +0.000 A 
ATOM     25  C   UNL     1       2.290   6.378  19.774  0.00  0.00    +0.000 A 
ATOM     26  C   UNL     1       1.645   5.398  20.516  0.00  0.00    +0.000 A 
ATOM     27  C   UNL     1       1.730   4.061  20.127  0.00  0.00    +0.000 A 
ATOM     28  C   UNL     1       2.468   3.674  18.989  0.00  0.00    +0.000 A 
BRANCH  28  29
ATOM     29  C   UNL     1       2.506   2.190  18.669  0.00  0.00    +0.000 C 
ATOM     30  F   UNL     1       1.631   1.409  19.355  0.00  0.00    +0.000 F 
ATOM     31  F   UNL     1       2.263   1.941  17.351  0.00  0.00    +0.000 F 
ATOM     32  F   UNL     1       3.735   1.653  18.922  0.00  0.00    +0.000 F 
ENDBRANCH  28  29
ENDBRANCH  22  23
ENDBRANCH  21  22
ENDBRANCH   5  21
TORSDOF 8
ENDMDL
MODEL 5
REMARK VINA RESULT:      -9.1      1.824      2.666
REMARK  Name = 
REMARK  8 active torsions:
REMARK  status: ('A' for Active; 'I' for Inactive)
REMARK    1  A    between atoms: C_2  and  C_24
REMARK    2  A    between atoms: N_3  and  N_4
REMARK    3  A    between atoms: C_5  and  C_6
REMARK    4  A    between atoms: C_10  and  O_11
REMARK    5  A    between atoms: O_11  and  C_12
REMARK    6  A    between atoms: C_12  and  C_13
REMARK    7  A    between atoms: C_18  and  C_19
REMARK    8  A    between atoms: C_27  and  O_28
REMARK                            x       y       z     vdW  Elec       q    Type
REMARK                         _______ _______ _______ _____ _____    ______ ____
ROOT
ATOM      1  C   UNL     1       7.366   7.306  17.819  0.00  0.00    +0.000 A 
ATOM      2  C   UNL     1       8.045   6.502  18.741  0.00  0.00    +0.000 A 
ATOM      3  C   UNL     1       7.621   5.201  18.981  0.00  0.00    +0.000 A 
ATOM      4  C   UNL     1       6.508   4.701  18.311  0.00  0.00    +0.000 A 
ATOM      5  C   UNL     1       5.790   5.516  17.431  0.00  0.00    +0.000 A 
ATOM      6  C   UNL     1       6.234   6.816  17.163  0.00  0.00    +0.000 A 
ENDROOT
BRANCH   1   8
ATOM      7  N   UNL     1       8.588   9.289  18.419  0.00  0.00    +0.000 NA
ATOM      8  C   UNL     1       7.858   8.672  17.544  0.00  0.00    +0.000 C 
BRANCH   7  11
ATOM      9  O   UNL     1       9.636  11.010  20.297  0.00  0.00    +0.000 OA
ATOM     10  C   UNL     1       9.532  11.340  19.122  0.00  0.00    +0.000 C 
ATOM     11  N   UNL     1       9.014  10.543  18.107  0.00  0.00    +0.000 N 
ATOM     12  H   UNL     1       8.853  10.901  17.177  0.00  0.00    +0.000 HD
BRANCH  10  13
ATOM     13  C   UNL     1       9.949  12.715  18.718  0.00  0.00    +0.000 A 
ATOM     14  C   UNL     1      10.777  12.958  17.613  0.00  0.00    +0.000 A 
ATOM     15  C   UNL     1      11.135  14.268  17.277  0.00  0.00    +0.000 A 
ATOM     16  C   UNL     1      10.670  15.327  18.053  0.00  0.00    +0.000 A 
ATOM     17  C   UNL     1       9.870  15.100  19.166  0.00  0.00    +0.000 A 
ATOM     18  C   UNL     1       9.511  13.794  19.502  0.00  0.00    +0.000 A 
BRANCH  16  19
ATOM     19  O   UNL     1      10.985  16.619  17.754  0.00  0.00    +0.000 OA
ATOM     20  H   UNL     1      10.846  17.170  18.541  0.00  0.00    +0.000 HD
ENDBRANCH  16  19
ENDBRANCH  10  13
ENDBRANCH   7  11
ENDBRANCH   1   8
BRANCH   5  21
ATOM     21  O   UNL     1       4.642   5.136  16.792  0.00  0.00    +0.000 OA
BRANCH  21  22
ATOM     22  C   UNL     1       3.872   4.134  17.457  0.00  0.00    +0.000 C 
BRANCH  22  23
ATOM     23  C   UNL     1       3.110   4.810  18.569  0.00  0.00    +0.000 A 
ATOM     24  C   UNL     1       2.695   6.140  18.364  0.00  0.00    +0.000 A 
ATOM     25  C   UNL     1       2.023   6.843  19.359  0.00  0.00    +0.000 A 
ATOM     26  C   UNL     1       1.759   6.232  20.577  0.00  0.00    +0.000 A 
ATOM     27  C   UNL     1       2.164   4.916  20.799  0.00  0.00    +0.000 A 
ATOM     28  C   UNL     1       2.847   4.182  19.807  0.00  0.00    +0.000 A 
BRANCH  28  29
ATOM     29  C   UNL     1       3.254   2.763  20.163  0.00  0.00    +0.000 C 
ATOM     30  F   UNL     1       4.573   2.467  20.018  0.00  0.00    +0.000 F 
ATOM     31  F   UNL     1       2.948   2.446  21.453  0.00  0.00    +0.000 F 
ATOM     32  F   UNL     1       2.598   1.845  19.395  0.00  0.00    +0.000 F 
ENDBRANCH  28  29
ENDBRANCH  22  23
ENDBRANCH  21  22
ENDBRANCH   5  21
TORSDOF 8
ENDMDL
MODEL 6
REMARK VINA RESULT:      -8.9      1.784      2.472
REMARK  Name = 
REMARK  8 active torsions:
REMARK  status: ('A' for Active; 'I' for Inactive)
REMARK    1  A    between atoms: C_2  and  C_24
REMARK    2  A    between atoms: N_3  and  N_4
REMARK    3  A    between atoms: C_5  and  C_6
REMARK    4  A    between atoms: C_10  and  O_11
REMARK    5  A    between atoms: O_11  and  C_12
REMARK    6  A    between atoms: C_12  and  C_13
REMARK    7  A    between atoms: C_18  and  C_19
REMARK    8  A    between atoms: C_27  and  O_28
REMARK                            x       y       z     vdW  Elec       q    Type
REMARK                         _______ _______ _______ _____ _____    ______ ____
ROOT
ATOM      1  C   UNL     1       7.476   7.402  17.896  0.00  0.00    +0.000 A 
ATOM      2  C   UNL     1       8.130   6.469  18.708  0.00  0.00    +0.000 A 
ATOM      3  C   UNL     1       7.681   5.155  18.766  0.00  0.00    +0.000 A 
ATOM      4  C   UNL     1       6.568   4.771  18.023  0.00  0.00    +0.000 A 
ATOM      5  C   UNL     1       5.875   5.710  17.254  0.00  0.00    +0.000 A 
ATOM      6  C   UNL     1       6.344   7.027  17.169  0.00  0.00    +0.000 A 
ENDROOT
BRANCH   1   8
ATOM      7  N   UNL     1       8.791   9.236  18.729  0.00  0.00    +0.000 NA
ATOM      8  C   UNL     1       7.995   8.783  17.812  0.00  0.00    +0.000 C 
BRANCH   7  11
ATOM      9  O   UNL     1       9.325  10.854  20.893  0.00  0.00    +0.000 OA
ATOM     10  C   UNL     1       9.484  11.255  19.746  0.00  0.00    +0.000 C 
ATOM     11  N   UNL     1       9.238  10.514  18.595  0.00  0.00    +0.000 N 
ATOM     12  H   UNL     1       9.285  10.926  17.675  0.00  0.00    +0.000 HD
BRANCH  10  13
ATOM     13  C   UNL     1       9.940  12.659  19.528  0.00  0.00    +0.000 A 
ATOM     14  C   UNL     1       9.047  13.719  19.318  0.00  0.00    +0.000 A 
ATOM     15  C   UNL     1       9.530  15.018  19.122  0.00  0.00    +0.000 A 
ATOM     16  C   UNL     1      10.903  15.247  19.128  0.00  0.00    +0.000 A 
ATOM     17  C   UNL     1      11.801  14.203  19.310  0.00  0.00    +0.000 A 
ATOM     18  C   UNL     1      11.322  12.907  19.506  0.00  0.00    +0.000 A 
BRANCH  16  19
ATOM     19  O   UNL     1      11.416  16.498  18.953  0.00  0.00    +0.000 OA
ATOM     20  H   UNL     1      11.165  17.053  19.710  0.00  0.00    +0.000 HD
ENDBRANCH  16  19
ENDBRANCH  10  13
ENDBRANCH   7  11
ENDBRANCH   1   8
BRANCH   5  21
ATOM     21  O   UNL     1       4.728   5.441  16.558  0.00  0.00    +0.000 OA
BRANCH  21  22
ATOM     22  C   UNL     1       3.894   4.426  17.118  0.00  0.00    +0.000 C 
BRANCH  22  23
ATOM     23  C   UNL     1       3.184   5.024  18.306  0.00  0.00    +0.000 A 
ATOM     24  C   UNL     1       2.804   6.378  18.227  0.00  0.00    +0.000 A 
ATOM     25  C   UNL     1       2.181   7.012  19.297  0.00  0.00    +0.000 A 
ATOM     26  C   UNL     1       1.931   6.305  20.466  0.00  0.00    +0.000 A 
ATOM     27  C   UNL     1       2.301   4.964  20.563  0.00  0.00    +0.000 A 
ATOM     28  C   UNL     1       2.935   4.300  19.493  0.00  0.00    +0.000 A 
BRANCH  28  29
ATOM     29  C   UNL     1       3.308   2.845  19.713  0.00  0.00    +0.000 C 
ATOM     30  F   UNL     1       2.816   1.959  18.808  0.00  0.00    +0.000 F 
ATOM     31  F   UNL     1       4.658   2.653  19.717  0.00  0.00    +0.000 F 
ATOM     32  F   UNL     1       2.871   2.393  20.925  0.00  0.00    +0.000 F 
ENDBRANCH  28  29
ENDBRANCH  22  23
ENDBRANCH  21  22
ENDBRANCH   5  21
TORSDOF 8
ENDMDL
MODEL 7
REMARK VINA RESULT:      -8.9      2.091      3.247
REMARK  Name = 
REMARK  8 active torsions:
REMARK  status: ('A' for Active; 'I' for Inactive)
REMARK    1  A    between atoms: C_2  and  C_24
REMARK    2  A    between atoms: N_3  and  N_4
REMARK    3  A    between atoms: C_5  and  C_6
REMARK    4  A    between atoms: C_10  and  O_11
REMARK    5  A    between atoms: O_11  and  C_12
REMARK    6  A    between atoms: C_12  and  C_13
REMARK    7  A    between atoms: C_18  and  C_19
REMARK    8  A    between atoms: C_27  and  O_28
REMARK                            x       y       z     vdW  Elec       q    Type
REMARK                         _______ _______ _______ _____ _____    ______ ____
ROOT
ATOM      1  C   UNL     1       7.340   7.404  17.828  0.00  0.00    +0.000 A 
ATOM      2  C   UNL     1       7.955   6.595  18.790  0.00  0.00    +0.000 A 
ATOM      3  C   UNL     1       7.406   5.362  19.121  0.00  0.00    +0.000 A 
ATOM      4  C   UNL     1       6.233   4.938  18.501  0.00  0.00    +0.000 A 
ATOM      5  C   UNL     1       5.582   5.764  17.581  0.00  0.00    +0.000 A 
ATOM      6  C   UNL     1       6.150   6.993  17.223  0.00  0.00    +0.000 A 
ENDROOT
BRANCH   1   8
ATOM      7  N   UNL     1       8.581   9.398  18.350  0.00  0.00    +0.000 NA
ATOM      8  C   UNL     1       7.962   8.693  17.456  0.00  0.00    +0.000 C 
BRANCH   7  11
ATOM      9  O   UNL     1       9.329  11.370  20.122  0.00  0.00    +0.000 OA
ATOM     10  C   UNL     1       9.485  11.509  18.914  0.00  0.00    +0.000 C 
ATOM     11  N   UNL     1       9.136  10.573  17.947  0.00  0.00    +0.000 N 
ATOM     12  H   UNL     1       9.189  10.780  16.960  0.00  0.00    +0.000 HD
BRANCH  10  13
ATOM     13  C   UNL     1      10.057  12.788  18.402  0.00  0.00    +0.000 A 
ATOM     14  C   UNL     1      10.973  12.834  17.342  0.00  0.00    +0.000 A 
ATOM     15  C   UNL     1      11.476  14.062  16.899  0.00  0.00    +0.000 A 
ATOM     16  C   UNL     1      11.067  15.237  17.525  0.00  0.00    +0.000 A 
ATOM     17  C   UNL     1      10.180  15.205  18.594  0.00  0.00    +0.000 A 
ATOM     18  C   UNL     1       9.676  13.981  19.036  0.00  0.00    +0.000 A 
BRANCH  16  19
ATOM     19  O   UNL     1      11.523  16.455  17.119  0.00  0.00    +0.000 OA
ATOM     20  H   UNL     1      11.610  16.455  16.151  0.00  0.00    +0.000 HD
ENDBRANCH  16  19
ENDBRANCH  10  13
ENDBRANCH   7  11
ENDBRANCH   1   8
BRANCH   5  21
ATOM     21  O   UNL     1       4.388   5.465  16.986  0.00  0.00    +0.000 OA
BRANCH  21  22
ATOM     22  C   UNL     1       3.229   5.686  17.791  0.00  0.00    +0.000 C 
BRANCH  22  23
ATOM     23  C   UNL     1       2.725   4.338  18.243  0.00  0.00    +0.000 A 
ATOM     24  C   UNL     1       2.687   3.301  17.290  0.00  0.00    +0.000 A 
ATOM     25  C   UNL     1       2.197   2.042  17.621  0.00  0.00    +0.000 A 
ATOM     26  C   UNL     1       1.732   1.798  18.907  0.00  0.00    +0.000 A 
ATOM     27  C   UNL     1       1.761   2.813  19.863  0.00  0.00    +0.000 A 
ATOM     28  C   UNL     1       2.251   4.098  19.552  0.00  0.00    +0.000 A 
BRANCH  28  29
ATOM     29  C   UNL     1       2.221   5.131  20.665  0.00  0.00    +0.000 C 
ATOM     30  F   UNL     1       2.402   4.656  21.925  0.00  0.00    +0.000 F 
ATOM     31  F   UNL     1       3.169   6.097  20.498  0.00  0.00    +0.000 F 
ATOM     32  F   UNL     1       1.027   5.793  20.703  0.00  0.00    +0.000 F 
ENDBRANCH  28  29
ENDBRANCH  22  23
ENDBRANCH  21  22
ENDBRANCH   5  21
TORSDOF 8
ENDMDL
MODEL 8
REMARK VINA RESULT:      -8.9      2.162      3.085
REMARK  Name = 
REMARK  8 active torsions:
REMARK  status: ('A' for Active; 'I' for Inactive)
REMARK    1  A    between atoms: C_2  and  C_24
REMARK    2  A    between atoms: N_3  and  N_4
REMARK    3  A    between atoms: C_5  and  C_6
REMARK    4  A    between atoms: C_10  and  O_11
REMARK    5  A    between atoms: O_11  and  C_12
REMARK    6  A    between atoms: C_12  and  C_13
REMARK    7  A    between atoms: C_18  and  C_19
REMARK    8  A    between atoms: C_27  and  O_28
REMARK                            x       y       z     vdW  Elec       q    Type
REMARK                         _______ _______ _______ _____ _____    ______ ____
ROOT
ATOM      1  C   UNL     1       7.464   7.509  17.939  0.00  0.00    +0.000 A 
ATOM      2  C   UNL     1       8.226   6.858  18.915  0.00  0.00    +0.000 A 
ATOM      3  C   UNL     1       7.953   5.537  19.250  0.00  0.00    +0.000 A 
ATOM      4  C   UNL     1       6.908   4.866  18.621  0.00  0.00    +0.000 A 
ATOM      5  C   UNL     1       6.106   5.527  17.686  0.00  0.00    +0.000 A 
ATOM      6  C   UNL     1       6.399   6.847  17.324  0.00  0.00    +0.000 A 
ENDROOT
BRANCH   1   8
ATOM      7  N   UNL     1       8.597   9.599  18.305  0.00  0.00    +0.000 NA
ATOM      8  C   UNL     1       7.797   8.900  17.564  0.00  0.00    +0.000 C 
BRANCH   7  11
ATOM      9  O   UNL     1      10.649  11.086  19.387  0.00  0.00    +0.000 OA
ATOM     10  C   UNL     1       9.928  11.544  18.508  0.00  0.00    +0.000 C 
ATOM     11  N   UNL     1       8.869  10.871  17.907  0.00  0.00    +0.000 N 
ATOM     12  H   UNL     1       8.242  11.331  17.264  0.00  0.00    +0.000 HD
BRANCH  10  13
ATOM     13  C   UNL     1      10.150  12.946  18.048  0.00  0.00    +0.000 A 
ATOM     14  C   UNL     1       9.228  13.974  18.289  0.00  0.00    +0.000 A 
ATOM     15  C   UNL     1       9.489  15.273  17.838  0.00  0.00    +0.000 A 
ATOM     16  C   UNL     1      10.666  15.534  17.141  0.00  0.00    +0.000 A 
ATOM     17  C   UNL     1      11.577  14.520  16.872  0.00  0.00    +0.000 A 
ATOM     18  C   UNL     1      11.319  13.224  17.322  0.00  0.00    +0.000 A 
BRANCH  16  19
ATOM     19  O   UNL     1      10.965  16.786  16.694  0.00  0.00    +0.000 OA
ATOM     20  H   UNL     1      10.645  17.438  17.339  0.00  0.00    +0.000 HD
ENDBRANCH  16  19
ENDBRANCH  10  13
ENDBRANCH   7  11
ENDBRANCH   1   8
BRANCH   5  21
ATOM     21  O   UNL     1       5.012   4.973  17.080  0.00  0.00    +0.000 OA
BRANCH  21  22
ATOM     22  C   UNL     1       3.835   5.781  17.079  0.00  0.00    +0.000 C 
BRANCH  22  23
ATOM     23  C   UNL     1       3.021   5.401  18.290  0.00  0.00    +0.000 A 
ATOM     24  C   UNL     1       2.752   6.406  19.239  0.00  0.00    +0.000 A 
ATOM     25  C   UNL     1       2.042   6.122  20.402  0.00  0.00    +0.000 A 
ATOM     26  C   UNL     1       1.593   4.830  20.638  0.00  0.00    +0.000 A 
ATOM     27  C   UNL     1       1.850   3.822  19.709  0.00  0.00    +0.000 A 
ATOM     28  C   UNL     1       2.568   4.083  18.524  0.00  0.00    +0.000 A 
BRANCH  28  29
ATOM     29  C   UNL     1       2.804   2.908  17.592  0.00  0.00    +0.000 C 
ATOM     30  F   UNL     1       4.080   2.443  17.529  0.00  0.00    +0.000 F 
ATOM     31  F   UNL     1       2.038   1.828  17.918  0.00  0.00    +0.000 F 
ATOM     32  F   UNL     1       2.474   3.214  16.303  0.00  0.00    +0.000 F 
ENDBRANCH  28  29
ENDBRANCH  22  23
ENDBRANCH  21  22
ENDBRANCH   5  21
TORSDOF 8
ENDMDL
MODEL 9
REMARK VINA RESULT:      -8.9      2.062      2.859
REMARK  Name = 
REMARK  8 active torsions:
REMARK  status: ('A' for Active; 'I' for Inactive)
REMARK    1  A    between atoms: C_2  and  C_24
REMARK    2  A    between atoms: N_3  and  N_4
REMARK    3  A    between atoms: C_5  and  C_6
REMARK    4  A    between atoms: C_10  and  O_11
REMARK    5  A    between atoms: O_11  and  C_12
REMARK    6  A    between atoms: C_12  and  C_13
REMARK    7  A    between atoms: C_18  and  C_19
REMARK    8  A    between atoms: C_27  and  O_28
REMARK                            x       y       z     vdW  Elec       q    Type
REMARK                         _______ _______ _______ _____ _____    ______ ____
ROOT
ATOM      1  C   UNL     1       7.456   6.860  17.938  0.00  0.00    +0.000 A 
ATOM      2  C   UNL     1       7.380   6.515  16.584  0.00  0.00    +0.000 A 
ATOM      3  C   UNL     1       6.531   5.496  16.169  0.00  0.00    +0.000 A 
ATOM      4  C   UNL     1       5.763   4.810  17.105  0.00  0.00    +0.000 A 
ATOM      5  C   UNL     1       5.875   5.110  18.466  0.00  0.00    +0.000 A 
ATOM      6  C   UNL     1       6.706   6.157  18.884  0.00  0.00    +0.000 A 
ENDROOT
BRANCH   1   8
ATOM      7  N   UNL     1       8.185   9.149  17.829  0.00  0.00    +0.000 NA
ATOM      8  C   UNL     1       8.331   7.975  18.357  0.00  0.00    +0.000 C 
BRANCH   7  11
ATOM      9  O   UNL     1       7.742  11.810  17.270  0.00  0.00    +0.000 OA
ATOM     10  C   UNL     1       8.711  11.453  17.929  0.00  0.00    +0.000 C 
ATOM     11  N   UNL     1       9.018  10.137  18.257  0.00  0.00    +0.000 N 
ATOM     12  H   UNL     1       9.884   9.888  18.712  0.00  0.00    +0.000 HD
BRANCH  10  13
ATOM     13  C   UNL     1       9.683  12.482  18.401  0.00  0.00    +0.000 A 
ATOM     14  C   UNL     1      10.406  13.298  17.520  0.00  0.00    +0.000 A 
ATOM     15  C   UNL     1      11.302  14.251  18.017  0.00  0.00    +0.000 A 
ATOM     16  C   UNL     1      11.478  14.375  19.393  0.00  0.00    +0.000 A 
ATOM     17  C   UNL     1      10.788  13.555  20.278  0.00  0.00    +0.000 A 
ATOM     18  C   UNL     1       9.893  12.606  19.783  0.00  0.00    +0.000 A 
BRANCH  16  19
ATOM     19  O   UNL     1      12.332  15.297  19.921  0.00  0.00    +0.000 OA
ATOM     20  H   UNL     1      12.296  15.245  20.890  0.00  0.00    +0.000 HD
ENDBRANCH  16  19
ENDBRANCH  10  13
ENDBRANCH   7  11
ENDBRANCH   1   8
BRANCH   5  21
ATOM     21  O   UNL     1       5.222   4.435  19.460  0.00  0.00    +0.000 OA
BRANCH  21  22
ATOM     22  C   UNL     1       4.609   3.206  19.068  0.00  0.00    +0.000 C 
BRANCH  22  23
ATOM     23  C   UNL     1       3.259   3.137  19.737  0.00  0.00    +0.000 A 
ATOM     24  C   UNL     1       3.196   2.571  21.026  0.00  0.00    +0.000 A 
ATOM     25  C   UNL     1       1.981   2.436  21.690  0.00  0.00    +0.000 A 
ATOM     26  C   UNL     1       0.809   2.858  21.077  0.00  0.00    +0.000 A 
ATOM     27  C   UNL     1       0.853   3.420  19.801  0.00  0.00    +0.000 A 
ATOM     28  C   UNL     1       2.070   3.567  19.106  0.00  0.00    +0.000 A 
BRANCH  28  29
ATOM     29  C   UNL     1       1.998   4.176  17.717  0.00  0.00    +0.000 C 
ATOM     30  F   UNL     1       0.752   4.451  17.251  0.00  0.00    +0.000 F 
ATOM     31  F   UNL     1       2.688   5.349  17.632  0.00  0.00    +0.000 F 
ATOM     32  F   UNL     1       2.555   3.355  16.780  0.00  0.00    +0.000 F 
ENDBRANCH  28  29
ENDBRANCH  22  23
ENDBRANCH  21  22
ENDBRANCH   5  21
TORSDOF 8
ENDMDL
