MODEL 1
REMARK VINA RESULT:      -8.1      0.000      0.000
REMARK  Name = 
REMARK  4 active torsions:
REMARK  status: ('A' for Active; 'I' for Inactive)
REMARK    1  A    between atoms: C_1  and  O_2
REMARK    2  A    between atoms: O_2  and  C_3
REMARK    3  A    between atoms: C_3  and  C_5
REMARK    4  A    between atoms: C_18  and  C_19
REMARK                            x       y       z     vdW  Elec       q    Type
REMARK                         _______ _______ _______ _____ _____    ______ ____
ROOT
ATOM      1  C   UNL     1       6.999   5.147  15.789  0.00  0.00    +0.000 C 
ATOM      2  C   UNL     1       6.593   4.211  16.946  0.00  0.00    +0.000 C 
ATOM      3  N   UNL     1       5.921   4.974  18.005  0.00  0.00    +0.000 N 
ATOM      4  C   UNL     1       4.744   4.540  18.531  0.00  0.00    +0.000 A 
ATOM      5  N   UNL     1       4.174   3.405  18.187  0.00  0.00    +0.000 NA
ATOM      6  C   UNL     1       2.961   3.232  18.833  0.00  0.00    +0.000 A 
ATOM      7  C   UNL     1       2.092   2.130  18.692  0.00  0.00    +0.000 A 
ATOM      8  C   UNL     1       0.880   2.108  19.392  0.00  0.00    +0.000 A 
ATOM      9  C   UNL     1       0.525   3.164  20.225  0.00  0.00    +0.000 A 
ATOM     10  C   UNL     1       1.377   4.259  20.389  0.00  0.00    +0.000 A 
ATOM     11  C   UNL     1       2.591   4.267  19.684  0.00  0.00    +0.000 A 
ATOM     12  S   UNL     1       3.829   5.447  19.689  0.00  0.00    +0.000 S 
ATOM     13  C   UNL     1       6.669   6.138  18.480  0.00  0.00    +0.000 C 
ATOM     14  C   UNL     1       7.046   7.026  17.276  0.00  0.00    +0.000 C 
ATOM     15  C   UNL     1       7.946   8.171  17.719  0.00  0.00    +0.000 C 
ATOM     16  O   UNL     1       7.755   6.274  16.271  0.00  0.00    +0.000 OA
ENDROOT
BRANCH   1  17
ATOM     17  C   UNL     1       5.783   5.478  14.906  0.00  0.00    +0.000 C 
ATOM     18  O   UNL     1       5.242   6.575  14.823  0.00  0.00    +0.000 OA
BRANCH  17  20
ATOM     19  C   UNL     1       6.440   3.925  13.279  0.00  0.00    +0.000 C 
ATOM     20  O   UNL     1       5.421   4.386  14.168  0.00  0.00    +0.000 OA
ENDBRANCH  17  20
ENDBRANCH   1  17
TORSDOF 2
ENDMDL
MODEL 2
REMARK VINA RESULT:      -7.8      1.525      3.374
REMARK  Name = 
REMARK  4 active torsions:
REMARK  status: ('A' for Active; 'I' for Inactive)
REMARK    1  A    between atoms: C_1  and  O_2
REMARK    2  A    between atoms: O_2  and  C_3
REMARK    3  A    between atoms: C_3  and  C_5
REMARK    4  A    between atoms: C_18  and  C_19
REMARK                            x       y       z     vdW  Elec       q    Type
REMARK                         _______ _______ _______ _____ _____    ______ ____
ROOT
ATOM      1  C   UNL     1       6.924   6.521  16.902  0.00  0.00    +0.000 C 
ATOM      2  C   UNL     1       5.404   6.536  17.166  0.00  0.00    +0.000 C 
ATOM      3  N   UNL     1       4.824   5.219  16.875  0.00  0.00    +0.000 N 
ATOM      4  C   UNL     1       3.990   4.618  17.767  0.00  0.00    +0.000 A 
ATOM      5  N   UNL     1       3.603   5.186  18.889  0.00  0.00    +0.000 NA
ATOM      6  C   UNL     1       2.801   4.336  19.634  0.00  0.00    +0.000 A 
ATOM      7  C   UNL     1       2.218   4.626  20.885  0.00  0.00    +0.000 A 
ATOM      8  C   UNL     1       1.450   3.653  21.535  0.00  0.00    +0.000 A 
ATOM      9  C   UNL     1       1.259   2.401  20.958  0.00  0.00    +0.000 A 
ATOM     10  C   UNL     1       1.816   2.098  19.714  0.00  0.00    +0.000 A 
ATOM     11  C   UNL     1       2.580   3.084  19.071  0.00  0.00    +0.000 A 
ATOM     12  S   UNL     1       3.370   3.014  17.555  0.00  0.00    +0.000 S 
ATOM     13  C   UNL     1       5.143   4.697  15.547  0.00  0.00    +0.000 C 
ATOM     14  C   UNL     1       6.672   4.713  15.348  0.00  0.00    +0.000 C 
ATOM     15  C   UNL     1       7.030   4.310  13.924  0.00  0.00    +0.000 C 
ATOM     16  O   UNL     1       7.218   6.027  15.582  0.00  0.00    +0.000 OA
ENDROOT
BRANCH   1  17
ATOM     17  C   UNL     1       7.669   5.836  18.060  0.00  0.00    +0.000 C 
ATOM     18  O   UNL     1       7.768   4.625  18.225  0.00  0.00    +0.000 OA
BRANCH  17  20
ATOM     19  C   UNL     1       8.281   8.084  18.300  0.00  0.00    +0.000 C 
ATOM     20  O   UNL     1       8.269   6.769  18.857  0.00  0.00    +0.000 OA
ENDBRANCH  17  20
ENDBRANCH   1  17
TORSDOF 2
ENDMDL
MODEL 3
REMARK VINA RESULT:      -7.2      4.100      5.627
REMARK  Name = 
REMARK  4 active torsions:
REMARK  status: ('A' for Active; 'I' for Inactive)
REMARK    1  A    between atoms: C_1  and  O_2
REMARK    2  A    between atoms: O_2  and  C_3
REMARK    3  A    between atoms: C_3  and  C_5
REMARK    4  A    between atoms: C_18  and  C_19
REMARK                            x       y       z     vdW  Elec       q    Type
REMARK                         _______ _______ _______ _____ _____    ______ ____
ROOT
ATOM      1  C   UNL     1       3.635   3.570  18.972  0.00  0.00    +0.000 C 
ATOM      2  C   UNL     1       3.803   4.930  19.678  0.00  0.00    +0.000 C 
ATOM      3  N   UNL     1       3.614   6.027  18.720  0.00  0.00    +0.000 N 
ATOM      4  C   UNL     1       2.794   7.072  19.017  0.00  0.00    +0.000 A 
ATOM      5  N   UNL     1       2.183   7.203  20.175  0.00  0.00    +0.000 NA
ATOM      6  C   UNL     1       1.370   8.325  20.192  0.00  0.00    +0.000 A 
ATOM      7  C   UNL     1       0.574   8.760  21.272  0.00  0.00    +0.000 A 
ATOM      8  C   UNL     1      -0.221   9.904  21.132  0.00  0.00    +0.000 A 
ATOM      9  C   UNL     1      -0.234  10.613  19.935  0.00  0.00    +0.000 A 
ATOM     10  C   UNL     1       0.556  10.208  18.858  0.00  0.00    +0.000 A 
ATOM     11  C   UNL     1       1.352   9.062  19.013  0.00  0.00    +0.000 A 
ATOM     12  S   UNL     1       2.420   8.335  17.892  0.00  0.00    +0.000 S 
ATOM     13  C   UNL     1       4.440   5.930  17.517  0.00  0.00    +0.000 C 
ATOM     14  C   UNL     1       4.228   4.548  16.865  0.00  0.00    +0.000 C 
ATOM     15  C   UNL     1       5.179   4.360  15.692  0.00  0.00    +0.000 C 
ATOM     16  O   UNL     1       4.473   3.481  17.804  0.00  0.00    +0.000 OA
ENDROOT
BRANCH   1  17
ATOM     17  C   UNL     1       2.146   3.249  18.759  0.00  0.00    +0.000 C 
ATOM     18  O   UNL     1       1.687   2.576  17.842  0.00  0.00    +0.000 OA
BRANCH  17  20
ATOM     19  C   UNL     1       1.197   2.864  20.866  0.00  0.00    +0.000 C 
ATOM     20  O   UNL     1       1.397   3.767  19.778  0.00  0.00    +0.000 OA
ENDBRANCH  17  20
ENDBRANCH   1  17
TORSDOF 2
ENDMDL
MODEL 4
REMARK VINA RESULT:      -6.9      3.849      5.006
REMARK  Name = 
REMARK  4 active torsions:
REMARK  status: ('A' for Active; 'I' for Inactive)
REMARK    1  A    between atoms: C_1  and  O_2
REMARK    2  A    between atoms: O_2  and  C_3
REMARK    3  A    between atoms: C_3  and  C_5
REMARK    4  A    between atoms: C_18  and  C_19
REMARK                            x       y       z     vdW  Elec       q    Type
REMARK                         _______ _______ _______ _____ _____    ______ ____
ROOT
ATOM      1  C   UNL     1       4.120   3.856  18.276  0.00  0.00    +0.000 C 
ATOM      2  C   UNL     1       4.173   5.117  19.163  0.00  0.00    +0.000 C 
ATOM      3  N   UNL     1       3.884   6.313  18.362  0.00  0.00    +0.000 N 
ATOM      4  C   UNL     1       2.978   7.232  18.794  0.00  0.00    +0.000 A 
ATOM      5  N   UNL     1       2.364   7.151  19.956  0.00  0.00    +0.000 NA
ATOM      6  C   UNL     1       1.457   8.185  20.121  0.00  0.00    +0.000 A 
ATOM      7  C   UNL     1       0.633   8.397  21.245  0.00  0.00    +0.000 A 
ATOM      8  C   UNL     1      -0.260   9.476  21.258  0.00  0.00    +0.000 A 
ATOM      9  C   UNL     1      -0.342  10.338  20.169  0.00  0.00    +0.000 A 
ATOM     10  C   UNL     1       0.475  10.154  19.051  0.00  0.00    +0.000 A 
ATOM     11  C   UNL     1       1.368   9.071  19.053  0.00  0.00    +0.000 A 
ATOM     12  S   UNL     1       2.489   8.600  17.850  0.00  0.00    +0.000 S 
ATOM     13  C   UNL     1       4.708   6.453  17.162  0.00  0.00    +0.000 C 
ATOM     14  C   UNL     1       4.613   5.161  16.327  0.00  0.00    +0.000 C 
ATOM     15  C   UNL     1       5.570   5.218  15.144  0.00  0.00    +0.000 C 
ATOM     16  O   UNL     1       4.956   4.001  17.112  0.00  0.00    +0.000 OA
ENDROOT
BRANCH   1  17
ATOM     17  C   UNL     1       2.663   3.439  18.012  0.00  0.00    +0.000 C 
ATOM     18  O   UNL     1       1.708   4.203  17.931  0.00  0.00    +0.000 OA
BRANCH  17  20
ATOM     19  C   UNL     1       3.551   1.339  18.551  0.00  0.00    +0.000 C 
ATOM     20  O   UNL     1       2.584   2.089  17.815  0.00  0.00    +0.000 OA
ENDBRANCH  17  20
ENDBRANCH   1  17
TORSDOF 2
ENDMDL
MODEL 5
REMARK VINA RESULT:      -6.6      0.536      1.238
REMARK  Name = 
REMARK  4 active torsions:
REMARK  status: ('A' for Active; 'I' for Inactive)
REMARK    1  A    between atoms: C_1  and  O_2
REMARK    2  A    between atoms: O_2  and  C_3
REMARK    3  A    between atoms: C_3  and  C_5
REMARK    4  A    between atoms: C_18  and  C_19
REMARK                            x       y       z     vdW  Elec       q    Type
REMARK                         _______ _______ _______ _____ _____    ______ ____
ROOT
ATOM      1  C   UNL     1       7.105   5.086  15.878  0.00  0.00    +0.000 C 
ATOM      2  C   UNL     1       6.688   4.161  17.040  0.00  0.00    +0.000 C 
ATOM      3  N   UNL     1       5.992   4.932  18.078  0.00  0.00    +0.000 N 
ATOM      4  C   UNL     1       4.810   4.493  18.590  0.00  0.00    +0.000 A 
ATOM      5  N   UNL     1       4.257   3.348  18.251  0.00  0.00    +0.000 NA
ATOM      6  C   UNL     1       3.035   3.172  18.879  0.00  0.00    +0.000 A 
ATOM      7  C   UNL     1       2.179   2.060  18.739  0.00  0.00    +0.000 A 
ATOM      8  C   UNL     1       0.956   2.035  19.419  0.00  0.00    +0.000 A 
ATOM      9  C   UNL     1       0.577   3.099  20.231  0.00  0.00    +0.000 A 
ATOM     10  C   UNL     1       1.415   4.204  20.395  0.00  0.00    +0.000 A 
ATOM     11  C   UNL     1       2.640   4.215  19.710  0.00  0.00    +0.000 A 
ATOM     12  S   UNL     1       3.867   5.407  19.720  0.00  0.00    +0.000 S 
ATOM     13  C   UNL     1       6.720   6.110  18.549  0.00  0.00    +0.000 C 
ATOM     14  C   UNL     1       7.108   6.985  17.340  0.00  0.00    +0.000 C 
ATOM     15  C   UNL     1       7.990   8.144  17.782  0.00  0.00    +0.000 C 
ATOM     16  O   UNL     1       7.841   6.226  16.357  0.00  0.00    +0.000 OA
ENDROOT
BRANCH   1  17
ATOM     17  C   UNL     1       5.901   5.393  14.970  0.00  0.00    +0.000 C 
ATOM     18  O   UNL     1       5.293   4.572  14.293  0.00  0.00    +0.000 OA
BRANCH  17  20
ATOM     19  C   UNL     1       4.371   6.941  15.838  0.00  0.00    +0.000 C 
ATOM     20  O   UNL     1       5.554   6.711  15.071  0.00  0.00    +0.000 OA
ENDBRANCH  17  20
ENDBRANCH   1  17
TORSDOF 2
ENDMDL
MODEL 6
REMARK VINA RESULT:      -6.5      3.716      5.217
REMARK  Name = 
REMARK  4 active torsions:
REMARK  status: ('A' for Active; 'I' for Inactive)
REMARK    1  A    between atoms: C_1  and  O_2
REMARK    2  A    between atoms: O_2  and  C_3
REMARK    3  A    between atoms: C_3  and  C_5
REMARK    4  A    between atoms: C_18  and  C_19
REMARK                            x       y       z     vdW  Elec       q    Type
REMARK                         _______ _______ _______ _____ _____    ______ ____
ROOT
ATOM      1  C   UNL     1       5.220   4.495  17.699  0.00  0.00    +0.000 C 
ATOM      2  C   UNL     1       3.868   5.170  17.390  0.00  0.00    +0.000 C 
ATOM      3  N   UNL     1       3.093   5.344  18.625  0.00  0.00    +0.000 N 
ATOM      4  C   UNL     1       2.519   6.543  18.918  0.00  0.00    +0.000 A 
ATOM      5  N   UNL     1       2.560   7.581  18.109  0.00  0.00    +0.000 NA
ATOM      6  C   UNL     1       1.945   8.686  18.675  0.00  0.00    +0.000 A 
ATOM      7  C   UNL     1       1.813   9.959  18.082  0.00  0.00    +0.000 A 
ATOM      8  C   UNL     1       1.188  10.993  18.790  0.00  0.00    +0.000 A 
ATOM      9  C   UNL     1       0.698  10.775  20.074  0.00  0.00    +0.000 A 
ATOM     10  C   UNL     1       0.807   9.519  20.674  0.00  0.00    +0.000 A 
ATOM     11  C   UNL     1       1.432   8.490  19.952  0.00  0.00    +0.000 A 
ATOM     12  S   UNL     1       1.700   6.864  20.411  0.00  0.00    +0.000 S 
ATOM     13  C   UNL     1       2.927   4.125  19.414  0.00  0.00    +0.000 C 
ATOM     14  C   UNL     1       4.312   3.501  19.682  0.00  0.00    +0.000 C 
ATOM     15  C   UNL     1       4.166   2.155  20.378  0.00  0.00    +0.000 C 
ATOM     16  O   UNL     1       5.037   3.284  18.455  0.00  0.00    +0.000 OA
ENDROOT
BRANCH   1  17
ATOM     17  C   UNL     1       6.213   5.513  18.286  0.00  0.00    +0.000 C 
ATOM     18  O   UNL     1       6.950   5.315  19.246  0.00  0.00    +0.000 OA
BRANCH  17  20
ATOM     19  C   UNL     1       7.473   7.325  17.502  0.00  0.00    +0.000 C 
ATOM     20  O   UNL     1       6.209   6.662  17.546  0.00  0.00    +0.000 OA
ENDBRANCH  17  20
ENDBRANCH   1  17
TORSDOF 2
ENDMDL
MODEL 7
REMARK VINA RESULT:      -6.4      4.493      5.901
REMARK  Name = 
REMARK  4 active torsions:
REMARK  status: ('A' for Active; 'I' for Inactive)
REMARK    1  A    between atoms: C_1  and  O_2
REMARK    2  A    between atoms: O_2  and  C_3
REMARK    3  A    between atoms: C_3  and  C_5
REMARK    4  A    between atoms: C_18  and  C_19
REMARK                            x       y       z     vdW  Elec       q    Type
REMARK                         _______ _______ _______ _____ _____    ______ ____
ROOT
ATOM      1  C   UNL     1       3.524   4.035  19.635  0.00  0.00    +0.000 C 
ATOM      2  C   UNL     1       3.683   5.515  20.039  0.00  0.00    +0.000 C 
ATOM      3  N   UNL     1       3.338   6.390  18.911  0.00  0.00    +0.000 N 
ATOM      4  C   UNL     1       2.493   7.442  19.085  0.00  0.00    +0.000 A 
ATOM      5  N   UNL     1       1.993   7.781  20.254  0.00  0.00    +0.000 NA
ATOM      6  C   UNL     1       1.124   8.853  20.140  0.00  0.00    +0.000 A 
ATOM      7  C   UNL     1       0.415   9.467  21.194  0.00  0.00    +0.000 A 
ATOM      8  C   UNL     1      -0.454  10.530  20.920  0.00  0.00    +0.000 A 
ATOM      9  C   UNL     1      -0.626  10.984  19.616  0.00  0.00    +0.000 A 
ATOM     10  C   UNL     1       0.075  10.399  18.559  0.00  0.00    +0.000 A 
ATOM     11  C   UNL     1       0.947   9.338  18.849  0.00  0.00    +0.000 A 
ATOM     12  S   UNL     1       1.938   8.440  17.782  0.00  0.00    +0.000 S 
ATOM     13  C   UNL     1       4.044   6.083  17.668  0.00  0.00    +0.000 C 
ATOM     14  C   UNL     1       3.848   4.592  17.326  0.00  0.00    +0.000 C 
ATOM     15  C   UNL     1       4.687   4.207  16.116  0.00  0.00    +0.000 C 
ATOM     16  O   UNL     1       4.245   3.745  18.423  0.00  0.00    +0.000 OA
ENDROOT
BRANCH   1  17
ATOM     17  C   UNL     1       2.041   3.624  19.652  0.00  0.00    +0.000 C 
ATOM     18  O   UNL     1       1.109   4.338  20.005  0.00  0.00    +0.000 OA
BRANCH  17  20
ATOM     19  C   UNL     1       0.609   2.113  18.578  0.00  0.00    +0.000 C 
ATOM     20  O   UNL     1       1.893   2.361  19.153  0.00  0.00    +0.000 OA
ENDBRANCH  17  20
ENDBRANCH   1  17
TORSDOF 2
ENDMDL
MODEL 8
REMARK VINA RESULT:      -6.3      3.643      4.863
REMARK  Name = 
REMARK  4 active torsions:
REMARK  status: ('A' for Active; 'I' for Inactive)
REMARK    1  A    between atoms: C_1  and  O_2
REMARK    2  A    between atoms: O_2  and  C_3
REMARK    3  A    between atoms: C_3  and  C_5
REMARK    4  A    between atoms: C_18  and  C_19
REMARK                            x       y       z     vdW  Elec       q    Type
REMARK                         _______ _______ _______ _____ _____    ______ ____
ROOT
ATOM      1  C   UNL     1       4.627   3.696  18.250  0.00  0.00    +0.000 C 
ATOM      2  C   UNL     1       4.636   4.999  19.075  0.00  0.00    +0.000 C 
ATOM      3  N   UNL     1       4.221   6.132  18.238  0.00  0.00    +0.000 N 
ATOM      4  C   UNL     1       3.275   7.006  18.678  0.00  0.00    +0.000 A 
ATOM      5  N   UNL     1       2.730   6.940  19.874  0.00  0.00    +0.000 NA
ATOM      6  C   UNL     1       1.761   7.915  20.042  0.00  0.00    +0.000 A 
ATOM      7  C   UNL     1       0.983   8.125  21.199  0.00  0.00    +0.000 A 
ATOM      8  C   UNL     1       0.017   9.139  21.213  0.00  0.00    +0.000 A 
ATOM      9  C   UNL     1      -0.182   9.940  20.093  0.00  0.00    +0.000 A 
ATOM     10  C   UNL     1       0.587   9.758  18.941  0.00  0.00    +0.000 A 
ATOM     11  C   UNL     1       1.554   8.741  18.943  0.00  0.00    +0.000 A 
ATOM     12  S   UNL     1       2.642   8.290  17.702  0.00  0.00    +0.000 S 
ATOM     13  C   UNL     1       4.970   6.270  16.990  0.00  0.00    +0.000 C 
ATOM     14  C   UNL     1       4.924   4.935  16.220  0.00  0.00    +0.000 C 
ATOM     15  C   UNL     1       5.812   5.001  14.985  0.00  0.00    +0.000 C 
ATOM     16  O   UNL     1       5.389   3.841  17.036  0.00  0.00    +0.000 OA
ENDROOT
BRANCH   1  17
ATOM     17  C   UNL     1       3.192   3.167  18.085  0.00  0.00    +0.000 C 
ATOM     18  O   UNL     1       2.881   2.106  17.555  0.00  0.00    +0.000 OA
BRANCH  17  20
ATOM     19  C   UNL     1       1.147   4.292  17.877  0.00  0.00    +0.000 C 
ATOM     20  O   UNL     1       2.301   4.020  18.674  0.00  0.00    +0.000 OA
ENDBRANCH  17  20
ENDBRANCH   1  17
TORSDOF 2
ENDMDL
MODEL 9
REMARK VINA RESULT:      -6.2      1.636      3.201
REMARK  Name = 
REMARK  4 active torsions:
REMARK  status: ('A' for Active; 'I' for Inactive)
REMARK    1  A    between atoms: C_1  and  O_2
REMARK    2  A    between atoms: O_2  and  C_3
REMARK    3  A    between atoms: C_3  and  C_5
REMARK    4  A    between atoms: C_18  and  C_19
REMARK                            x       y       z     vdW  Elec       q    Type
REMARK                         _______ _______ _______ _____ _____    ______ ____
ROOT
ATOM      1  C   UNL     1       6.273   6.672  15.927  0.00  0.00    +0.000 C 
ATOM      2  C   UNL     1       4.815   6.447  16.375  0.00  0.00    +0.000 C 
ATOM      3  N   UNL     1       4.520   5.010  16.444  0.00  0.00    +0.000 N 
ATOM      4  C   UNL     1       3.915   4.480  17.542  0.00  0.00    +0.000 A 
ATOM      5  N   UNL     1       3.503   5.205  18.560  0.00  0.00    +0.000 NA
ATOM      6  C   UNL     1       2.973   4.410  19.563  0.00  0.00    +0.000 A 
ATOM      7  C   UNL     1       2.443   4.860  20.790  0.00  0.00    +0.000 A 
ATOM      8  C   UNL     1       1.966   3.932  21.723  0.00  0.00    +0.000 A 
ATOM      9  C   UNL     1       2.011   2.569  21.451  0.00  0.00    +0.000 A 
ATOM     10  C   UNL     1       2.519   2.102  20.237  0.00  0.00    +0.000 A 
ATOM     11  C   UNL     1       2.991   3.043  19.308  0.00  0.00    +0.000 A 
ATOM     12  S   UNL     1       3.651   2.781  17.752  0.00  0.00    +0.000 S 
ATOM     13  C   UNL     1       4.838   4.268  15.225  0.00  0.00    +0.000 C 
ATOM     14  C   UNL     1       6.304   4.540  14.832  0.00  0.00    +0.000 C 
ATOM     15  C   UNL     1       6.625   3.896  13.491  0.00  0.00    +0.000 C 
ATOM     16  O   UNL     1       6.562   5.954  14.713  0.00  0.00    +0.000 OA
ENDROOT
BRANCH   1  17
ATOM     17  C   UNL     1       7.243   6.436  17.097  0.00  0.00    +0.000 C 
ATOM     18  O   UNL     1       7.513   7.251  17.973  0.00  0.00    +0.000 OA
BRANCH  17  20
ATOM     19  C   UNL     1       7.682   4.493  18.330  0.00  0.00    +0.000 C 
ATOM     20  O   UNL     1       7.723   5.157  17.066  0.00  0.00    +0.000 OA
ENDBRANCH  17  20
ENDBRANCH   1  17
TORSDOF 2
ENDMDL
