MODEL 1
REMARK VINA RESULT:      -6.8      0.000      0.000
REMARK  Name = 
REMARK  4 active torsions:
REMARK  status: ('A' for Active; 'I' for Inactive)
REMARK    1  A    between atoms: C_1  and  N_2
REMARK    2  A    between atoms: C_6  and  C_8
REMARK    3  A    between atoms: N_15  and  C_16
REMARK    4  A    between atoms: C_16  and  C_17
REMARK                            x       y       z     vdW  Elec       q    Type
REMARK                         _______ _______ _______ _____ _____    ______ ____
ROOT
ATOM      1  C   UNL     1      -0.578  12.175  19.803  0.00  0.00    +0.000 A 
ATOM      2  C   UNL     1      -1.933  12.437  19.620  0.00  0.00    +0.000 A 
ATOM      3  C   UNL     1      -2.411  11.510  18.663  0.00  0.00    +0.000 A 
ATOM      4  S   UNL     1      -3.916  11.032  17.957  0.00  0.00    +0.000 S 
ATOM      5  C   UNL     1      -3.074   9.946  16.929  0.00  0.00    +0.000 A 
ATOM      6  C   UNL     1      -1.707   9.934  17.115  0.00  0.00    +0.000 A 
ATOM      7  C   UNL     1      -1.347  10.832  18.159  0.00  0.00    +0.000 A 
ATOM      8  N   UNL     1      -0.204  11.266  18.818  0.00  0.00    +0.000 N 
ENDROOT
BRANCH   1  14
ATOM      9  C   UNL     1       4.874  15.218  18.627  0.00  0.00    +0.000 C 
ATOM     10  N   UNL     1       3.565  15.160  19.274  0.00  0.00    +0.000 NA
ATOM     11  C   UNL     1       3.632  14.404  20.547  0.00  0.00    +0.000 C 
ATOM     12  C   UNL     1       2.255  14.286  21.242  0.00  0.00    +0.000 C 
ATOM     13  N   UNL     1       1.233  13.769  20.320  0.00  0.00    +0.000 N 
ATOM     14  C   UNL     1       0.327  12.809  20.770  0.00  0.00    +0.000 C 
ATOM     15  O   UNL     1       0.310  12.481  21.957  0.00  0.00    +0.000 OA
ATOM     16  C   UNL     1       1.175  14.542  19.071  0.00  0.00    +0.000 C 
ATOM     17  C   UNL     1       2.553  14.553  18.385  0.00  0.00    +0.000 C 
ENDBRANCH   1  14
BRANCH   8  18
ATOM     18  C   UNL     1       1.134  10.831  18.426  0.00  0.00    +0.000 C 
BRANCH  18  19
ATOM     19  C   UNL     1       1.440   9.425  18.888  0.00  0.00    +0.000 A 
ATOM     20  C   UNL     1       1.147   9.014  20.199  0.00  0.00    +0.000 A 
ATOM     21  C   UNL     1       1.511   7.741  20.646  0.00  0.00    +0.000 A 
ATOM     22  C   UNL     1       2.159   6.865  19.781  0.00  0.00    +0.000 A 
ATOM     23 CL   UNL     1       2.670   5.323  20.350  0.00  0.00    +0.000 Cl
ATOM     24  C   UNL     1       2.408   7.234  18.462  0.00  0.00    +0.000 A 
ATOM     25  C   UNL     1       2.045   8.508  18.016  0.00  0.00    +0.000 A 
ENDBRANCH  18  19
ENDBRANCH   8  18
TORSDOF 3
ENDMDL
MODEL 2
REMARK VINA RESULT:      -6.7      4.717      7.371
REMARK  Name = 
REMARK  4 active torsions:
REMARK  status: ('A' for Active; 'I' for Inactive)
REMARK    1  A    between atoms: C_1  and  N_2
REMARK    2  A    between atoms: C_6  and  C_8
REMARK    3  A    between atoms: N_15  and  C_16
REMARK    4  A    between atoms: C_16  and  C_17
REMARK                            x       y       z     vdW  Elec       q    Type
REMARK                         _______ _______ _______ _____ _____    ______ ____
ROOT
ATOM      1  C   UNL     1       2.483   6.183  18.381  0.00  0.00    +0.000 A 
ATOM      2  C   UNL     1       1.447   5.252  18.377  0.00  0.00    +0.000 A 
ATOM      3  C   UNL     1       2.013   3.997  18.704  0.00  0.00    +0.000 A 
ATOM      4  S   UNL     1       1.487   2.384  19.041  0.00  0.00    +0.000 S 
ATOM      5  C   UNL     1       3.127   1.889  19.160  0.00  0.00    +0.000 A 
ATOM      6  C   UNL     1       4.041   2.903  18.962  0.00  0.00    +0.000 A 
ATOM      7  C   UNL     1       3.364   4.134  18.732  0.00  0.00    +0.000 A 
ATOM      8  N   UNL     1       3.671   5.466  18.487  0.00  0.00    +0.000 N 
ENDROOT
BRANCH   1  14
ATOM      9  C   UNL     1      -0.905  10.301  21.834  0.00  0.00    +0.000 C 
ATOM     10  N   UNL     1       0.350   9.906  21.199  0.00  0.00    +0.000 NA
ATOM     11  C   UNL     1       0.366  10.287  19.767  0.00  0.00    +0.000 C 
ATOM     12  C   UNL     1       1.665   9.849  19.049  0.00  0.00    +0.000 C 
ATOM     13  N   UNL     1       1.940   8.421  19.266  0.00  0.00    +0.000 N 
ATOM     14  C   UNL     1       2.373   7.636  18.199  0.00  0.00    +0.000 C 
ATOM     15  O   UNL     1       2.632   8.156  17.112  0.00  0.00    +0.000 OA
ATOM     16  C   UNL     1       1.933   8.069  20.694  0.00  0.00    +0.000 C 
ATOM     17  C   UNL     1       0.586   8.454  21.333  0.00  0.00    +0.000 C 
ENDBRANCH   1  14
BRANCH   8  18
ATOM     18  C   UNL     1       5.046   5.932  18.320  0.00  0.00    +0.000 C 
BRANCH  18  19
ATOM     19  C   UNL     1       5.616   5.564  16.970  0.00  0.00    +0.000 A 
ATOM     20  C   UNL     1       5.119   6.145  15.791  0.00  0.00    +0.000 A 
ATOM     21  C   UNL     1       5.590   5.737  14.540  0.00  0.00    +0.000 A 
ATOM     22  C   UNL     1       6.573   4.756  14.460  0.00  0.00    +0.000 A 
ATOM     23 CL   UNL     1       7.105   4.202  12.919  0.00  0.00    +0.000 Cl
ATOM     24  C   UNL     1       7.117   4.209  15.618  0.00  0.00    +0.000 A 
ATOM     25  C   UNL     1       6.644   4.615  16.869  0.00  0.00    +0.000 A 
ENDBRANCH  18  19
ENDBRANCH   8  18
TORSDOF 3
ENDMDL
MODEL 3
REMARK VINA RESULT:      -6.7      4.822      7.438
REMARK  Name = 
REMARK  4 active torsions:
REMARK  status: ('A' for Active; 'I' for Inactive)
REMARK    1  A    between atoms: C_1  and  N_2
REMARK    2  A    between atoms: C_6  and  C_8
REMARK    3  A    between atoms: N_15  and  C_16
REMARK    4  A    between atoms: C_16  and  C_17
REMARK                            x       y       z     vdW  Elec       q    Type
REMARK                         _______ _______ _______ _____ _____    ______ ____
ROOT
ATOM      1  C   UNL     1       2.639   6.000  18.098  0.00  0.00    +0.000 A 
ATOM      2  C   UNL     1       1.476   5.234  18.086  0.00  0.00    +0.000 A 
ATOM      3  C   UNL     1       1.821   3.946  18.558  0.00  0.00    +0.000 A 
ATOM      4  S   UNL     1       1.034   2.464  18.980  0.00  0.00    +0.000 S 
ATOM      5  C   UNL     1       2.567   1.748  19.270  0.00  0.00    +0.000 A 
ATOM      6  C   UNL     1       3.636   2.595  19.066  0.00  0.00    +0.000 A 
ATOM      7  C   UNL     1       3.172   3.885  18.684  0.00  0.00    +0.000 A 
ATOM      8  N   UNL     1       3.695   5.130  18.357  0.00  0.00    +0.000 N 
ENDROOT
BRANCH   1  14
ATOM      9  C   UNL     1      -0.753  10.813  20.483  0.00  0.00    +0.000 C 
ATOM     10  N   UNL     1       0.534  10.211  20.145  0.00  0.00    +0.000 NA
ATOM     11  C   UNL     1       0.875  10.443  18.722  0.00  0.00    +0.000 C 
ATOM     12  C   UNL     1       2.215   9.785  18.315  0.00  0.00    +0.000 C 
ATOM     13  N   UNL     1       2.247   8.363  18.688  0.00  0.00    +0.000 N 
ATOM     14  C   UNL     1       2.765   7.430  17.791  0.00  0.00    +0.000 C 
ATOM     15  O   UNL     1       3.294   7.806  16.744  0.00  0.00    +0.000 OA
ATOM     16  C   UNL     1       1.919   8.158  20.107  0.00  0.00    +0.000 C 
ATOM     17  C   UNL     1       0.541   8.761  20.431  0.00  0.00    +0.000 C 
ENDBRANCH   1  14
BRANCH   8  18
ATOM     18  C   UNL     1       5.132   5.372  18.263  0.00  0.00    +0.000 C 
BRANCH  18  19
ATOM     19  C   UNL     1       5.681   5.050  16.894  0.00  0.00    +0.000 A 
ATOM     20  C   UNL     1       7.001   5.382  16.546  0.00  0.00    +0.000 A 
ATOM     21  C   UNL     1       7.476   5.160  15.251  0.00  0.00    +0.000 A 
ATOM     22  C   UNL     1       6.638   4.591  14.297  0.00  0.00    +0.000 A 
ATOM     23 CL   UNL     1       7.198   4.381  12.682  0.00  0.00    +0.000 Cl
ATOM     24  C   UNL     1       5.345   4.204  14.638  0.00  0.00    +0.000 A 
ATOM     25  C   UNL     1       4.870   4.429  15.933  0.00  0.00    +0.000 A 
ENDBRANCH  18  19
ENDBRANCH   8  18
TORSDOF 3
ENDMDL
MODEL 4
REMARK VINA RESULT:      -6.6      0.553      1.113
REMARK  Name = 
REMARK  4 active torsions:
REMARK  status: ('A' for Active; 'I' for Inactive)
REMARK    1  A    between atoms: C_1  and  N_2
REMARK    2  A    between atoms: C_6  and  C_8
REMARK    3  A    between atoms: N_15  and  C_16
REMARK    4  A    between atoms: C_16  and  C_17
REMARK                            x       y       z     vdW  Elec       q    Type
REMARK                         _______ _______ _______ _____ _____    ______ ____
ROOT
ATOM      1  C   UNL     1      -0.869  12.150  19.884  0.00  0.00    +0.000 A 
ATOM      2  C   UNL     1      -2.233  12.321  19.662  0.00  0.00    +0.000 A 
ATOM      3  C   UNL     1      -2.609  11.406  18.650  0.00  0.00    +0.000 A 
ATOM      4  S   UNL     1      -4.050  10.853  17.868  0.00  0.00    +0.000 S 
ATOM      5  C   UNL     1      -3.095   9.878  16.826  0.00  0.00    +0.000 A 
ATOM      6  C   UNL     1      -1.738   9.958  17.062  0.00  0.00    +0.000 A 
ATOM      7  C   UNL     1      -1.481  10.831  18.156  0.00  0.00    +0.000 A 
ATOM      8  N   UNL     1      -0.396  11.316  18.875  0.00  0.00    +0.000 N 
ENDROOT
BRANCH   1  14
ATOM      9  C   UNL     1       3.999  16.140  19.022  0.00  0.00    +0.000 C 
ATOM     10  N   UNL     1       2.735  15.799  19.671  0.00  0.00    +0.000 NA
ATOM     11  C   UNL     1       2.958  14.920  20.843  0.00  0.00    +0.000 C 
ATOM     12  C   UNL     1       1.638  14.504  21.535  0.00  0.00    +0.000 C 
ATOM     13  N   UNL     1       0.683  13.941  20.568  0.00  0.00    +0.000 N 
ATOM     14  C   UNL     1      -0.047  12.803  20.910  0.00  0.00    +0.000 C 
ATOM     15  O   UNL     1       0.024  12.341  22.049  0.00  0.00    +0.000 OA
ATOM     16  C   UNL     1       0.467  14.835  19.421  0.00  0.00    +0.000 C 
ATOM     17  C   UNL     1       1.805  15.146  18.727  0.00  0.00    +0.000 C 
ENDBRANCH   1  14
BRANCH   8  18
ATOM     18  C   UNL     1       0.983  10.997  18.514  0.00  0.00    +0.000 C 
BRANCH  18  19
ATOM     19  C   UNL     1       1.403   9.630  18.999  0.00  0.00    +0.000 A 
ATOM     20  C   UNL     1       2.076   8.735  18.150  0.00  0.00    +0.000 A 
ATOM     21  C   UNL     1       2.384   7.441  18.576  0.00  0.00    +0.000 A 
ATOM     22  C   UNL     1       2.034   7.036  19.861  0.00  0.00    +0.000 A 
ATOM     23 CL   UNL     1       2.350   5.420  20.364  0.00  0.00    +0.000 Cl
ATOM     24  C   UNL     1       1.417   7.926  20.735  0.00  0.00    +0.000 A 
ATOM     25  C   UNL     1       1.107   9.219  20.307  0.00  0.00    +0.000 A 
ENDBRANCH  18  19
ENDBRANCH   8  18
TORSDOF 3
ENDMDL
MODEL 5
REMARK VINA RESULT:      -6.5      4.589      7.317
REMARK  Name = 
REMARK  4 active torsions:
REMARK  status: ('A' for Active; 'I' for Inactive)
REMARK    1  A    between atoms: C_1  and  N_2
REMARK    2  A    between atoms: C_6  and  C_8
REMARK    3  A    between atoms: N_15  and  C_16
REMARK    4  A    between atoms: C_16  and  C_17
REMARK                            x       y       z     vdW  Elec       q    Type
REMARK                         _______ _______ _______ _____ _____    ______ ____
ROOT
ATOM      1  C   UNL     1       2.704   6.056  18.937  0.00  0.00    +0.000 A 
ATOM      2  C   UNL     1       1.581   5.308  19.279  0.00  0.00    +0.000 A 
ATOM      3  C   UNL     1       2.037   4.163  19.973  0.00  0.00    +0.000 A 
ATOM      4  S   UNL     1       1.376   2.818  20.838  0.00  0.00    +0.000 S 
ATOM      5  C   UNL     1       2.960   2.188  21.042  0.00  0.00    +0.000 A 
ATOM      6  C   UNL     1       3.955   2.965  20.488  0.00  0.00    +0.000 A 
ATOM      7  C   UNL     1       3.394   4.133  19.898  0.00  0.00    +0.000 A 
ATOM      8  N   UNL     1       3.817   5.269  19.221  0.00  0.00    +0.000 N 
ENDROOT
BRANCH   1  14
ATOM      9  C   UNL     1      -1.159  10.985  20.002  0.00  0.00    +0.000 C 
ATOM     10  N   UNL     1       0.186  10.434  19.853  0.00  0.00    +0.000 NA
ATOM     11  C   UNL     1       0.572  10.349  18.424  0.00  0.00    +0.000 C 
ATOM     12  C   UNL     1       1.975   9.731  18.222  0.00  0.00    +0.000 C 
ATOM     13  N   UNL     1       2.102   8.448  18.929  0.00  0.00    +0.000 N 
ATOM     14  C   UNL     1       2.732   7.377  18.296  0.00  0.00    +0.000 C 
ATOM     15  O   UNL     1       3.277   7.537  17.203  0.00  0.00    +0.000 OA
ATOM     16  C   UNL     1       1.727   8.560  20.347  0.00  0.00    +0.000 C 
ATOM     17  C   UNL     1       0.293   9.101  20.480  0.00  0.00    +0.000 C 
ENDBRANCH   1  14
BRANCH   8  18
ATOM     18  C   UNL     1       5.214   5.483  18.853  0.00  0.00    +0.000 C 
BRANCH  18  19
ATOM     19  C   UNL     1       5.491   5.124  17.412  0.00  0.00    +0.000 A 
ATOM     20  C   UNL     1       4.635   4.265  16.703  0.00  0.00    +0.000 A 
ATOM     21  C   UNL     1       4.942   3.867  15.399  0.00  0.00    +0.000 A 
ATOM     22  C   UNL     1       6.101   4.338  14.789  0.00  0.00    +0.000 A 
ATOM     23 CL   UNL     1       6.518   3.795  13.210  0.00  0.00    +0.000 Cl
ATOM     24  C   UNL     1       6.933   5.233  15.456  0.00  0.00    +0.000 A 
ATOM     25  C   UNL     1       6.626   5.628  16.761  0.00  0.00    +0.000 A 
ENDBRANCH  18  19
ENDBRANCH   8  18
TORSDOF 3
ENDMDL
MODEL 6
REMARK VINA RESULT:      -6.4      3.071      5.044
REMARK  Name = 
REMARK  4 active torsions:
REMARK  status: ('A' for Active; 'I' for Inactive)
REMARK    1  A    between atoms: C_1  and  N_2
REMARK    2  A    between atoms: C_6  and  C_8
REMARK    3  A    between atoms: N_15  and  C_16
REMARK    4  A    between atoms: C_16  and  C_17
REMARK                            x       y       z     vdW  Elec       q    Type
REMARK                         _______ _______ _______ _____ _____    ______ ____
ROOT
ATOM      1  C   UNL     1       0.152  12.652  21.299  0.00  0.00    +0.000 A 
ATOM      2  C   UNL     1       1.113  13.629  21.541  0.00  0.00    +0.000 A 
ATOM      3  C   UNL     1       1.725  13.929  20.300  0.00  0.00    +0.000 A 
ATOM      4  S   UNL     1       2.870  15.052  19.654  0.00  0.00    +0.000 S 
ATOM      5  C   UNL     1       2.769  14.261  18.133  0.00  0.00    +0.000 A 
ATOM      6  C   UNL     1       1.896  13.193  18.107  0.00  0.00    +0.000 A 
ATOM      7  C   UNL     1       1.271  13.040  19.377  0.00  0.00    +0.000 A 
ATOM      8  N   UNL     1       0.337  12.216  19.990  0.00  0.00    +0.000 N 
ENDROOT
BRANCH   1  14
ATOM      9  C   UNL     1      -5.142  15.360  23.536  0.00  0.00    +0.000 C 
ATOM     10  N   UNL     1      -4.453  14.217  22.941  0.00  0.00    +0.000 NA
ATOM     11  C   UNL     1      -3.786  13.397  23.979  0.00  0.00    +0.000 C 
ATOM     12  C   UNL     1      -3.011  12.198  23.384  0.00  0.00    +0.000 C 
ATOM     13  N   UNL     1      -2.095  12.630  22.317  0.00  0.00    +0.000 N 
ATOM     14  C   UNL     1      -0.809  12.094  22.259  0.00  0.00    +0.000 C 
ATOM     15  O   UNL     1      -0.482  11.186  23.024  0.00  0.00    +0.000 OA
ATOM     16  C   UNL     1      -2.782  13.430  21.291  0.00  0.00    +0.000 C 
ATOM     17  C   UNL     1      -3.463  14.651  21.934  0.00  0.00    +0.000 C 
ENDBRANCH   1  14
BRANCH   8  18
ATOM     18  C   UNL     1      -0.252  11.064  19.311  0.00  0.00    +0.000 C 
BRANCH  18  19
ATOM     19  C   UNL     1       0.680   9.876  19.281  0.00  0.00    +0.000 A 
ATOM     20  C   UNL     1       1.312   9.482  18.090  0.00  0.00    +0.000 A 
ATOM     21  C   UNL     1       2.104   8.332  18.049  0.00  0.00    +0.000 A 
ATOM     22  C   UNL     1       2.281   7.574  19.202  0.00  0.00    +0.000 A 
ATOM     23 CL   UNL     1       3.199   6.119  19.138  0.00  0.00    +0.000 Cl
ATOM     24  C   UNL     1       1.707   7.979  20.404  0.00  0.00    +0.000 A 
ATOM     25  C   UNL     1       0.913   9.128  20.444  0.00  0.00    +0.000 A 
ENDBRANCH  18  19
ENDBRANCH   8  18
TORSDOF 3
ENDMDL
MODEL 7
REMARK VINA RESULT:      -6.4      5.575      8.544
REMARK  Name = 
REMARK  4 active torsions:
REMARK  status: ('A' for Active; 'I' for Inactive)
REMARK    1  A    between atoms: C_1  and  N_2
REMARK    2  A    between atoms: C_6  and  C_8
REMARK    3  A    between atoms: N_15  and  C_16
REMARK    4  A    between atoms: C_16  and  C_17
REMARK                            x       y       z     vdW  Elec       q    Type
REMARK                         _______ _______ _______ _____ _____    ______ ____
ROOT
ATOM      1  C   UNL     1       4.318   4.266  18.807  0.00  0.00    +0.000 A 
ATOM      2  C   UNL     1       3.858   2.988  18.498  0.00  0.00    +0.000 A 
ATOM      3  C   UNL     1       2.503   2.924  18.900  0.00  0.00    +0.000 A 
ATOM      4  S   UNL     1       1.167   1.830  18.794  0.00  0.00    +0.000 S 
ATOM      5  C   UNL     1       0.225   2.909  19.741  0.00  0.00    +0.000 A 
ATOM      6  C   UNL     1       0.888   4.058  20.119  0.00  0.00    +0.000 A 
ATOM      7  C   UNL     1       2.208   4.060  19.585  0.00  0.00    +0.000 A 
ATOM      8  N   UNL     1       3.332   4.876  19.577  0.00  0.00    +0.000 N 
ENDROOT
BRANCH   1  14
ATOM      9  C   UNL     1       7.123   4.647  13.120  0.00  0.00    +0.000 C 
ATOM     10  N   UNL     1       6.705   5.268  14.374  0.00  0.00    +0.000 NA
ATOM     11  C   UNL     1       7.693   5.020  15.449  0.00  0.00    +0.000 C 
ATOM     12  C   UNL     1       7.265   5.628  16.805  0.00  0.00    +0.000 C 
ATOM     13  N   UNL     1       5.903   5.212  17.171  0.00  0.00    +0.000 N 
ATOM     14  C   UNL     1       5.631   4.839  18.487  0.00  0.00    +0.000 C 
ATOM     15  O   UNL     1       6.493   4.965  19.357  0.00  0.00    +0.000 OA
ATOM     16  C   UNL     1       4.936   5.481  16.096  0.00  0.00    +0.000 C 
ATOM     17  C   UNL     1       5.375   4.782  14.797  0.00  0.00    +0.000 C 
ENDBRANCH   1  14
BRANCH   8  18
ATOM     18  C   UNL     1       3.397   6.122  20.337  0.00  0.00    +0.000 C 
BRANCH  18  19
ATOM     19  C   UNL     1       2.511   7.197  19.754  0.00  0.00    +0.000 A 
ATOM     20  C   UNL     1       2.568   7.520  18.388  0.00  0.00    +0.000 A 
ATOM     21  C   UNL     1       1.810   8.574  17.871  0.00  0.00    +0.000 A 
ATOM     22  C   UNL     1       0.979   9.305  18.714  0.00  0.00    +0.000 A 
ATOM     23 CL   UNL     1       0.098  10.648  18.094  0.00  0.00    +0.000 Cl
ATOM     24  C   UNL     1       0.868   8.965  20.059  0.00  0.00    +0.000 A 
ATOM     25  C   UNL     1       1.628   7.912  20.576  0.00  0.00    +0.000 A 
ENDBRANCH  18  19
ENDBRANCH   8  18
TORSDOF 3
ENDMDL
MODEL 8
REMARK VINA RESULT:      -6.2      3.959      7.145
REMARK  Name = 
REMARK  4 active torsions:
REMARK  status: ('A' for Active; 'I' for Inactive)
REMARK    1  A    between atoms: C_1  and  N_2
REMARK    2  A    between atoms: C_6  and  C_8
REMARK    3  A    between atoms: N_15  and  C_16
REMARK    4  A    between atoms: C_16  and  C_17
REMARK                            x       y       z     vdW  Elec       q    Type
REMARK                         _______ _______ _______ _____ _____    ______ ____
ROOT
ATOM      1  C   UNL     1       1.576   8.483  19.851  0.00  0.00    +0.000 A 
ATOM      2  C   UNL     1       1.614   8.188  21.211  0.00  0.00    +0.000 A 
ATOM      3  C   UNL     1       0.706   9.062  21.854  0.00  0.00    +0.000 A 
ATOM      4  S   UNL     1       0.040   9.313  23.430  0.00  0.00    +0.000 S 
ATOM      5  C   UNL     1      -0.791  10.697  22.844  0.00  0.00    +0.000 A 
ATOM      6  C   UNL     1      -0.583  10.958  21.506  0.00  0.00    +0.000 A 
ATOM      7  C   UNL     1       0.269   9.968  20.940  0.00  0.00    +0.000 A 
ATOM      8  N   UNL     1       0.834   9.653  19.711  0.00  0.00    +0.000 N 
ENDROOT
BRANCH   1  14
ATOM      9  C   UNL     1       4.267   2.732  20.050  0.00  0.00    +0.000 C 
ATOM     10  N   UNL     1       3.385   3.700  19.402  0.00  0.00    +0.000 NA
ATOM     11  C   UNL     1       4.154   4.627  18.538  0.00  0.00    +0.000 C 
ATOM     12  C   UNL     1       3.259   5.695  17.866  0.00  0.00    +0.000 C 
ATOM     13  N   UNL     1       2.424   6.392  18.855  0.00  0.00    +0.000 N 
ATOM     14  C   UNL     1       2.269   7.775  18.768  0.00  0.00    +0.000 C 
ATOM     15  O   UNL     1       2.734   8.391  17.808  0.00  0.00    +0.000 OA
ATOM     16  C   UNL     1       1.660   5.454  19.691  0.00  0.00    +0.000 C 
ATOM     17  C   UNL     1       2.611   4.471  20.397  0.00  0.00    +0.000 C 
ENDBRANCH   1  14
BRANCH   8  18
ATOM     18  C   UNL     1       0.673  10.506  18.537  0.00  0.00    +0.000 C 
BRANCH  18  19
ATOM     19  C   UNL     1      -0.777  10.693  18.157  0.00  0.00    +0.000 A 
ATOM     20  C   UNL     1      -1.451  11.893  18.442  0.00  0.00    +0.000 A 
ATOM     21  C   UNL     1      -2.815  12.029  18.168  0.00  0.00    +0.000 A 
ATOM     22  C   UNL     1      -3.512  10.970  17.594  0.00  0.00    +0.000 A 
ATOM     23 CL   UNL     1      -5.205  11.109  17.319  0.00  0.00    +0.000 Cl
ATOM     24  C   UNL     1      -2.849   9.794  17.254  0.00  0.00    +0.000 A 
ATOM     25  C   UNL     1      -1.486   9.658  17.531  0.00  0.00    +0.000 A 
ENDBRANCH  18  19
ENDBRANCH   8  18
TORSDOF 3
ENDMDL
MODEL 9
REMARK VINA RESULT:      -6.1      3.791      5.991
REMARK  Name = 
REMARK  4 active torsions:
REMARK  status: ('A' for Active; 'I' for Inactive)
REMARK    1  A    between atoms: C_1  and  N_2
REMARK    2  A    between atoms: C_6  and  C_8
REMARK    3  A    between atoms: N_15  and  C_16
REMARK    4  A    between atoms: C_16  and  C_17
REMARK                            x       y       z     vdW  Elec       q    Type
REMARK                         _______ _______ _______ _____ _____    ______ ____
ROOT
ATOM      1  C   UNL     1      -0.142  12.568  21.570  0.00  0.00    +0.000 A 
ATOM      2  C   UNL     1       0.641  13.716  21.658  0.00  0.00    +0.000 A 
ATOM      3  C   UNL     1       1.342  13.838  20.435  0.00  0.00    +0.000 A 
ATOM      4  S   UNL     1       2.387  14.967  19.643  0.00  0.00    +0.000 S 
ATOM      5  C   UNL     1       2.569  13.864  18.340  0.00  0.00    +0.000 A 
ATOM      6  C   UNL     1       1.863  12.689  18.489  0.00  0.00    +0.000 A 
ATOM      7  C   UNL     1       1.124  12.712  19.706  0.00  0.00    +0.000 A 
ATOM      8  N   UNL     1       0.250  11.898  20.414  0.00  0.00    +0.000 N 
ENDROOT
BRANCH   1  14
ATOM      9  C   UNL     1      -5.161  15.660  23.937  0.00  0.00    +0.000 C 
ATOM     10  N   UNL     1      -4.575  14.470  23.324  0.00  0.00    +0.000 NA
ATOM     11  C   UNL     1      -3.947  13.598  24.344  0.00  0.00    +0.000 C 
ATOM     12  C   UNL     1      -3.279  12.346  23.729  0.00  0.00    +0.000 C 
ATOM     13  N   UNL     1      -2.359  12.712  22.641  0.00  0.00    +0.000 N 
ATOM     14  C   UNL     1      -1.119  12.081  22.552  0.00  0.00    +0.000 C 
ATOM     15  O   UNL     1      -0.843  11.148  23.307  0.00  0.00    +0.000 OA
ATOM     16  C   UNL     1      -3.008  13.565  21.633  0.00  0.00    +0.000 C 
ATOM     17  C   UNL     1      -3.579  14.832  22.294  0.00  0.00    +0.000 C 
ENDBRANCH   1  14
BRANCH   8  18
ATOM     18  C   UNL     1      -0.093  10.549  19.971  0.00  0.00    +0.000 C 
BRANCH  18  19
ATOM     19  C   UNL     1      -1.120  10.551  18.864  0.00  0.00    +0.000 A 
ATOM     20  C   UNL     1      -0.952   9.756  17.718  0.00  0.00    +0.000 A 
ATOM     21  C   UNL     1      -1.860   9.827  16.658  0.00  0.00    +0.000 A 
ATOM     22  C   UNL     1      -2.952  10.685  16.743  0.00  0.00    +0.000 A 
ATOM     23 CL   UNL     1      -4.034  10.827  15.412  0.00  0.00    +0.000 Cl
ATOM     24  C   UNL     1      -3.166  11.440  17.893  0.00  0.00    +0.000 A 
ATOM     25  C   UNL     1      -2.256  11.370  18.951  0.00  0.00    +0.000 A 
ENDBRANCH  18  19
ENDBRANCH   8  18
TORSDOF 3
ENDMDL
