MODEL 1
REMARK VINA RESULT:      -8.0      0.000      0.000
REMARK  Name = 
REMARK  7 active torsions:
REMARK  status: ('A' for Active; 'I' for Inactive)
REMARK    1  A    between atoms: C_1  and  O_2
REMARK    2  A    between atoms: O_2  and  C_3
REMARK    3  A    between atoms: C_6  and  S_7
REMARK    4  A    between atoms: S_7  and  N_10
REMARK    5  A    between atoms: C_18  and  N_19
REMARK    6  A    between atoms: C_20  and  C_22
REMARK    7  A    between atoms: C_22  and  C_23
REMARK                            x       y       z     vdW  Elec       q    Type
REMARK                         _______ _______ _______ _____ _____    ______ ____
ROOT
ATOM      1  C   UNL     1       1.670   9.007  18.962  0.00  0.00    +0.000 A 
ATOM      2  C   UNL     1       2.022   8.312  17.793  0.00  0.00    +0.000 A 
ATOM      3  C   UNL     1       2.420   6.977  17.844  0.00  0.00    +0.000 A 
ATOM      4  C   UNL     1       2.438   6.321  19.067  0.00  0.00    +0.000 A 
ATOM      5  C   UNL     1       1.999   6.961  20.224  0.00  0.00    +0.000 A 
ATOM      6  C   UNL     1       1.634   8.317  20.197  0.00  0.00    +0.000 A 
ENDROOT
BRANCH   6   7
ATOM      7  N   UNL     1       1.225   8.999  21.386  0.00  0.00    +0.000 N 
ATOM      8  C   UNL     1      -0.031   8.893  21.974  0.00  0.00    +0.000 C 
ATOM      9  O   UNL     1      -0.924   8.119  21.621  0.00  0.00    +0.000 OA
ATOM     10  H   UNL     1       1.960   9.478  21.890  0.00  0.00    +0.000 HD
BRANCH   8  11
ATOM     11  C   UNL     1      -0.252   9.780  23.191  0.00  0.00    +0.000 C 
BRANCH  11  12
ATOM     12  C   UNL     1      -0.905  11.091  22.833  0.00  0.00    +0.000 A 
ATOM     13  C   UNL     1      -2.147  11.434  23.368  0.00  0.00    +0.000 A 
ATOM     14  C   UNL     1      -2.731  12.630  22.978  0.00  0.00    +0.000 A 
ATOM     15  N   UNL     1      -2.166  13.497  22.113  0.00  0.00    +0.000 NA
ATOM     16  C   UNL     1      -0.952  13.163  21.628  0.00  0.00    +0.000 A 
ATOM     17  C   UNL     1      -0.284  11.995  21.961  0.00  0.00    +0.000 A 
ENDBRANCH  11  12
ENDBRANCH   8  11
ENDBRANCH   6   7
BRANCH   4  18
ATOM     18  S   UNL     1       2.953   4.621  19.098  0.00  0.00    +0.000 S 
ATOM     19  O   UNL     1       3.099   4.224  20.486  0.00  0.00    +0.000 OA
ATOM     20  O   UNL     1       2.060   3.882  18.232  0.00  0.00    +0.000 OA
BRANCH  18  21
ATOM     21  N   UNL     1       4.501   4.656  18.382  0.00  0.00    +0.000 NA
ATOM     22  C   UNL     1       4.545   4.827  16.911  0.00  0.00    +0.000 C 
ATOM     23  C   UNL     1       5.613   3.936  16.279  0.00  0.00    +0.000 C 
ATOM     24  C   UNL     1       7.019   4.523  16.313  0.00  0.00    +0.000 C 
ATOM     25  C   UNL     1       7.562   4.743  17.717  0.00  0.00    +0.000 C 
ATOM     26  C   UNL     1       6.784   5.804  18.487  0.00  0.00    +0.000 C 
ATOM     27  C   UNL     1       5.563   5.264  19.218  0.00  0.00    +0.000 C 
ENDBRANCH  18  21
ENDBRANCH   4  18
BRANCH   1  29
ATOM     28  C   UNL     1       0.030  10.646  18.529  0.00  0.00    +0.000 C 
ATOM     29  O   UNL     1       1.375  10.352  18.938  0.00  0.00    +0.000 OA
ENDBRANCH   1  29
TORSDOF 6
ENDMDL
MODEL 2
REMARK VINA RESULT:      -7.9      0.293      1.182
REMARK  Name = 
REMARK  7 active torsions:
REMARK  status: ('A' for Active; 'I' for Inactive)
REMARK    1  A    between atoms: C_1  and  O_2
REMARK    2  A    between atoms: O_2  and  C_3
REMARK    3  A    between atoms: C_6  and  S_7
REMARK    4  A    between atoms: S_7  and  N_10
REMARK    5  A    between atoms: C_18  and  N_19
REMARK    6  A    between atoms: C_20  and  C_22
REMARK    7  A    between atoms: C_22  and  C_23
REMARK                            x       y       z     vdW  Elec       q    Type
REMARK                         _______ _______ _______ _____ _____    ______ ____
ROOT
ATOM      1  C   UNL     1       1.602   9.253  18.991  0.00  0.00    +0.000 A 
ATOM      2  C   UNL     1       1.966   8.571  17.818  0.00  0.00    +0.000 A 
ATOM      3  C   UNL     1       2.353   7.233  17.855  0.00  0.00    +0.000 A 
ATOM      4  C   UNL     1       2.347   6.560  19.068  0.00  0.00    +0.000 A 
ATOM      5  C   UNL     1       1.895   7.187  20.229  0.00  0.00    +0.000 A 
ATOM      6  C   UNL     1       1.542   8.545  20.215  0.00  0.00    +0.000 A 
ENDROOT
BRANCH   6   7
ATOM      7  N   UNL     1       1.120   9.214  21.408  0.00  0.00    +0.000 N 
ATOM      8  C   UNL     1      -0.108   9.028  22.034  0.00  0.00    +0.000 C 
ATOM      9  O   UNL     1      -0.954   8.188  21.718  0.00  0.00    +0.000 OA
ATOM     10  H   UNL     1       1.833   9.750  21.883  0.00  0.00    +0.000 HD
BRANCH   8  11
ATOM     11  C   UNL     1      -0.356   9.914  23.246  0.00  0.00    +0.000 C 
BRANCH  11  12
ATOM     12  C   UNL     1      -1.025  11.214  22.878  0.00  0.00    +0.000 A 
ATOM     13  C   UNL     1      -2.295  11.523  23.369  0.00  0.00    +0.000 A 
ATOM     14  C   UNL     1      -2.890  12.709  22.970  0.00  0.00    +0.000 A 
ATOM     15  N   UNL     1      -2.313  13.599  22.136  0.00  0.00    +0.000 NA
ATOM     16  C   UNL     1      -1.074  13.298  21.694  0.00  0.00    +0.000 A 
ATOM     17  C   UNL     1      -0.393  12.142  22.040  0.00  0.00    +0.000 A 
ENDBRANCH  11  12
ENDBRANCH   8  11
ENDBRANCH   6   7
BRANCH   4  18
ATOM     18  S   UNL     1       2.848   4.855  19.083  0.00  0.00    +0.000 S 
ATOM     19  O   UNL     1       3.038   4.457  20.465  0.00  0.00    +0.000 OA
ATOM     20  O   UNL     1       1.918   4.123  18.249  0.00  0.00    +0.000 OA
BRANCH  18  21
ATOM     21  N   UNL     1       4.369   4.876  18.314  0.00  0.00    +0.000 NA
ATOM     22  C   UNL     1       5.543   4.555  19.160  0.00  0.00    +0.000 C 
ATOM     23  C   UNL     1       6.729   5.462  18.833  0.00  0.00    +0.000 C 
ATOM     24  C   UNL     1       7.559   5.002  17.640  0.00  0.00    +0.000 C 
ATOM     25  C   UNL     1       6.791   4.977  16.327  0.00  0.00    +0.000 C 
ATOM     26  C   UNL     1       5.674   3.941  16.321  0.00  0.00    +0.000 C 
ATOM     27  C   UNL     1       4.358   4.450  16.894  0.00  0.00    +0.000 C 
ENDBRANCH  18  21
ENDBRANCH   4  18
BRANCH   1  29
ATOM     28  C   UNL     1      -0.022  10.911  18.568  0.00  0.00    +0.000 C 
ATOM     29  O   UNL     1       1.317  10.600  18.982  0.00  0.00    +0.000 OA
ENDBRANCH   1  29
TORSDOF 6
ENDMDL
MODEL 3
REMARK VINA RESULT:      -7.7      1.026      1.470
REMARK  Name = 
REMARK  7 active torsions:
REMARK  status: ('A' for Active; 'I' for Inactive)
REMARK    1  A    between atoms: C_1  and  O_2
REMARK    2  A    between atoms: O_2  and  C_3
REMARK    3  A    between atoms: C_6  and  S_7
REMARK    4  A    between atoms: S_7  and  N_10
REMARK    5  A    between atoms: C_18  and  N_19
REMARK    6  A    between atoms: C_20  and  C_22
REMARK    7  A    between atoms: C_22  and  C_23
REMARK                            x       y       z     vdW  Elec       q    Type
REMARK                         _______ _______ _______ _____ _____    ______ ____
ROOT
ATOM      1  C   UNL     1       1.236   9.816  18.906  0.00  0.00    +0.000 A 
ATOM      2  C   UNL     1       1.625   9.191  17.710  0.00  0.00    +0.000 A 
ATOM      3  C   UNL     1       2.161   7.905  17.713  0.00  0.00    +0.000 A 
ATOM      4  C   UNL     1       2.283   7.224  18.916  0.00  0.00    +0.000 A 
ATOM      5  C   UNL     1       1.814   7.785  20.102  0.00  0.00    +0.000 A 
ATOM      6  C   UNL     1       1.309   9.095  20.122  0.00  0.00    +0.000 A 
ENDROOT
BRANCH   6   7
ATOM      7  N   UNL     1       0.866   9.701  21.340  0.00  0.00    +0.000 N 
ATOM      8  C   UNL     1      -0.223   9.274  22.092  0.00  0.00    +0.000 C 
ATOM      9  O   UNL     1      -0.887   8.257  21.879  0.00  0.00    +0.000 OA
ATOM     10  H   UNL     1       1.485  10.400  21.731  0.00  0.00    +0.000 HD
BRANCH   8  11
ATOM     11  C   UNL     1      -0.544  10.131  23.309  0.00  0.00    +0.000 C 
BRANCH  11  12
ATOM     12  C   UNL     1      -1.214  11.429  22.935  0.00  0.00    +0.000 A 
ATOM     13  C   UNL     1      -2.518  11.700  23.351  0.00  0.00    +0.000 A 
ATOM     14  C   UNL     1      -3.111  12.887  22.947  0.00  0.00    +0.000 A 
ATOM     15  N   UNL     1      -2.499  13.811  22.178  0.00  0.00    +0.000 NA
ATOM     16  C   UNL     1      -1.229  13.546  21.809  0.00  0.00    +0.000 A 
ATOM     17  C   UNL     1      -0.548  12.392  22.166  0.00  0.00    +0.000 A 
ENDBRANCH  11  12
ENDBRANCH   8  11
ENDBRANCH   6   7
BRANCH   4  18
ATOM     18  S   UNL     1       2.972   5.587  18.886  0.00  0.00    +0.000 S 
ATOM     19  O   UNL     1       2.895   5.045  20.230  0.00  0.00    +0.000 OA
ATOM     20  O   UNL     1       2.351   4.875  17.790  0.00  0.00    +0.000 OA
BRANCH  18  21
ATOM     21  N   UNL     1       4.614   5.848  18.504  0.00  0.00    +0.000 NA
ATOM     22  C   UNL     1       5.583   4.864  19.040  0.00  0.00    +0.000 C 
ATOM     23  C   UNL     1       6.854   5.549  19.540  0.00  0.00    +0.000 C 
ATOM     24  C   UNL     1       7.876   5.846  18.448  0.00  0.00    +0.000 C 
ATOM     25  C   UNL     1       7.378   6.811  17.383  0.00  0.00    +0.000 C 
ATOM     26  C   UNL     1       6.232   6.234  16.560  0.00  0.00    +0.000 C 
ATOM     27  C   UNL     1       4.857   6.459  17.176  0.00  0.00    +0.000 C 
ENDBRANCH  18  21
ENDBRANCH   4  18
BRANCH   1  29
ATOM     28  C   UNL     1       1.845  12.087  18.718  0.00  0.00    +0.000 C 
ATOM     29  O   UNL     1       0.802  11.123  18.928  0.00  0.00    +0.000 OA
ENDBRANCH   1  29
TORSDOF 6
ENDMDL
MODEL 4
REMARK VINA RESULT:      -7.6      1.049      1.779
REMARK  Name = 
REMARK  7 active torsions:
REMARK  status: ('A' for Active; 'I' for Inactive)
REMARK    1  A    between atoms: C_1  and  O_2
REMARK    2  A    between atoms: O_2  and  C_3
REMARK    3  A    between atoms: C_6  and  S_7
REMARK    4  A    between atoms: S_7  and  N_10
REMARK    5  A    between atoms: C_18  and  N_19
REMARK    6  A    between atoms: C_20  and  C_22
REMARK    7  A    between atoms: C_22  and  C_23
REMARK                            x       y       z     vdW  Elec       q    Type
REMARK                         _______ _______ _______ _____ _____    ______ ____
ROOT
ATOM      1  C   UNL     1       1.458   9.591  18.893  0.00  0.00    +0.000 A 
ATOM      2  C   UNL     1       2.252   9.066  17.860  0.00  0.00    +0.000 A 
ATOM      3  C   UNL     1       2.722   7.755  17.911  0.00  0.00    +0.000 A 
ATOM      4  C   UNL     1       2.371   6.951  18.986  0.00  0.00    +0.000 A 
ATOM      5  C   UNL     1       1.505   7.419  19.973  0.00  0.00    +0.000 A 
ATOM      6  C   UNL     1       1.056   8.749  19.957  0.00  0.00    +0.000 A 
ENDROOT
BRANCH   6   7
ATOM      7  N   UNL     1       0.203   9.256  20.987  0.00  0.00    +0.000 N 
ATOM      8  C   UNL     1       0.611   9.562  22.281  0.00  0.00    +0.000 C 
ATOM      9  O   UNL     1       1.775   9.545  22.689  0.00  0.00    +0.000 OA
ATOM     10  H   UNL     1      -0.724   9.531  20.691  0.00  0.00    +0.000 HD
BRANCH   8  11
ATOM     11  C   UNL     1      -0.499  10.013  23.220  0.00  0.00    +0.000 C 
BRANCH  11  12
ATOM     12  C   UNL     1      -1.070  11.353  22.830  0.00  0.00    +0.000 A 
ATOM     13  C   UNL     1      -0.335  12.232  22.034  0.00  0.00    +0.000 A 
ATOM     14  C   UNL     1      -0.880  13.472  21.736  0.00  0.00    +0.000 A 
ATOM     15  N   UNL     1      -2.091  13.885  22.163  0.00  0.00    +0.000 NA
ATOM     16  C   UNL     1      -2.800  13.011  22.908  0.00  0.00    +0.000 A 
ATOM     17  C   UNL     1      -2.346  11.748  23.253  0.00  0.00    +0.000 A 
ENDBRANCH  11  12
ENDBRANCH   8  11
ENDBRANCH   6   7
BRANCH   4  18
ATOM     18  S   UNL     1       2.988   5.285  19.023  0.00  0.00    +0.000 S 
ATOM     19  O   UNL     1       3.504   5.029  20.355  0.00  0.00    +0.000 OA
ATOM     20  O   UNL     1       1.957   4.429  18.478  0.00  0.00    +0.000 OA
BRANCH  18  21
ATOM     21  N   UNL     1       4.300   5.317  17.934  0.00  0.00    +0.000 NA
ATOM     22  C   UNL     1       5.638   5.570  18.518  0.00  0.00    +0.000 C 
ATOM     23  C   UNL     1       6.463   6.505  17.634  0.00  0.00    +0.000 C 
ATOM     24  C   UNL     1       7.181   5.808  16.484  0.00  0.00    +0.000 C 
ATOM     25  C   UNL     1       6.245   5.147  15.482  0.00  0.00    +0.000 C 
ATOM     26  C   UNL     1       5.466   3.985  16.087  0.00  0.00    +0.000 C 
ATOM     27  C   UNL     1       4.173   4.402  16.775  0.00  0.00    +0.000 C 
ENDBRANCH  18  21
ENDBRANCH   4  18
BRANCH   1  29
ATOM     28  C   UNL     1       2.093  11.820  18.454  0.00  0.00    +0.000 C 
ATOM     29  O   UNL     1       1.074  10.914  18.904  0.00  0.00    +0.000 OA
ENDBRANCH   1  29
TORSDOF 6
ENDMDL
MODEL 5
REMARK VINA RESULT:      -7.4      0.836      1.219
REMARK  Name = 
REMARK  7 active torsions:
REMARK  status: ('A' for Active; 'I' for Inactive)
REMARK    1  A    between atoms: C_1  and  O_2
REMARK    2  A    between atoms: O_2  and  C_3
REMARK    3  A    between atoms: C_6  and  S_7
REMARK    4  A    between atoms: S_7  and  N_10
REMARK    5  A    between atoms: C_18  and  N_19
REMARK    6  A    between atoms: C_20  and  C_22
REMARK    7  A    between atoms: C_22  and  C_23
REMARK                            x       y       z     vdW  Elec       q    Type
REMARK                         _______ _______ _______ _____ _____    ______ ____
ROOT
ATOM      1  C   UNL     1       1.681   9.060  18.992  0.00  0.00    +0.000 A 
ATOM      2  C   UNL     1       2.459   8.480  17.975  0.00  0.00    +0.000 A 
ATOM      3  C   UNL     1       2.858   7.147  18.048  0.00  0.00    +0.000 A 
ATOM      4  C   UNL     1       2.453   6.376  19.129  0.00  0.00    +0.000 A 
ATOM      5  C   UNL     1       1.601   6.902  20.098  0.00  0.00    +0.000 A 
ATOM      6  C   UNL     1       1.223   8.253  20.061  0.00  0.00    +0.000 A 
ENDROOT
BRANCH   6   7
ATOM      7  N   UNL     1       0.386   8.818  21.075  0.00  0.00    +0.000 N 
ATOM      8  C   UNL     1       0.833   9.301  22.300  0.00  0.00    +0.000 C 
ATOM      9  O   UNL     1       2.014   9.412  22.639  0.00  0.00    +0.000 OA
ATOM     10  H   UNL     1      -0.573   8.992  20.803  0.00  0.00    +0.000 HD
BRANCH   8  11
ATOM     11  C   UNL     1      -0.261   9.781  23.244  0.00  0.00    +0.000 C 
BRANCH  11  12
ATOM     12  C   UNL     1      -0.873  11.084  22.796  0.00  0.00    +0.000 A 
ATOM     13  C   UNL     1      -0.206  11.905  21.886  0.00  0.00    +0.000 A 
ATOM     14  C   UNL     1      -0.785  13.115  21.535  0.00  0.00    +0.000 A 
ATOM     15  N   UNL     1      -1.968  13.552  22.015  0.00  0.00    +0.000 NA
ATOM     16  C   UNL     1      -2.612  12.732  22.871  0.00  0.00    +0.000 A 
ATOM     17  C   UNL     1      -2.120  11.502  23.277  0.00  0.00    +0.000 A 
ENDBRANCH  11  12
ENDBRANCH   8  11
ENDBRANCH   6   7
BRANCH   4  18
ATOM     18  S   UNL     1       2.980   4.681  19.193  0.00  0.00    +0.000 S 
ATOM     19  O   UNL     1       3.163   4.323  20.587  0.00  0.00    +0.000 OA
ATOM     20  O   UNL     1       2.072   3.913  18.369  0.00  0.00    +0.000 OA
BRANCH  18  21
ATOM     21  N   UNL     1       4.510   4.706  18.439  0.00  0.00    +0.000 NA
ATOM     22  C   UNL     1       4.520   4.912  16.971  0.00  0.00    +0.000 C 
ATOM     23  C   UNL     1       5.556   4.018  16.292  0.00  0.00    +0.000 C 
ATOM     24  C   UNL     1       6.973   4.580  16.304  0.00  0.00    +0.000 C 
ATOM     25  C   UNL     1       7.555   4.758  17.698  0.00  0.00    +0.000 C 
ATOM     26  C   UNL     1       6.815   5.813  18.511  0.00  0.00    +0.000 C 
ATOM     27  C   UNL     1       5.603   5.277  19.261  0.00  0.00    +0.000 C 
ENDBRANCH  18  21
ENDBRANCH   4  18
BRANCH   1  29
ATOM     28  C   UNL     1       2.211  11.191  18.131  0.00  0.00    +0.000 C 
ATOM     29  O   UNL     1       1.367  10.401  18.982  0.00  0.00    +0.000 OA
ENDBRANCH   1  29
TORSDOF 6
ENDMDL
MODEL 6
REMARK VINA RESULT:      -7.3      2.188      2.898
REMARK  Name = 
REMARK  7 active torsions:
REMARK  status: ('A' for Active; 'I' for Inactive)
REMARK    1  A    between atoms: C_1  and  O_2
REMARK    2  A    between atoms: O_2  and  C_3
REMARK    3  A    between atoms: C_6  and  S_7
REMARK    4  A    between atoms: S_7  and  N_10
REMARK    5  A    between atoms: C_18  and  N_19
REMARK    6  A    between atoms: C_20  and  C_22
REMARK    7  A    between atoms: C_22  and  C_23
REMARK                            x       y       z     vdW  Elec       q    Type
REMARK                         _______ _______ _______ _____ _____    ______ ____
ROOT
ATOM      1  C   UNL     1       1.113   9.587  18.800  0.00  0.00    +0.000 A 
ATOM      2  C   UNL     1       1.522   9.040  17.573  0.00  0.00    +0.000 A 
ATOM      3  C   UNL     1       2.328   7.904  17.527  0.00  0.00    +0.000 A 
ATOM      4  C   UNL     1       2.704   7.291  18.714  0.00  0.00    +0.000 A 
ATOM      5  C   UNL     1       2.230   7.759  19.938  0.00  0.00    +0.000 A 
ATOM      6  C   UNL     1       1.451   8.925  20.005  0.00  0.00    +0.000 A 
ENDROOT
BRANCH   6   7
ATOM      7  N   UNL     1       0.995   9.442  21.258  0.00  0.00    +0.000 N 
ATOM      8  C   UNL     1      -0.164   9.040  21.912  0.00  0.00    +0.000 C 
ATOM      9  O   UNL     1      -0.899   8.112  21.564  0.00  0.00    +0.000 OA
ATOM     10  H   UNL     1       1.648  10.041  21.747  0.00  0.00    +0.000 HD
BRANCH   8  11
ATOM     11  C   UNL     1      -0.478   9.796  23.195  0.00  0.00    +0.000 C 
BRANCH  11  12
ATOM     12  C   UNL     1      -1.124  11.133  22.930  0.00  0.00    +0.000 A 
ATOM     13  C   UNL     1      -2.369  11.441  23.480  0.00  0.00    +0.000 A 
ATOM     14  C   UNL     1      -2.945  12.664  23.174  0.00  0.00    +0.000 A 
ATOM     15  N   UNL     1      -2.371  13.590  22.378  0.00  0.00    +0.000 NA
ATOM     16  C   UNL     1      -1.155  13.287  21.879  0.00  0.00    +0.000 A 
ATOM     17  C   UNL     1      -0.494  12.095  22.130  0.00  0.00    +0.000 A 
ENDBRANCH  11  12
ENDBRANCH   8  11
ENDBRANCH   6   7
BRANCH   4  18
ATOM     18  S   UNL     1       3.734   5.846  18.622  0.00  0.00    +0.000 S 
ATOM     19  O   UNL     1       3.972   5.556  17.220  0.00  0.00    +0.000 OA
ATOM     20  O   UNL     1       4.856   6.056  19.510  0.00  0.00    +0.000 OA
BRANCH  18  21
ATOM     21  N   UNL     1       2.753   4.610  19.268  0.00  0.00    +0.000 NA
ATOM     22  C   UNL     1       2.493   3.445  18.391  0.00  0.00    +0.000 C 
ATOM     23  C   UNL     1       1.043   2.976  18.503  0.00  0.00    +0.000 C 
ATOM     24  C   UNL     1       0.773   2.050  19.683  0.00  0.00    +0.000 C 
ATOM     25  C   UNL     1       1.018   2.693  21.041  0.00  0.00    +0.000 C 
ATOM     26  C   UNL     1       2.485   3.039  21.269  0.00  0.00    +0.000 C 
ATOM     27  C   UNL     1       2.888   4.404  20.730  0.00  0.00    +0.000 C 
ENDBRANCH  18  21
ENDBRANCH   4  18
BRANCH   1  29
ATOM     28  C   UNL     1      -0.983  10.631  18.513  0.00  0.00    +0.000 C 
ATOM     29  O   UNL     1       0.403  10.766  18.861  0.00  0.00    +0.000 OA
ENDBRANCH   1  29
TORSDOF 6
ENDMDL
MODEL 7
REMARK VINA RESULT:      -7.3      2.951      4.925
REMARK  Name = 
REMARK  7 active torsions:
REMARK  status: ('A' for Active; 'I' for Inactive)
REMARK    1  A    between atoms: C_1  and  O_2
REMARK    2  A    between atoms: O_2  and  C_3
REMARK    3  A    between atoms: C_6  and  S_7
REMARK    4  A    between atoms: S_7  and  N_10
REMARK    5  A    between atoms: C_18  and  N_19
REMARK    6  A    between atoms: C_20  and  C_22
REMARK    7  A    between atoms: C_22  and  C_23
REMARK                            x       y       z     vdW  Elec       q    Type
REMARK                         _______ _______ _______ _____ _____    ______ ____
ROOT
ATOM      1  C   UNL     1       2.903   4.457  18.408  0.00  0.00    +0.000 A 
ATOM      2  C   UNL     1       3.917   3.486  18.407  0.00  0.00    +0.000 A 
ATOM      3  C   UNL     1       5.154   3.739  17.816  0.00  0.00    +0.000 A 
ATOM      4  C   UNL     1       5.391   4.983  17.248  0.00  0.00    +0.000 A 
ATOM      5  C   UNL     1       4.435   5.994  17.323  0.00  0.00    +0.000 A 
ATOM      6  C   UNL     1       3.170   5.742  17.879  0.00  0.00    +0.000 A 
ENDROOT
BRANCH   6   7
ATOM      7  N   UNL     1       2.163   6.757  17.922  0.00  0.00    +0.000 N 
ATOM      8  C   UNL     1       2.411   8.125  17.951  0.00  0.00    +0.000 C 
ATOM      9  O   UNL     1       3.519   8.656  17.832  0.00  0.00    +0.000 OA
ATOM     10  H   UNL     1       1.213   6.437  17.785  0.00  0.00    +0.000 HD
BRANCH   8  11
ATOM     11  C   UNL     1       1.175   9.004  18.076  0.00  0.00    +0.000 C 
BRANCH  11  12
ATOM     12  C   UNL     1       1.010   9.566  19.466  0.00  0.00    +0.000 A 
ATOM     13  C   UNL     1       0.737  10.922  19.655  0.00  0.00    +0.000 A 
ATOM     14  C   UNL     1       0.636  11.404  20.950  0.00  0.00    +0.000 A 
ATOM     15  N   UNL     1       0.778  10.640  22.053  0.00  0.00    +0.000 NA
ATOM     16  C   UNL     1       1.014   9.327  21.851  0.00  0.00    +0.000 A 
ATOM     17  C   UNL     1       1.125   8.748  20.597  0.00  0.00    +0.000 A 
ENDBRANCH  11  12
ENDBRANCH   8  11
ENDBRANCH   6   7
BRANCH   4  18
ATOM     18  S   UNL     1       6.976   5.274  16.500  0.00  0.00    +0.000 S 
ATOM     19  O   UNL     1       7.196   6.707  16.464  0.00  0.00    +0.000 OA
ATOM     20  O   UNL     1       7.934   4.419  17.168  0.00  0.00    +0.000 OA
BRANCH  18  21
ATOM     21  N   UNL     1       6.774   4.719  14.900  0.00  0.00    +0.000 NA
ATOM     22  C   UNL     1       5.380   4.602  14.411  0.00  0.00    +0.000 C 
ATOM     23  C   UNL     1       5.187   3.336  13.578  0.00  0.00    +0.000 C 
ATOM     24  C   UNL     1       5.606   3.477  12.119  0.00  0.00    +0.000 C 
ATOM     25  C   UNL     1       7.086   3.775  11.927  0.00  0.00    +0.000 C 
ATOM     26  C   UNL     1       7.484   5.139  12.478  0.00  0.00    +0.000 C 
ATOM     27  C   UNL     1       7.843   5.126  13.958  0.00  0.00    +0.000 C 
ENDBRANCH  18  21
ENDBRANCH   4  18
BRANCH   1  29
ATOM     28  C   UNL     1       1.331   2.782  18.948  0.00  0.00    +0.000 C 
ATOM     29  O   UNL     1       1.645   4.183  18.897  0.00  0.00    +0.000 OA
ENDBRANCH   1  29
TORSDOF 6
ENDMDL
MODEL 8
REMARK VINA RESULT:      -7.3      2.319      3.269
REMARK  Name = 
REMARK  7 active torsions:
REMARK  status: ('A' for Active; 'I' for Inactive)
REMARK    1  A    between atoms: C_1  and  O_2
REMARK    2  A    between atoms: O_2  and  C_3
REMARK    3  A    between atoms: C_6  and  S_7
REMARK    4  A    between atoms: S_7  and  N_10
REMARK    5  A    between atoms: C_18  and  N_19
REMARK    6  A    between atoms: C_20  and  C_22
REMARK    7  A    between atoms: C_22  and  C_23
REMARK                            x       y       z     vdW  Elec       q    Type
REMARK                         _______ _______ _______ _____ _____    ______ ____
ROOT
ATOM      1  C   UNL     1       1.063   9.539  18.787  0.00  0.00    +0.000 A 
ATOM      2  C   UNL     1       1.454   8.968  17.565  0.00  0.00    +0.000 A 
ATOM      3  C   UNL     1       2.275   7.842  17.528  0.00  0.00    +0.000 A 
ATOM      4  C   UNL     1       2.684   7.262  18.720  0.00  0.00    +0.000 A 
ATOM      5  C   UNL     1       2.228   7.752  19.943  0.00  0.00    +0.000 A 
ATOM      6  C   UNL     1       1.435   8.909  19.999  0.00  0.00    +0.000 A 
ENDROOT
BRANCH   6   7
ATOM      7  N   UNL     1       0.998   9.449  21.249  0.00  0.00    +0.000 N 
ATOM      8  C   UNL     1      -0.152   9.059  21.928  0.00  0.00    +0.000 C 
ATOM      9  O   UNL     1      -0.890   8.124  21.608  0.00  0.00    +0.000 OA
ATOM     10  H   UNL     1       1.657  10.058  21.717  0.00  0.00    +0.000 HD
BRANCH   8  11
ATOM     11  C   UNL     1      -0.447   9.838  23.202  0.00  0.00    +0.000 C 
BRANCH  11  12
ATOM     12  C   UNL     1      -1.072  11.181  22.920  0.00  0.00    +0.000 A 
ATOM     13  C   UNL     1      -0.406  12.124  22.136  0.00  0.00    +0.000 A 
ATOM     14  C   UNL     1      -0.999  13.361  21.939  0.00  0.00    +0.000 A 
ATOM     15  N   UNL     1      -2.195  13.715  22.454  0.00  0.00    +0.000 NA
ATOM     16  C   UNL     1      -2.838  12.781  23.185  0.00  0.00    +0.000 A 
ATOM     17  C   UNL     1      -2.332  11.515  23.434  0.00  0.00    +0.000 A 
ENDBRANCH  11  12
ENDBRANCH   8  11
ENDBRANCH   6   7
BRANCH   4  18
ATOM     18  S   UNL     1       3.732   5.830  18.640  0.00  0.00    +0.000 S 
ATOM     19  O   UNL     1       3.950   5.514  17.241  0.00  0.00    +0.000 OA
ATOM     20  O   UNL     1       4.867   6.075  19.504  0.00  0.00    +0.000 OA
BRANCH  18  21
ATOM     21  N   UNL     1       2.780   4.595  19.330  0.00  0.00    +0.000 NA
ATOM     22  C   UNL     1       2.343   4.801  20.731  0.00  0.00    +0.000 C 
ATOM     23  C   UNL     1       2.429   3.505  21.536  0.00  0.00    +0.000 C 
ATOM     24  C   UNL     1       1.222   2.587  21.375  0.00  0.00    +0.000 C 
ATOM     25  C   UNL     1       1.017   2.080  19.956  0.00  0.00    +0.000 C 
ATOM     26  C   UNL     1       0.666   3.196  18.980  0.00  0.00    +0.000 C 
ATOM     27  C   UNL     1       1.879   3.897  18.382  0.00  0.00    +0.000 C 
ENDBRANCH  18  21
ENDBRANCH   4  18
BRANCH   1  29
ATOM     28  C   UNL     1      -1.020  10.573  18.389  0.00  0.00    +0.000 C 
ATOM     29  O   UNL     1       0.338  10.709  18.836  0.00  0.00    +0.000 OA
ENDBRANCH   1  29
TORSDOF 6
ENDMDL
MODEL 9
REMARK VINA RESULT:      -7.2      2.632      8.661
REMARK  Name = 
REMARK  7 active torsions:
REMARK  status: ('A' for Active; 'I' for Inactive)
REMARK    1  A    between atoms: C_1  and  O_2
REMARK    2  A    between atoms: O_2  and  C_3
REMARK    3  A    between atoms: C_6  and  S_7
REMARK    4  A    between atoms: S_7  and  N_10
REMARK    5  A    between atoms: C_18  and  N_19
REMARK    6  A    between atoms: C_20  and  C_22
REMARK    7  A    between atoms: C_22  and  C_23
REMARK                            x       y       z     vdW  Elec       q    Type
REMARK                         _______ _______ _______ _____ _____    ______ ____
ROOT
ATOM      1  C   UNL     1       1.878   6.454  20.472  0.00  0.00    +0.000 A 
ATOM      2  C   UNL     1       1.095   7.455  21.071  0.00  0.00    +0.000 A 
ATOM      3  C   UNL     1       0.978   8.717  20.492  0.00  0.00    +0.000 A 
ATOM      4  C   UNL     1       1.623   8.974  19.290  0.00  0.00    +0.000 A 
ATOM      5  C   UNL     1       2.324   7.967  18.629  0.00  0.00    +0.000 A 
ATOM      6  C   UNL     1       2.485   6.703  19.218  0.00  0.00    +0.000 A 
ENDROOT
BRANCH   6   7
ATOM      7  N   UNL     1       3.240   5.674  18.572  0.00  0.00    +0.000 N 
ATOM      8  C   UNL     1       2.703   4.687  17.753  0.00  0.00    +0.000 C 
ATOM      9  O   UNL     1       1.528   4.624  17.380  0.00  0.00    +0.000 OA
ATOM     10  H   UNL     1       4.245   5.774  18.620  0.00  0.00    +0.000 HD
BRANCH   8  11
ATOM     11  C   UNL     1       3.700   3.655  17.245  0.00  0.00    +0.000 C 
BRANCH  11  12
ATOM     12  C   UNL     1       4.970   4.289  16.735  0.00  0.00    +0.000 A 
ATOM     13  C   UNL     1       6.051   4.500  17.592  0.00  0.00    +0.000 A 
ATOM     14  C   UNL     1       7.183   5.125  17.091  0.00  0.00    +0.000 A 
ATOM     15  N   UNL     1       7.312   5.539  15.814  0.00  0.00    +0.000 NA
ATOM     16  C   UNL     1       6.269   5.301  14.992  0.00  0.00    +0.000 A 
ATOM     17  C   UNL     1       5.098   4.678  15.395  0.00  0.00    +0.000 A 
ENDBRANCH  11  12
ENDBRANCH   8  11
ENDBRANCH   6   7
BRANCH   4  18
ATOM     18  S   UNL     1       1.456  10.593  18.579  0.00  0.00    +0.000 S 
ATOM     19  O   UNL     1       1.837  11.565  19.587  0.00  0.00    +0.000 OA
ATOM     20  O   UNL     1       2.140  10.579  17.304  0.00  0.00    +0.000 OA
BRANCH  18  21
ATOM     21  N   UNL     1      -0.219  10.739  18.296  0.00  0.00    +0.000 NA
ATOM     22  C   UNL     1      -0.919   9.520  17.825  0.00  0.00    +0.000 C 
ATOM     23  C   UNL     1      -1.945   9.851  16.743  0.00  0.00    +0.000 C 
ATOM     24  C   UNL     1      -3.291  10.324  17.280  0.00  0.00    +0.000 C 
ATOM     25  C   UNL     1      -3.219  11.620  18.074  0.00  0.00    +0.000 C 
ATOM     26  C   UNL     1      -2.425  11.472  19.366  0.00  0.00    +0.000 C 
ATOM     27  C   UNL     1      -0.926  11.681  19.196  0.00  0.00    +0.000 C 
ENDBRANCH  18  21
ENDBRANCH   4  18
BRANCH   1  29
ATOM     28  C   UNL     1       1.098   4.246  20.761  0.00  0.00    +0.000 C 
ATOM     29  O   UNL     1       2.084   5.238  21.086  0.00  0.00    +0.000 OA
ENDBRANCH   1  29
TORSDOF 6
ENDMDL
