MODEL 1
REMARK VINA RESULT:      -8.1      0.000      0.000
REMARK  Name = 
REMARK  6 active torsions:
REMARK  status: ('A' for Active; 'I' for Inactive)
REMARK    1  A    between atoms: C_2  and  C_3
REMARK    2  A    between atoms: C_3  and  C_4
REMARK    3  A    between atoms: C_4  and  C_5
REMARK    4  A    between atoms: C_7  and  C_8
REMARK    5  A    between atoms: C_11  and  S_12
REMARK    6  A    between atoms: S_12  and  N_15
REMARK                            x       y       z     vdW  Elec       q    Type
REMARK                         _______ _______ _______ _____ _____    ______ ____
ROOT
ATOM      1  C   UNL     1       0.678   9.146  20.805  0.00  0.00    +0.000 A 
ATOM      2  N   UNL     1       1.432   8.937  19.751  0.00  0.00    +0.000 NA
ATOM      3  C   UNL     1       1.859   7.635  19.934  0.00  0.00    +0.000 A 
ATOM      4  N   UNL     1       1.371   7.056  21.044  0.00  0.00    +0.000 NA
ATOM      5  O   UNL     1       0.588   8.057  21.622  0.00  0.00    +0.000 OA
ENDROOT
BRANCH   3   6
ATOM      6  C   UNL     1       2.753   6.981  18.985  0.00  0.00    +0.000 A 
ATOM      7  C   UNL     1       3.218   5.670  19.184  0.00  0.00    +0.000 A 
ATOM      8  C   UNL     1       4.114   5.084  18.275  0.00  0.00    +0.000 A 
ATOM      9  C   UNL     1       4.528   5.799  17.145  0.00  0.00    +0.000 A 
ATOM     10  C   UNL     1       4.074   7.104  16.938  0.00  0.00    +0.000 A 
ATOM     11  C   UNL     1       3.190   7.685  17.852  0.00  0.00    +0.000 A 
BRANCH   9  12
ATOM     12  S   UNL     1       5.766   5.123  16.049  0.00  0.00    +0.000 S 
ATOM     13  O   UNL     1       5.616   3.683  16.076  0.00  0.00    +0.000 OA
ATOM     14  O   UNL     1       5.676   5.854  14.802  0.00  0.00    +0.000 OA
BRANCH  12  15
ATOM     15  N   UNL     1       7.236   5.508  16.772  0.00  0.00    +0.000 NA
ATOM     16  C   UNL     1       7.752   4.680  17.876  0.00  0.00    +0.000 C 
ATOM     17  C   UNL     1       7.649   5.590  19.085  0.00  0.00    +0.000 C 
ATOM     18  C   UNL     1       7.946   6.973  18.528  0.00  0.00    +0.000 C 
ATOM     19  C   UNL     1       7.552   6.921  17.055  0.00  0.00    +0.000 C 
ENDBRANCH  12  15
ENDBRANCH   9  12
ENDBRANCH   3   6
BRANCH   1  20
ATOM     20  C   UNL     1      -0.025  10.370  21.250  0.00  0.00    +0.000 C 
BRANCH  20  21
ATOM     21  C   UNL     1      -0.082  11.452  20.168  0.00  0.00    +0.000 C 
BRANCH  21  23
ATOM     22  O   UNL     1      -2.252  12.416  20.516  0.00  0.00    +0.000 OA
ATOM     23  C   UNL     1      -1.527  11.733  19.793  0.00  0.00    +0.000 C 
ATOM     24  N   UNL     1      -1.978  11.213  18.602  0.00  0.00    +0.000 N 
ATOM     25  C   UNL     1      -3.321  11.489  18.126  0.00  0.00    +0.000 C 
ATOM     26  C   UNL     1      -3.672  10.263  17.304  0.00  0.00    +0.000 C 
ATOM     27  C   UNL     1      -2.335   9.880  16.679  0.00  0.00    +0.000 C 
ATOM     28  C   UNL     1      -1.308  10.243  17.751  0.00  0.00    +0.000 C 
ENDBRANCH  21  23
ENDBRANCH  20  21
ENDBRANCH   1  20
TORSDOF 6
ENDMDL
MODEL 2
REMARK VINA RESULT:      -7.8      2.305      3.312
REMARK  Name = 
REMARK  6 active torsions:
REMARK  status: ('A' for Active; 'I' for Inactive)
REMARK    1  A    between atoms: C_2  and  C_3
REMARK    2  A    between atoms: C_3  and  C_4
REMARK    3  A    between atoms: C_4  and  C_5
REMARK    4  A    between atoms: C_7  and  C_8
REMARK    5  A    between atoms: C_11  and  S_12
REMARK    6  A    between atoms: S_12  and  N_15
REMARK                            x       y       z     vdW  Elec       q    Type
REMARK                         _______ _______ _______ _____ _____    ______ ____
ROOT
ATOM      1  C   UNL     1       0.199  10.564  20.035  0.00  0.00    +0.000 A 
ATOM      2  N   UNL     1       0.777   9.408  20.263  0.00  0.00    +0.000 NA
ATOM      3  C   UNL     1       1.442   9.160  19.077  0.00  0.00    +0.000 A 
ATOM      4  N   UNL     1       1.298  10.133  18.162  0.00  0.00    +0.000 NA
ATOM      5  O   UNL     1       0.474  11.065  18.795  0.00  0.00    +0.000 OA
ENDROOT
BRANCH   3   6
ATOM      6  C   UNL     1       2.223   7.944  18.875  0.00  0.00    +0.000 A 
ATOM      7  C   UNL     1       2.261   6.917  19.832  0.00  0.00    +0.000 A 
ATOM      8  C   UNL     1       3.058   5.779  19.628  0.00  0.00    +0.000 A 
ATOM      9  C   UNL     1       3.802   5.652  18.450  0.00  0.00    +0.000 A 
ATOM     10  C   UNL     1       3.775   6.669  17.492  0.00  0.00    +0.000 A 
ATOM     11  C   UNL     1       2.987   7.803  17.705  0.00  0.00    +0.000 A 
BRANCH   9  12
ATOM     12  S   UNL     1       4.922   4.278  18.230  0.00  0.00    +0.000 S 
ATOM     13  O   UNL     1       5.570   4.458  16.948  0.00  0.00    +0.000 OA
ATOM     14  O   UNL     1       5.703   4.166  19.445  0.00  0.00    +0.000 OA
BRANCH  12  15
ATOM     15  N   UNL     1       3.928   2.924  18.126  0.00  0.00    +0.000 NA
ATOM     16  C   UNL     1       2.732   2.954  17.266  0.00  0.00    +0.000 C 
ATOM     17  C   UNL     1       1.580   2.932  18.250  0.00  0.00    +0.000 C 
ATOM     18  C   UNL     1       2.085   2.056  19.385  0.00  0.00    +0.000 C 
ATOM     19  C   UNL     1       3.606   2.170  19.353  0.00  0.00    +0.000 C 
ENDBRANCH  12  15
ENDBRANCH   9  12
ENDBRANCH   3   6
BRANCH   1  20
ATOM     20  C   UNL     1      -0.724  11.355  20.880  0.00  0.00    +0.000 C 
BRANCH  20  21
ATOM     21  C   UNL     1      -1.341  12.543  20.138  0.00  0.00    +0.000 C 
BRANCH  21  23
ATOM     22  O   UNL     1      -3.481  12.731  21.209  0.00  0.00    +0.000 OA
ATOM     23  C   UNL     1      -2.856  12.452  20.185  0.00  0.00    +0.000 C 
ATOM     24  N   UNL     1      -3.498  12.069  19.030  0.00  0.00    +0.000 N 
ATOM     25  C   UNL     1      -4.946  12.022  18.957  0.00  0.00    +0.000 C 
ATOM     26  C   UNL     1      -5.222  10.936  17.934  0.00  0.00    +0.000 C 
ATOM     27  C   UNL     1      -4.071  11.100  16.948  0.00  0.00    +0.000 C 
ATOM     28  C   UNL     1      -2.894  11.531  17.821  0.00  0.00    +0.000 C 
ENDBRANCH  21  23
ENDBRANCH  20  21
ENDBRANCH   1  20
TORSDOF 6
ENDMDL
MODEL 3
REMARK VINA RESULT:      -7.7      5.528      8.609
REMARK  Name = 
REMARK  6 active torsions:
REMARK  status: ('A' for Active; 'I' for Inactive)
REMARK    1  A    between atoms: C_2  and  C_3
REMARK    2  A    between atoms: C_3  and  C_4
REMARK    3  A    between atoms: C_4  and  C_5
REMARK    4  A    between atoms: C_7  and  C_8
REMARK    5  A    between atoms: C_11  and  S_12
REMARK    6  A    between atoms: S_12  and  N_15
REMARK                            x       y       z     vdW  Elec       q    Type
REMARK                         _______ _______ _______ _____ _____    ______ ____
ROOT
ATOM      1  C   UNL     1       8.147   8.210  18.272  0.00  0.00    +0.000 A 
ATOM      2  N   UNL     1       7.594   7.109  18.722  0.00  0.00    +0.000 NA
ATOM      3  C   UNL     1       6.680   6.800  17.732  0.00  0.00    +0.000 A 
ATOM      4  N   UNL     1       6.685   7.663  16.702  0.00  0.00    +0.000 NA
ATOM      5  O   UNL     1       7.657   8.599  17.059  0.00  0.00    +0.000 OA
ENDROOT
BRANCH   3   6
ATOM      6  C   UNL     1       5.810   5.632  17.828  0.00  0.00    +0.000 A 
ATOM      7  C   UNL     1       4.912   5.288  16.804  0.00  0.00    +0.000 A 
ATOM      8  C   UNL     1       4.056   4.184  16.946  0.00  0.00    +0.000 A 
ATOM      9  C   UNL     1       4.115   3.401  18.104  0.00  0.00    +0.000 A 
ATOM     10  C   UNL     1       5.003   3.736  19.131  0.00  0.00    +0.000 A 
ATOM     11  C   UNL     1       5.845   4.841  18.987  0.00  0.00    +0.000 A 
BRANCH   9  12
ATOM     12  S   UNL     1       2.947   2.074  18.361  0.00  0.00    +0.000 S 
ATOM     13  O   UNL     1       2.162   1.958  17.149  0.00  0.00    +0.000 OA
ATOM     14  O   UNL     1       3.692   0.943  18.873  0.00  0.00    +0.000 OA
BRANCH  12  15
ATOM     15  N   UNL     1       1.933   2.625  19.586  0.00  0.00    +0.000 NA
ATOM     16  C   UNL     1       1.217   3.903  19.431  0.00  0.00    +0.000 C 
ATOM     17  C   UNL     1       1.880   4.812  20.446  0.00  0.00    +0.000 C 
ATOM     18  C   UNL     1       2.217   3.885  21.603  0.00  0.00    +0.000 C 
ATOM     19  C   UNL     1       2.365   2.496  20.991  0.00  0.00    +0.000 C 
ENDBRANCH  12  15
ENDBRANCH   9  12
ENDBRANCH   3   6
BRANCH   1  20
ATOM     20  C   UNL     1       9.158   9.095  18.894  0.00  0.00    +0.000 C 
BRANCH  20  21
ATOM     21  C   UNL     1       9.089  10.535  18.376  0.00  0.00    +0.000 C 
BRANCH  21  23
ATOM     22  O   UNL     1       9.913  11.255  20.512  0.00  0.00    +0.000 OA
ATOM     23  C   UNL     1       9.871  11.454  19.298  0.00  0.00    +0.000 C 
ATOM     24  N   UNL     1      10.547  12.501  18.715  0.00  0.00    +0.000 N 
ATOM     25  C   UNL     1      11.379  13.389  19.505  0.00  0.00    +0.000 C 
ATOM     26  C   UNL     1      11.317  14.706  18.754  0.00  0.00    +0.000 C 
ATOM     27  C   UNL     1      11.249  14.262  17.297  0.00  0.00    +0.000 C 
ATOM     28  C   UNL     1      10.436  12.969  17.342  0.00  0.00    +0.000 C 
ENDBRANCH  21  23
ENDBRANCH  20  21
ENDBRANCH   1  20
TORSDOF 6
ENDMDL
MODEL 4
REMARK VINA RESULT:      -7.7      2.463      3.903
REMARK  Name = 
REMARK  6 active torsions:
REMARK  status: ('A' for Active; 'I' for Inactive)
REMARK    1  A    between atoms: C_2  and  C_3
REMARK    2  A    between atoms: C_3  and  C_4
REMARK    3  A    between atoms: C_4  and  C_5
REMARK    4  A    between atoms: C_7  and  C_8
REMARK    5  A    between atoms: C_11  and  S_12
REMARK    6  A    between atoms: S_12  and  N_15
REMARK                            x       y       z     vdW  Elec       q    Type
REMARK                         _______ _______ _______ _____ _____    ______ ____
ROOT
ATOM      1  C   UNL     1      -0.198  10.735  18.940  0.00  0.00    +0.000 A 
ATOM      2  N   UNL     1       0.495   9.819  18.304  0.00  0.00    +0.000 NA
ATOM      3  C   UNL     1       1.164   9.177  19.330  0.00  0.00    +0.000 A 
ATOM      4  N   UNL     1       0.879   9.663  20.550  0.00  0.00    +0.000 NA
ATOM      5  O   UNL     1      -0.023  10.696  20.293  0.00  0.00    +0.000 OA
ENDROOT
BRANCH   3   6
ATOM      6  C   UNL     1       2.083   8.073  19.073  0.00  0.00    +0.000 A 
ATOM      7  C   UNL     1       2.831   7.989  17.887  0.00  0.00    +0.000 A 
ATOM      8  C   UNL     1       3.673   6.891  17.650  0.00  0.00    +0.000 A 
ATOM      9  C   UNL     1       3.793   5.883  18.613  0.00  0.00    +0.000 A 
ATOM     10  C   UNL     1       3.051   5.955  19.796  0.00  0.00    +0.000 A 
ATOM     11  C   UNL     1       2.207   7.046  20.021  0.00  0.00    +0.000 A 
BRANCH   9  12
ATOM     12  S   UNL     1       4.754   4.416  18.276  0.00  0.00    +0.000 S 
ATOM     13  O   UNL     1       5.385   4.609  16.987  0.00  0.00    +0.000 OA
ATOM     14  O   UNL     1       5.548   4.146  19.456  0.00  0.00    +0.000 OA
BRANCH  12  15
ATOM     15  N   UNL     1       3.619   3.184  18.121  0.00  0.00    +0.000 NA
ATOM     16  C   UNL     1       2.461   3.358  17.226  0.00  0.00    +0.000 C 
ATOM     17  C   UNL     1       1.284   3.453  18.177  0.00  0.00    +0.000 C 
ATOM     18  C   UNL     1       1.653   2.510  19.311  0.00  0.00    +0.000 C 
ATOM     19  C   UNL     1       3.178   2.455  19.325  0.00  0.00    +0.000 C 
ENDBRANCH  12  15
ENDBRANCH   9  12
ENDBRANCH   3   6
BRANCH   1  20
ATOM     20  C   UNL     1      -1.074  11.807  18.414  0.00  0.00    +0.000 C 
BRANCH  20  21
ATOM     21  C   UNL     1      -2.410  11.901  19.155  0.00  0.00    +0.000 C 
BRANCH  21  23
ATOM     22  O   UNL     1      -3.320  11.049  17.104  0.00  0.00    +0.000 OA
ATOM     23  C   UNL     1      -3.544  11.489  18.232  0.00  0.00    +0.000 C 
ATOM     24  N   UNL     1      -4.825  11.606  18.720  0.00  0.00    +0.000 N 
ATOM     25  C   UNL     1      -5.967  11.170  17.939  0.00  0.00    +0.000 C 
ATOM     26  C   UNL     1      -7.091  12.075  18.407  0.00  0.00    +0.000 C 
ATOM     27  C   UNL     1      -6.775  12.271  19.885  0.00  0.00    +0.000 C 
ATOM     28  C   UNL     1      -5.248  12.278  19.939  0.00  0.00    +0.000 C 
ENDBRANCH  21  23
ENDBRANCH  20  21
ENDBRANCH   1  20
TORSDOF 6
ENDMDL
MODEL 5
REMARK VINA RESULT:      -7.7      5.718      8.721
REMARK  Name = 
REMARK  6 active torsions:
REMARK  status: ('A' for Active; 'I' for Inactive)
REMARK    1  A    between atoms: C_2  and  C_3
REMARK    2  A    between atoms: C_3  and  C_4
REMARK    3  A    between atoms: C_4  and  C_5
REMARK    4  A    between atoms: C_7  and  C_8
REMARK    5  A    between atoms: C_11  and  S_12
REMARK    6  A    between atoms: S_12  and  N_15
REMARK                            x       y       z     vdW  Elec       q    Type
REMARK                         _______ _______ _______ _____ _____    ______ ____
ROOT
ATOM      1  C   UNL     1       7.146   6.821  17.203  0.00  0.00    +0.000 A 
ATOM      2  N   UNL     1       7.348   8.110  17.061  0.00  0.00    +0.000 NA
ATOM      3  C   UNL     1       8.155   8.413  18.142  0.00  0.00    +0.000 A 
ATOM      4  N   UNL     1       8.456   7.350  18.907  0.00  0.00    +0.000 NA
ATOM      5  O   UNL     1       7.788   6.294  18.286  0.00  0.00    +0.000 OA
ENDROOT
BRANCH   3   6
ATOM      6  C   UNL     1       8.622   9.772  18.393  0.00  0.00    +0.000 A 
ATOM      7  C   UNL     1       8.291  10.841  17.545  0.00  0.00    +0.000 A 
ATOM      8  C   UNL     1       8.792  12.129  17.789  0.00  0.00    +0.000 A 
ATOM      9  C   UNL     1       9.608  12.360  18.903  0.00  0.00    +0.000 A 
ATOM     10  C   UNL     1       9.947  11.303  19.753  0.00  0.00    +0.000 A 
ATOM     11  C   UNL     1       9.451  10.022  19.498  0.00  0.00    +0.000 A 
BRANCH   9  12
ATOM     12  S   UNL     1      10.363  13.959  19.157  0.00  0.00    +0.000 S 
ATOM     13  O   UNL     1      11.712  13.722  19.628  0.00  0.00    +0.000 OA
ATOM     14  O   UNL     1      10.121  14.740  17.962  0.00  0.00    +0.000 OA
BRANCH  12  15
ATOM     15  N   UNL     1       9.486  14.652  20.416  0.00  0.00    +0.000 NA
ATOM     16  C   UNL     1       9.984  14.559  21.799  0.00  0.00    +0.000 C 
ATOM     17  C   UNL     1       8.995  13.630  22.474  0.00  0.00    +0.000 C 
ATOM     18  C   UNL     1       7.667  13.966  21.814  0.00  0.00    +0.000 C 
ATOM     19  C   UNL     1       8.018  14.512  20.433  0.00  0.00    +0.000 C 
ENDBRANCH  12  15
ENDBRANCH   9  12
ENDBRANCH   3   6
BRANCH   1  20
ATOM     20  C   UNL     1       6.305   5.893  16.413  0.00  0.00    +0.000 C 
BRANCH  20  21
ATOM     21  C   UNL     1       5.603   4.842  17.278  0.00  0.00    +0.000 C 
BRANCH  21  23
ATOM     22  O   UNL     1       3.801   6.410  17.514  0.00  0.00    +0.000 OA
ATOM     23  C   UNL     1       4.149   5.229  17.485  0.00  0.00    +0.000 C 
ATOM     24  N   UNL     1       3.240   4.205  17.615  0.00  0.00    +0.000 N 
ATOM     25  C   UNL     1       1.820   4.477  17.744  0.00  0.00    +0.000 C 
ATOM     26  C   UNL     1       1.301   3.307  18.560  0.00  0.00    +0.000 C 
ATOM     27  C   UNL     1       2.165   2.148  18.076  0.00  0.00    +0.000 C 
ATOM     28  C   UNL     1       3.522   2.790  17.792  0.00  0.00    +0.000 C 
ENDBRANCH  21  23
ENDBRANCH  20  21
ENDBRANCH   1  20
TORSDOF 6
ENDMDL
MODEL 6
REMARK VINA RESULT:      -7.7      6.148      9.161
REMARK  Name = 
REMARK  6 active torsions:
REMARK  status: ('A' for Active; 'I' for Inactive)
REMARK    1  A    between atoms: C_2  and  C_3
REMARK    2  A    between atoms: C_3  and  C_4
REMARK    3  A    between atoms: C_4  and  C_5
REMARK    4  A    between atoms: C_7  and  C_8
REMARK    5  A    between atoms: C_11  and  S_12
REMARK    6  A    between atoms: S_12  and  N_15
REMARK                            x       y       z     vdW  Elec       q    Type
REMARK                         _______ _______ _______ _____ _____    ______ ____
ROOT
ATOM      1  C   UNL     1       7.654   6.586  17.970  0.00  0.00    +0.000 A 
ATOM      2  N   UNL     1       8.372   7.507  18.570  0.00  0.00    +0.000 NA
ATOM      3  C   UNL     1       7.975   8.667  17.931  0.00  0.00    +0.000 A 
ATOM      4  N   UNL     1       7.035   8.473  16.990  0.00  0.00    +0.000 NA
ATOM      5  O   UNL     1       6.822   7.093  17.015  0.00  0.00    +0.000 OA
ENDROOT
BRANCH   3   6
ATOM      6  C   UNL     1       8.542   9.966  18.276  0.00  0.00    +0.000 A 
ATOM      7  C   UNL     1       8.264  11.121  17.528  0.00  0.00    +0.000 A 
ATOM      8  C   UNL     1       8.861  12.348  17.859  0.00  0.00    +0.000 A 
ATOM      9  C   UNL     1       9.721  12.430  18.961  0.00  0.00    +0.000 A 
ATOM     10  C   UNL     1      10.007  11.286  19.711  0.00  0.00    +0.000 A 
ATOM     11  C   UNL     1       9.416  10.066  19.370  0.00  0.00    +0.000 A 
BRANCH   9  12
ATOM     12  S   UNL     1      10.592  13.948  19.320  0.00  0.00    +0.000 S 
ATOM     13  O   UNL     1       9.949  14.545  20.472  0.00  0.00    +0.000 OA
ATOM     14  O   UNL     1      12.006  13.633  19.340  0.00  0.00    +0.000 OA
BRANCH  12  15
ATOM     15  N   UNL     1      10.300  14.936  17.989  0.00  0.00    +0.000 NA
ATOM     16  C   UNL     1      11.398  15.271  17.066  0.00  0.00    +0.000 C 
ATOM     17  C   UNL     1      11.630  16.750  17.307  0.00  0.00    +0.000 C 
ATOM     18  C   UNL     1      10.241  17.297  17.593  0.00  0.00    +0.000 C 
ATOM     19  C   UNL     1       9.439  16.124  18.149  0.00  0.00    +0.000 C 
ENDBRANCH  12  15
ENDBRANCH   9  12
ENDBRANCH   3   6
BRANCH   1  20
ATOM     20  C   UNL     1       7.655   5.115  18.136  0.00  0.00    +0.000 C 
BRANCH  20  21
ATOM     21  C   UNL     1       6.313   4.474  17.773  0.00  0.00    +0.000 C 
BRANCH  21  23
ATOM     22  O   UNL     1       5.766   4.682  20.101  0.00  0.00    +0.000 OA
ATOM     23  C   UNL     1       5.353   4.584  18.945  0.00  0.00    +0.000 C 
ATOM     24  N   UNL     1       4.008   4.593  18.656  0.00  0.00    +0.000 N 
ATOM     25  C   UNL     1       3.018   4.767  19.702  0.00  0.00    +0.000 C 
ATOM     26  C   UNL     1       1.805   4.019  19.180  0.00  0.00    +0.000 C 
ATOM     27  C   UNL     1       1.878   4.263  17.677  0.00  0.00    +0.000 C 
ATOM     28  C   UNL     1       3.376   4.296  17.380  0.00  0.00    +0.000 C 
ENDBRANCH  21  23
ENDBRANCH  20  21
ENDBRANCH   1  20
TORSDOF 6
ENDMDL
MODEL 7
REMARK VINA RESULT:      -7.6      6.083      8.927
REMARK  Name = 
REMARK  6 active torsions:
REMARK  status: ('A' for Active; 'I' for Inactive)
REMARK    1  A    between atoms: C_2  and  C_3
REMARK    2  A    between atoms: C_3  and  C_4
REMARK    3  A    between atoms: C_4  and  C_5
REMARK    4  A    between atoms: C_7  and  C_8
REMARK    5  A    between atoms: C_11  and  S_12
REMARK    6  A    between atoms: S_12  and  N_15
REMARK                            x       y       z     vdW  Elec       q    Type
REMARK                         _______ _______ _______ _____ _____    ______ ____
ROOT
ATOM      1  C   UNL     1       7.166   6.961  17.297  0.00  0.00    +0.000 A 
ATOM      2  N   UNL     1       7.381   8.250  17.168  0.00  0.00    +0.000 NA
ATOM      3  C   UNL     1       8.217   8.526  18.234  0.00  0.00    +0.000 A 
ATOM      4  N   UNL     1       8.522   7.449  18.977  0.00  0.00    +0.000 NA
ATOM      5  O   UNL     1       7.825   6.411  18.357  0.00  0.00    +0.000 OA
ENDROOT
BRANCH   3   6
ATOM      6  C   UNL     1       8.708   9.876  18.494  0.00  0.00    +0.000 A 
ATOM      7  C   UNL     1       9.527  10.170  19.596  0.00  0.00    +0.000 A 
ATOM      8  C   UNL     1       9.946  11.487  19.844  0.00  0.00    +0.000 A 
ATOM      9  C   UNL     1       9.568  12.514  18.972  0.00  0.00    +0.000 A 
ATOM     10  C   UNL     1       8.750  12.234  17.873  0.00  0.00    +0.000 A 
ATOM     11  C   UNL     1       8.329  10.923  17.638  0.00  0.00    +0.000 A 
BRANCH   9  12
ATOM     12  S   UNL     1       9.979  14.213  19.341  0.00  0.00    +0.000 S 
ATOM     13  O   UNL     1       8.865  14.769  20.080  0.00  0.00    +0.000 OA
ATOM     14  O   UNL     1      11.315  14.216  19.900  0.00  0.00    +0.000 OA
BRANCH  12  15
ATOM     15  N   UNL     1      10.043  14.975  17.842  0.00  0.00    +0.000 NA
ATOM     16  C   UNL     1      11.281  14.929  17.045  0.00  0.00    +0.000 C 
ATOM     17  C   UNL     1      11.782  16.359  17.077  0.00  0.00    +0.000 C 
ATOM     18  C   UNL     1      10.511  17.193  17.070  0.00  0.00    +0.000 C 
ATOM     19  C   UNL     1       9.431  16.308  17.685  0.00  0.00    +0.000 C 
ENDBRANCH  12  15
ENDBRANCH   9  12
ENDBRANCH   3   6
BRANCH   1  20
ATOM     20  C   UNL     1       6.294   6.055  16.515  0.00  0.00    +0.000 C 
BRANCH  20  21
ATOM     21  C   UNL     1       4.804   6.280  16.785  0.00  0.00    +0.000 C 
BRANCH  21  23
ATOM     22  O   UNL     1       4.326   3.930  16.679  0.00  0.00    +0.000 OA
ATOM     23  C   UNL     1       4.168   4.993  17.280  0.00  0.00    +0.000 C 
ATOM     24  N   UNL     1       3.432   5.063  18.440  0.00  0.00    +0.000 N 
ATOM     25  C   UNL     1       2.847   3.873  19.029  0.00  0.00    +0.000 C 
ATOM     26  C   UNL     1       1.614   4.393  19.745  0.00  0.00    +0.000 C 
ATOM     27  C   UNL     1       2.061   5.764  20.239  0.00  0.00    +0.000 C 
ATOM     28  C   UNL     1       3.004   6.262  19.144  0.00  0.00    +0.000 C 
ENDBRANCH  21  23
ENDBRANCH  20  21
ENDBRANCH   1  20
TORSDOF 6
ENDMDL
MODEL 8
REMARK VINA RESULT:      -7.5      3.120      8.563
REMARK  Name = 
REMARK  6 active torsions:
REMARK  status: ('A' for Active; 'I' for Inactive)
REMARK    1  A    between atoms: C_2  and  C_3
REMARK    2  A    between atoms: C_3  and  C_4
REMARK    3  A    between atoms: C_4  and  C_5
REMARK    4  A    between atoms: C_7  and  C_8
REMARK    5  A    between atoms: C_11  and  S_12
REMARK    6  A    between atoms: S_12  and  N_15
REMARK                            x       y       z     vdW  Elec       q    Type
REMARK                         _______ _______ _______ _____ _____    ______ ____
ROOT
ATOM      1  C   UNL     1       4.198   4.963  17.789  0.00  0.00    +0.000 A 
ATOM      2  N   UNL     1       3.298   5.884  17.532  0.00  0.00    +0.000 NA
ATOM      3  C   UNL     1       3.274   6.620  18.701  0.00  0.00    +0.000 A 
ATOM      4  N   UNL     1       4.138   6.186  19.634  0.00  0.00    +0.000 NA
ATOM      5  O   UNL     1       4.751   5.086  19.030  0.00  0.00    +0.000 OA
ENDROOT
BRANCH   3   6
ATOM      6  C   UNL     1       2.382   7.763  18.870  0.00  0.00    +0.000 A 
ATOM      7  C   UNL     1       1.708   8.008  20.077  0.00  0.00    +0.000 A 
ATOM      8  C   UNL     1       0.821   9.090  20.194  0.00  0.00    +0.000 A 
ATOM      9  C   UNL     1       0.625   9.951  19.107  0.00  0.00    +0.000 A 
ATOM     10  C   UNL     1       1.289   9.715  17.900  0.00  0.00    +0.000 A 
ATOM     11  C   UNL     1       2.163   8.630  17.788  0.00  0.00    +0.000 A 
BRANCH   9  12
ATOM     12  S   UNL     1      -0.595  11.253  19.191  0.00  0.00    +0.000 S 
ATOM     13  O   UNL     1      -0.882  11.476  20.593  0.00  0.00    +0.000 OA
ATOM     14  O   UNL     1      -0.124  12.333  18.350  0.00  0.00    +0.000 OA
BRANCH  12  15
ATOM     15  N   UNL     1      -1.970  10.599  18.475  0.00  0.00    +0.000 NA
ATOM     16  C   UNL     1      -1.865   9.894  17.186  0.00  0.00    +0.000 C 
ATOM     17  C   UNL     1      -2.575  10.814  16.214  0.00  0.00    +0.000 C 
ATOM     18  C   UNL     1      -3.702  11.417  17.037  0.00  0.00    +0.000 C 
ATOM     19  C   UNL     1      -3.226  11.374  18.486  0.00  0.00    +0.000 C 
ENDBRANCH  12  15
ENDBRANCH   9  12
ENDBRANCH   3   6
BRANCH   1  20
ATOM     20  C   UNL     1       4.648   3.812  16.973  0.00  0.00    +0.000 C 
BRANCH  20  21
ATOM     21  C   UNL     1       4.091   2.475  17.470  0.00  0.00    +0.000 C 
BRANCH  21  23
ATOM     22  O   UNL     1       1.748   2.859  17.119  0.00  0.00    +0.000 OA
ATOM     23  C   UNL     1       2.653   2.651  17.927  0.00  0.00    +0.000 C 
ATOM     24  N   UNL     1       2.406   2.545  19.276  0.00  0.00    +0.000 N 
ATOM     25  C   UNL     1       1.055   2.626  19.799  0.00  0.00    +0.000 C 
ATOM     26  C   UNL     1       1.241   3.195  21.193  0.00  0.00    +0.000 C 
ATOM     27  C   UNL     1       2.561   2.576  21.638  0.00  0.00    +0.000 C 
ATOM     28  C   UNL     1       3.383   2.495  20.352  0.00  0.00    +0.000 C 
ENDBRANCH  21  23
ENDBRANCH  20  21
ENDBRANCH   1  20
TORSDOF 6
ENDMDL
MODEL 9
REMARK VINA RESULT:      -7.5      1.624      2.470
REMARK  Name = 
REMARK  6 active torsions:
REMARK  status: ('A' for Active; 'I' for Inactive)
REMARK    1  A    between atoms: C_2  and  C_3
REMARK    2  A    between atoms: C_3  and  C_4
REMARK    3  A    between atoms: C_4  and  C_5
REMARK    4  A    between atoms: C_7  and  C_8
REMARK    5  A    between atoms: C_11  and  S_12
REMARK    6  A    between atoms: S_12  and  N_15
REMARK                            x       y       z     vdW  Elec       q    Type
REMARK                         _______ _______ _______ _____ _____    ______ ____
ROOT
ATOM      1  C   UNL     1       0.599   9.227  20.642  0.00  0.00    +0.000 A 
ATOM      2  N   UNL     1       1.312   8.966  19.571  0.00  0.00    +0.000 NA
ATOM      3  C   UNL     1       1.856   7.729  19.862  0.00  0.00    +0.000 A 
ATOM      4  N   UNL     1       1.477   7.237  21.054  0.00  0.00    +0.000 NA
ATOM      5  O   UNL     1       0.644   8.230  21.572  0.00  0.00    +0.000 OA
ENDROOT
BRANCH   3   6
ATOM      6  C   UNL     1       2.751   7.048  18.933  0.00  0.00    +0.000 A 
ATOM      7  C   UNL     1       3.183   5.729  19.149  0.00  0.00    +0.000 A 
ATOM      8  C   UNL     1       4.081   5.116  18.261  0.00  0.00    +0.000 A 
ATOM      9  C   UNL     1       4.530   5.813  17.133  0.00  0.00    +0.000 A 
ATOM     10  C   UNL     1       4.110   7.127  16.910  0.00  0.00    +0.000 A 
ATOM     11  C   UNL     1       3.224   7.734  17.804  0.00  0.00    +0.000 A 
BRANCH   9  12
ATOM     12  S   UNL     1       5.772   5.101  16.064  0.00  0.00    +0.000 S 
ATOM     13  O   UNL     1       5.608   3.664  16.120  0.00  0.00    +0.000 OA
ATOM     14  O   UNL     1       5.701   5.806  14.801  0.00  0.00    +0.000 OA
BRANCH  12  15
ATOM     15  N   UNL     1       7.239   5.487  16.792  0.00  0.00    +0.000 NA
ATOM     16  C   UNL     1       7.725   4.695  17.935  0.00  0.00    +0.000 C 
ATOM     17  C   UNL     1       7.623   5.652  19.105  0.00  0.00    +0.000 C 
ATOM     18  C   UNL     1       7.953   7.007  18.499  0.00  0.00    +0.000 C 
ATOM     19  C   UNL     1       7.577   6.904  17.024  0.00  0.00    +0.000 C 
ENDBRANCH  12  15
ENDBRANCH   9  12
ENDBRANCH   3   6
BRANCH   1  20
ATOM     20  C   UNL     1      -0.181  10.434  21.000  0.00  0.00    +0.000 C 
BRANCH  20  21
ATOM     21  C   UNL     1      -0.592  11.262  19.780  0.00  0.00    +0.000 C 
BRANCH  21  23
ATOM     22  O   UNL     1      -1.024  13.469  20.620  0.00  0.00    +0.000 OA
ATOM     23  C   UNL     1      -0.255  12.725  20.011  0.00  0.00    +0.000 C 
ATOM     24  N   UNL     1       0.954  13.174  19.532  0.00  0.00    +0.000 N 
ATOM     25  C   UNL     1       1.395  14.536  19.768  0.00  0.00    +0.000 C 
ATOM     26  C   UNL     1       2.274  14.844  18.570  0.00  0.00    +0.000 C 
ATOM     27  C   UNL     1       2.939  13.503  18.285  0.00  0.00    +0.000 C 
ATOM     28  C   UNL     1       1.866  12.475  18.640  0.00  0.00    +0.000 C 
ENDBRANCH  21  23
ENDBRANCH  20  21
ENDBRANCH   1  20
TORSDOF 6
ENDMDL
