MODEL 1
REMARK VINA RESULT:      -7.0      0.000      0.000
REMARK  Name = 
REMARK  7 active torsions:
REMARK  status: ('A' for Active; 'I' for Inactive)
REMARK    1  A    between atoms: C_1  and  C_2
REMARK    2  A    between atoms: C_2  and  C_3
REMARK    3  A    between atoms: C_2  and  C_4
REMARK    4  A    between atoms: C_5  and  O_6
REMARK    5  A    between atoms: C_14  and  C_15
REMARK    6  A    between atoms: C_14  and  C_16
REMARK    7  A    between atoms: C_23  and  C_24
REMARK                            x       y       z     vdW  Elec       q    Type
REMARK                         _______ _______ _______ _____ _____    ______ ____
ROOT
ATOM      1  C   UNL     1       6.292   5.981  16.707  0.00  0.00    +0.000 A 
ATOM      2  C   UNL     1       6.734   5.380  15.533  0.00  0.00    +0.000 A 
ATOM      3  C   UNL     1       6.023   4.308  14.994  0.00  0.00    +0.000 A 
ATOM      4  C   UNL     1       4.980   3.719  15.733  0.00  0.00    +0.000 A 
ATOM      5  C   UNL     1       4.483   4.387  16.846  0.00  0.00    +0.000 A 
ATOM      6  C   UNL     1       4.965   5.694  17.019  0.00  0.00    +0.000 A 
ATOM      7  C   UNL     1       3.854   6.737  16.867  0.00  0.00    +0.000 C 
ATOM      8  C   UNL     1       2.641   6.380  17.737  0.00  0.00    +0.000 C 
ATOM      9  C   UNL     1       3.039   5.242  18.697  0.00  0.00    +0.000 C 
ATOM     10  C   UNL     1       2.278   5.173  20.061  0.00  0.00    +0.000 C 
ATOM     11  C   UNL     1       2.868   6.313  20.952  0.00  0.00    +0.000 C 
ATOM     12  C   UNL     1       0.764   5.387  19.977  0.00  0.00    +0.000 C 
ATOM     13  C   UNL     1       2.593   3.849  20.686  0.00  0.00    +0.000 A 
ATOM     14  N   UNL     1       2.273   3.468  21.948  0.00  0.00    +0.000 N 
ATOM     15  N   UNL     1       2.715   2.240  22.261  0.00  0.00    +0.000 NA
ATOM     16  C   UNL     1       3.354   1.842  21.154  0.00  0.00    +0.000 A 
ATOM     17  C   UNL     1       3.308   2.804  20.141  0.00  0.00    +0.000 A 
ATOM     18  C   UNL     1       3.941   2.808  18.781  0.00  0.00    +0.000 C 
ATOM     19  C   UNL     1       3.378   3.929  17.837  0.00  0.00    +0.000 C 
ATOM     20  C   UNL     1       2.186   3.353  17.052  0.00  0.00    +0.000 C 
ATOM     21  H   UNL     1       1.783   4.000  22.661  0.00  0.00    +0.000 HD
ENDROOT
BRANCH   1  23
ATOM     22  C   UNL     1       7.872   7.519  18.110  0.00  0.00    +0.000 C 
ATOM     23  C   UNL     1       7.296   6.116  17.884  0.00  0.00    +0.000 C 
ATOM     24  C   UNL     1       6.648   5.643  19.203  0.00  0.00    +0.000 C 
ENDBRANCH   1  23
BRANCH   2  25
ATOM     25  O   UNL     1       7.913   5.702  14.929  0.00  0.00    +0.000 OA
ATOM     26  H   UNL     1       8.319   6.446  15.399  0.00  0.00    +0.000 HD
ENDBRANCH   2  25
TORSDOF 2
ENDMDL
MODEL 2
REMARK VINA RESULT:      -6.4      9.026     11.100
REMARK  Name = 
REMARK  7 active torsions:
REMARK  status: ('A' for Active; 'I' for Inactive)
REMARK    1  A    between atoms: C_1  and  C_2
REMARK    2  A    between atoms: C_2  and  C_3
REMARK    3  A    between atoms: C_2  and  C_4
REMARK    4  A    between atoms: C_5  and  O_6
REMARK    5  A    between atoms: C_14  and  C_15
REMARK    6  A    between atoms: C_14  and  C_16
REMARK    7  A    between atoms: C_23  and  C_24
REMARK                            x       y       z     vdW  Elec       q    Type
REMARK                         _______ _______ _______ _____ _____    ______ ____
ROOT
ATOM      1  C   UNL     1      10.435  13.627  18.093  0.00  0.00    +0.000 A 
ATOM      2  C   UNL     1      10.780  14.528  17.091  0.00  0.00    +0.000 A 
ATOM      3  C   UNL     1      10.388  15.864  17.197  0.00  0.00    +0.000 A 
ATOM      4  C   UNL     1       9.492  16.250  18.210  0.00  0.00    +0.000 A 
ATOM      5  C   UNL     1       9.240  15.373  19.258  0.00  0.00    +0.000 A 
ATOM      6  C   UNL     1      10.062  14.234  19.290  0.00  0.00    +0.000 A 
ATOM      7  C   UNL     1      10.967  14.218  20.524  0.00  0.00    +0.000 C 
ATOM      8  C   UNL     1      10.158  14.461  21.806  0.00  0.00    +0.000 C 
ATOM      9  C   UNL     1       8.657  14.362  21.468  0.00  0.00    +0.000 C 
ATOM     10  C   UNL     1       7.705  13.902  22.620  0.00  0.00    +0.000 C 
ATOM     11  C   UNL     1       7.911  12.360  22.771  0.00  0.00    +0.000 C 
ATOM     12  C   UNL     1       7.974  14.542  23.985  0.00  0.00    +0.000 C 
ATOM     13  C   UNL     1       6.300  14.168  22.176  0.00  0.00    +0.000 A 
ATOM     14  N   UNL     1       5.173  13.755  22.808  0.00  0.00    +0.000 N 
ATOM     15  N   UNL     1       4.046  14.100  22.166  0.00  0.00    +0.000 NA
ATOM     16  C   UNL     1       4.486  14.741  21.077  0.00  0.00    +0.000 A 
ATOM     17  C   UNL     1       5.881  14.814  21.033  0.00  0.00    +0.000 A 
ATOM     18  C   UNL     1       6.787  15.372  19.976  0.00  0.00    +0.000 C 
ATOM     19  C   UNL     1       8.271  15.550  20.458  0.00  0.00    +0.000 C 
ATOM     20  C   UNL     1       8.427  16.965  21.045  0.00  0.00    +0.000 C 
ATOM     21  H   UNL     1       5.095  13.211  23.662  0.00  0.00    +0.000 HD
ENDROOT
BRANCH   1  23
ATOM     22  C   UNL     1       9.781  11.168  18.688  0.00  0.00    +0.000 C 
ATOM     23  C   UNL     1       9.697  12.324  17.684  0.00  0.00    +0.000 C 
ATOM     24  C   UNL     1       8.206  12.613  17.406  0.00  0.00    +0.000 C 
ENDBRANCH   1  23
BRANCH   2  25
ATOM     25  O   UNL     1      11.384  14.155  15.928  0.00  0.00    +0.000 OA
ATOM     26  H   UNL     1      12.261  14.565  15.879  0.00  0.00    +0.000 HD
ENDBRANCH   2  25
TORSDOF 2
ENDMDL
MODEL 3
REMARK VINA RESULT:      -6.2      9.186     11.840
REMARK  Name = 
REMARK  7 active torsions:
REMARK  status: ('A' for Active; 'I' for Inactive)
REMARK    1  A    between atoms: C_1  and  C_2
REMARK    2  A    between atoms: C_2  and  C_3
REMARK    3  A    between atoms: C_2  and  C_4
REMARK    4  A    between atoms: C_5  and  O_6
REMARK    5  A    between atoms: C_14  and  C_15
REMARK    6  A    between atoms: C_14  and  C_16
REMARK    7  A    between atoms: C_23  and  C_24
REMARK                            x       y       z     vdW  Elec       q    Type
REMARK                         _______ _______ _______ _____ _____    ______ ____
ROOT
ATOM      1  C   UNL     1      10.769  13.302  17.933  0.00  0.00    +0.000 A 
ATOM      2  C   UNL     1      11.579  13.802  16.919  0.00  0.00    +0.000 A 
ATOM      3  C   UNL     1      11.645  15.179  16.700  0.00  0.00    +0.000 A 
ATOM      4  C   UNL     1      10.754  16.036  17.372  0.00  0.00    +0.000 A 
ATOM      5  C   UNL     1      10.029  15.542  18.451  0.00  0.00    +0.000 A 
ATOM      6  C   UNL     1      10.400  14.257  18.878  0.00  0.00    +0.000 A 
ATOM      7  C   UNL     1      10.996  14.275  20.289  0.00  0.00    +0.000 C 
ATOM      8  C   UNL     1      10.087  15.037  21.262  0.00  0.00    +0.000 C 
ATOM      9  C   UNL     1       8.732  15.296  20.573  0.00  0.00    +0.000 C 
ATOM     10  C   UNL     1       7.481  15.417  21.502  0.00  0.00    +0.000 C 
ATOM     11  C   UNL     1       7.126  13.963  21.952  0.00  0.00    +0.000 C 
ATOM     12  C   UNL     1       7.684  16.257  22.766  0.00  0.00    +0.000 C 
ATOM     13  C   UNL     1       6.357  15.963  20.676  0.00  0.00    +0.000 A 
ATOM     14  N   UNL     1       5.059  16.053  21.058  0.00  0.00    +0.000 N 
ATOM     15  N   UNL     1       4.256  16.545  20.101  0.00  0.00    +0.000 NA
ATOM     16  C   UNL     1       5.083  16.755  19.071  0.00  0.00    +0.000 A 
ATOM     17  C   UNL     1       6.405  16.411  19.373  0.00  0.00    +0.000 A 
ATOM     18  C   UNL     1       7.629  16.418  18.507  0.00  0.00    +0.000 C 
ATOM     19  C   UNL     1       8.965  16.271  19.317  0.00  0.00    +0.000 C 
ATOM     20  C   UNL     1       9.471  17.678  19.683  0.00  0.00    +0.000 C 
ATOM     21  H   UNL     1       4.642  15.773  21.940  0.00  0.00    +0.000 HD
ENDROOT
BRANCH   1  23
ATOM     22  C   UNL     1       9.652  11.017  18.530  0.00  0.00    +0.000 C 
ATOM     23  C   UNL     1       9.730  12.209  17.569  0.00  0.00    +0.000 C 
ATOM     24  C   UNL     1       8.318  12.824  17.450  0.00  0.00    +0.000 C 
ENDBRANCH   1  23
BRANCH   2  25
ATOM     25  O   UNL     1      12.234  13.006  16.027  0.00  0.00    +0.000 OA
ATOM     26  H   UNL     1      11.650  12.278  15.761  0.00  0.00    +0.000 HD
ENDBRANCH   2  25
TORSDOF 2
ENDMDL
MODEL 4
REMARK VINA RESULT:      -6.1      6.699      8.569
REMARK  Name = 
REMARK  7 active torsions:
REMARK  status: ('A' for Active; 'I' for Inactive)
REMARK    1  A    between atoms: C_1  and  C_2
REMARK    2  A    between atoms: C_2  and  C_3
REMARK    3  A    between atoms: C_2  and  C_4
REMARK    4  A    between atoms: C_5  and  O_6
REMARK    5  A    between atoms: C_14  and  C_15
REMARK    6  A    between atoms: C_14  and  C_16
REMARK    7  A    between atoms: C_23  and  C_24
REMARK                            x       y       z     vdW  Elec       q    Type
REMARK                         _______ _______ _______ _____ _____    ______ ____
ROOT
ATOM      1  C   UNL     1       1.224  14.302  20.592  0.00  0.00    +0.000 A 
ATOM      2  C   UNL     1       0.787  15.214  19.638  0.00  0.00    +0.000 A 
ATOM      3  C   UNL     1      -0.025  14.783  18.588  0.00  0.00    +0.000 A 
ATOM      4  C   UNL     1      -0.240  13.406  18.392  0.00  0.00    +0.000 A 
ATOM      5  C   UNL     1       0.111  12.519  19.403  0.00  0.00    +0.000 A 
ATOM      6  C   UNL     1       0.490  13.118  20.615  0.00  0.00    +0.000 A 
ATOM      7  C   UNL     1      -0.495  12.797  21.743  0.00  0.00    +0.000 C 
ATOM      8  C   UNL     1      -0.761  11.288  21.829  0.00  0.00    +0.000 C 
ATOM      9  C   UNL     1       0.262  10.554  20.939  0.00  0.00    +0.000 C 
ATOM     10  C   UNL     1       0.643   9.097  21.359  0.00  0.00    +0.000 C 
ATOM     11  C   UNL     1       1.602   9.228  22.585  0.00  0.00    +0.000 C 
ATOM     12  C   UNL     1      -0.533   8.210  21.781  0.00  0.00    +0.000 C 
ATOM     13  C   UNL     1       1.389   8.480  20.216  0.00  0.00    +0.000 A 
ATOM     14  N   UNL     1       2.043   7.291  20.241  0.00  0.00    +0.000 N 
ATOM     15  N   UNL     1       2.663   7.001  19.086  0.00  0.00    +0.000 NA
ATOM     16  C   UNL     1       2.401   8.060  18.312  0.00  0.00    +0.000 A 
ATOM     17  C   UNL     1       1.610   9.011  18.964  0.00  0.00    +0.000 A 
ATOM     18  C   UNL     1       1.144  10.361  18.504  0.00  0.00    +0.000 C 
ATOM     19  C   UNL     1       0.013  10.969  19.408  0.00  0.00    +0.000 C 
ATOM     20  C   UNL     1      -1.351  10.535  18.841  0.00  0.00    +0.000 C 
ATOM     21  H   UNL     1       2.135   6.640  21.015  0.00  0.00    +0.000 HD
ENDROOT
BRANCH   1  23
ATOM     22  C   UNL     1       3.666  14.482  19.677  0.00  0.00    +0.000 C 
ATOM     23  C   UNL     1       2.748  14.210  20.875  0.00  0.00    +0.000 C 
ATOM     24  C   UNL     1       3.144  15.175  22.014  0.00  0.00    +0.000 C 
ENDBRANCH   1  23
BRANCH   2  25
ATOM     25  O   UNL     1       1.211  16.509  19.595  0.00  0.00    +0.000 OA
ATOM     26  H   UNL     1       1.764  16.689  20.371  0.00  0.00    +0.000 HD
ENDBRANCH   2  25
TORSDOF 2
ENDMDL
MODEL 5
REMARK VINA RESULT:      -6.0      8.710     11.089
REMARK  Name = 
REMARK  7 active torsions:
REMARK  status: ('A' for Active; 'I' for Inactive)
REMARK    1  A    between atoms: C_1  and  C_2
REMARK    2  A    between atoms: C_2  and  C_3
REMARK    3  A    between atoms: C_2  and  C_4
REMARK    4  A    between atoms: C_5  and  O_6
REMARK    5  A    between atoms: C_14  and  C_15
REMARK    6  A    between atoms: C_14  and  C_16
REMARK    7  A    between atoms: C_23  and  C_24
REMARK                            x       y       z     vdW  Elec       q    Type
REMARK                         _______ _______ _______ _____ _____    ______ ____
ROOT
ATOM      1  C   UNL     1      10.731  12.915  19.051  0.00  0.00    +0.000 A 
ATOM      2  C   UNL     1      10.953  13.308  17.736  0.00  0.00    +0.000 A 
ATOM      3  C   UNL     1      10.368  14.481  17.255  0.00  0.00    +0.000 A 
ATOM      4  C   UNL     1       9.410  15.154  18.036  0.00  0.00    +0.000 A 
ATOM      5  C   UNL     1       9.276  14.815  19.378  0.00  0.00    +0.000 A 
ATOM      6  C   UNL     1      10.255  13.937  19.869  0.00  0.00    +0.000 A 
ATOM      7  C   UNL     1      11.136  14.602  20.931  0.00  0.00    +0.000 C 
ATOM      8  C   UNL     1      10.281  15.281  22.011  0.00  0.00    +0.000 C 
ATOM      9  C   UNL     1       8.817  14.835  21.834  0.00  0.00    +0.000 C 
ATOM     10  C   UNL     1       7.927  14.815  23.119  0.00  0.00    +0.000 C 
ATOM     11  C   UNL     1       8.355  13.550  23.931  0.00  0.00    +0.000 C 
ATOM     12  C   UNL     1       8.079  16.030  24.039  0.00  0.00    +0.000 C 
ATOM     13  C   UNL     1       6.504  14.657  22.679  0.00  0.00    +0.000 A 
ATOM     14  N   UNL     1       5.441  14.420  23.489  0.00  0.00    +0.000 N 
ATOM     15  N   UNL     1       4.285  14.281  22.822  0.00  0.00    +0.000 NA
ATOM     16  C   UNL     1       4.641  14.418  21.540  0.00  0.00    +0.000 A 
ATOM     17  C   UNL     1       6.011  14.656  21.392  0.00  0.00    +0.000 A 
ATOM     18  C   UNL     1       6.839  14.799  20.150  0.00  0.00    +0.000 C 
ATOM     19  C   UNL     1       8.273  15.377  20.422  0.00  0.00    +0.000 C 
ATOM     20  C   UNL     1       8.211  16.911  20.307  0.00  0.00    +0.000 C 
ATOM     21  H   UNL     1       5.432  14.313  24.499  0.00  0.00    +0.000 HD
ENDROOT
BRANCH   1  23
ATOM     22  C   UNL     1       9.650  11.213  20.714  0.00  0.00    +0.000 C 
ATOM     23  C   UNL     1      10.199  11.480  19.307  0.00  0.00    +0.000 C 
ATOM     24  C   UNL     1       9.097  11.123  18.285  0.00  0.00    +0.000 C 
ENDBRANCH   1  23
BRANCH   2  25
ATOM     25  O   UNL     1      11.622  12.540  16.831  0.00  0.00    +0.000 OA
ATOM     26  H   UNL     1      11.033  11.841  16.509  0.00  0.00    +0.000 HD
ENDBRANCH   2  25
TORSDOF 2
ENDMDL
MODEL 6
REMARK VINA RESULT:      -6.0      9.452     11.853
REMARK  Name = 
REMARK  7 active torsions:
REMARK  status: ('A' for Active; 'I' for Inactive)
REMARK    1  A    between atoms: C_1  and  C_2
REMARK    2  A    between atoms: C_2  and  C_3
REMARK    3  A    between atoms: C_2  and  C_4
REMARK    4  A    between atoms: C_5  and  O_6
REMARK    5  A    between atoms: C_14  and  C_15
REMARK    6  A    between atoms: C_14  and  C_16
REMARK    7  A    between atoms: C_23  and  C_24
REMARK                            x       y       z     vdW  Elec       q    Type
REMARK                         _______ _______ _______ _____ _____    ______ ____
ROOT
ATOM      1  C   UNL     1       0.006  12.619  21.757  0.00  0.00    +0.000 A 
ATOM      2  C   UNL     1       0.753  13.067  20.673  0.00  0.00    +0.000 A 
ATOM      3  C   UNL     1       0.176  13.935  19.745  0.00  0.00    +0.000 A 
ATOM      4  C   UNL     1      -1.204  14.201  19.803  0.00  0.00    +0.000 A 
ATOM      5  C   UNL     1      -1.913  13.838  20.942  0.00  0.00    +0.000 A 
ATOM      6  C   UNL     1      -1.125  13.390  22.015  0.00  0.00    +0.000 A 
ATOM      7  C   UNL     1      -1.205  14.336  23.216  0.00  0.00    +0.000 C 
ATOM      8  C   UNL     1      -2.664  14.647  23.577  0.00  0.00    +0.000 C 
ATOM      9  C   UNL     1      -3.582  13.686  22.796  0.00  0.00    +0.000 C 
ATOM     10  C   UNL     1      -4.956  13.335  23.453  0.00  0.00    +0.000 C 
ATOM     11  C   UNL     1      -4.649  12.322  24.603  0.00  0.00    +0.000 C 
ATOM     12  C   UNL     1      -5.709  14.519  24.067  0.00  0.00    +0.000 C 
ATOM     13  C   UNL     1      -5.793  12.657  22.412  0.00  0.00    +0.000 A 
ATOM     14  N   UNL     1      -6.983  12.041  22.624  0.00  0.00    +0.000 N 
ATOM     15  N   UNL     1      -7.496  11.479  21.518  0.00  0.00    +0.000 NA
ATOM     16  C   UNL     1      -6.580  11.739  20.578  0.00  0.00    +0.000 A 
ATOM     17  C   UNL     1      -5.499  12.471  21.079  0.00  0.00    +0.000 A 
ATOM     18  C   UNL     1      -4.234  12.913  20.404  0.00  0.00    +0.000 C 
ATOM     19  C   UNL     1      -3.433  13.985  21.225  0.00  0.00    +0.000 C 
ATOM     20  C   UNL     1      -3.907  15.384  20.792  0.00  0.00    +0.000 C 
ATOM     21  H   UNL     1      -7.491  11.938  23.497  0.00  0.00    +0.000 HD
ENDROOT
BRANCH   1  23
ATOM     22  C   UNL     1      -1.057  10.650  23.106  0.00  0.00    +0.000 C 
ATOM     23  C   UNL     1      -0.093  11.089  21.997  0.00  0.00    +0.000 C 
ATOM     24  C   UNL     1      -0.495  10.364  20.694  0.00  0.00    +0.000 C 
ENDBRANCH   1  23
BRANCH   2  25
ATOM     25  O   UNL     1       2.003  12.603  20.386  0.00  0.00    +0.000 OA
ATOM     26  H   UNL     1       1.945  11.672  20.124  0.00  0.00    +0.000 HD
ENDBRANCH   2  25
TORSDOF 2
ENDMDL
MODEL 7
REMARK VINA RESULT:      -5.9     10.051     12.367
REMARK  Name = 
REMARK  7 active torsions:
REMARK  status: ('A' for Active; 'I' for Inactive)
REMARK    1  A    between atoms: C_1  and  C_2
REMARK    2  A    between atoms: C_2  and  C_3
REMARK    3  A    between atoms: C_2  and  C_4
REMARK    4  A    between atoms: C_5  and  O_6
REMARK    5  A    between atoms: C_14  and  C_15
REMARK    6  A    between atoms: C_14  and  C_16
REMARK    7  A    between atoms: C_23  and  C_24
REMARK                            x       y       z     vdW  Elec       q    Type
REMARK                         _______ _______ _______ _____ _____    ______ ____
ROOT
ATOM      1  C   UNL     1      -1.516  11.848  20.545  0.00  0.00    +0.000 A 
ATOM      2  C   UNL     1      -1.475  11.175  19.329  0.00  0.00    +0.000 A 
ATOM      3  C   UNL     1      -2.544  11.288  18.438  0.00  0.00    +0.000 A 
ATOM      4  C   UNL     1      -3.731  11.922  18.850  0.00  0.00    +0.000 A 
ATOM      5  C   UNL     1      -3.722  12.676  20.017  0.00  0.00    +0.000 A 
ATOM      6  C   UNL     1      -2.454  12.877  20.585  0.00  0.00    +0.000 A 
ATOM      7  C   UNL     1      -2.041  14.352  20.554  0.00  0.00    +0.000 C 
ATOM      8  C   UNL     1      -3.150  15.246  21.127  0.00  0.00    +0.000 C 
ATOM      9  C   UNL     1      -4.204  14.351  21.807  0.00  0.00    +0.000 C 
ATOM     10  C   UNL     1      -5.009  14.985  22.989  0.00  0.00    +0.000 C 
ATOM     11  C   UNL     1      -4.041  15.010  24.216  0.00  0.00    +0.000 C 
ATOM     12  C   UNL     1      -5.496  16.418  22.753  0.00  0.00    +0.000 C 
ATOM     13  C   UNL     1      -6.160  14.076  23.289  0.00  0.00    +0.000 A 
ATOM     14  N   UNL     1      -6.995  14.173  24.354  0.00  0.00    +0.000 N 
ATOM     15  N   UNL     1      -7.916  13.197  24.399  0.00  0.00    +0.000 NA
ATOM     16  C   UNL     1      -7.635  12.448  23.327  0.00  0.00    +0.000 A 
ATOM     17  C   UNL     1      -6.551  12.949  22.598  0.00  0.00    +0.000 A 
ATOM     18  C   UNL     1      -5.861  12.397  21.387  0.00  0.00    +0.000 C 
ATOM     19  C   UNL     1      -4.901  13.427  20.693  0.00  0.00    +0.000 C 
ATOM     20  C   UNL     1      -5.701  14.200  19.629  0.00  0.00    +0.000 C 
ATOM     21  H   UNL     1      -6.980  14.857  25.104  0.00  0.00    +0.000 HD
ENDROOT
BRANCH   1  23
ATOM     22  C   UNL     1       0.173  10.687  22.167  0.00  0.00    +0.000 C 
ATOM     23  C   UNL     1      -1.286  11.030  21.844  0.00  0.00    +0.000 C 
ATOM     24  C   UNL     1      -1.889  11.767  23.059  0.00  0.00    +0.000 C 
ENDBRANCH   1  23
BRANCH   2  25
ATOM     25  O   UNL     1      -0.490  10.293  18.996  0.00  0.00    +0.000 OA
ATOM     26  H   UNL     1       0.237  10.373  19.634  0.00  0.00    +0.000 HD
ENDBRANCH   2  25
TORSDOF 2
ENDMDL
MODEL 8
REMARK VINA RESULT:      -5.7     10.379     11.969
REMARK  Name = 
REMARK  7 active torsions:
REMARK  status: ('A' for Active; 'I' for Inactive)
REMARK    1  A    between atoms: C_1  and  C_2
REMARK    2  A    between atoms: C_2  and  C_3
REMARK    3  A    between atoms: C_2  and  C_4
REMARK    4  A    between atoms: C_5  and  O_6
REMARK    5  A    between atoms: C_14  and  C_15
REMARK    6  A    between atoms: C_14  and  C_16
REMARK    7  A    between atoms: C_23  and  C_24
REMARK                            x       y       z     vdW  Elec       q    Type
REMARK                         _______ _______ _______ _____ _____    ______ ____
ROOT
ATOM      1  C   UNL     1      10.803  13.548  17.868  0.00  0.00    +0.000 A 
ATOM      2  C   UNL     1      11.396  12.297  17.999  0.00  0.00    +0.000 A 
ATOM      3  C   UNL     1      11.145  11.527  19.136  0.00  0.00    +0.000 A 
ATOM      4  C   UNL     1      10.453  12.093  20.223  0.00  0.00    +0.000 A 
ATOM      5  C   UNL     1       9.779  13.295  20.040  0.00  0.00    +0.000 A 
ATOM      6  C   UNL     1       9.712  13.742  18.711  0.00  0.00    +0.000 A 
ATOM      7  C   UNL     1       8.273  13.756  18.186  0.00  0.00    +0.000 C 
ATOM      8  C   UNL     1       7.338  14.488  19.158  0.00  0.00    +0.000 C 
ATOM      9  C   UNL     1       8.194  15.219  20.210  0.00  0.00    +0.000 C 
ATOM     10  C   UNL     1       7.580  16.511  20.843  0.00  0.00    +0.000 C 
ATOM     11  C   UNL     1       7.708  17.633  19.763  0.00  0.00    +0.000 C 
ATOM     12  C   UNL     1       6.103  16.409  21.233  0.00  0.00    +0.000 C 
ATOM     13  C   UNL     1       8.419  16.873  22.029  0.00  0.00    +0.000 A 
ATOM     14  N   UNL     1       8.330  18.021  22.747  0.00  0.00    +0.000 N 
ATOM     15  N   UNL     1       9.235  18.102  23.735  0.00  0.00    +0.000 NA
ATOM     16  C   UNL     1       9.931  16.966  23.621  0.00  0.00    +0.000 A 
ATOM     17  C   UNL     1       9.465  16.162  22.576  0.00  0.00    +0.000 A 
ATOM     18  C   UNL     1       9.987  14.856  22.053  0.00  0.00    +0.000 C 
ATOM     19  C   UNL     1       8.988  14.130  21.084  0.00  0.00    +0.000 C 
ATOM     20  C   UNL     1       8.089  13.199  21.918  0.00  0.00    +0.000 C 
ATOM     21  H   UNL     1       7.700  18.804  22.605  0.00  0.00    +0.000 HD
ENDROOT
BRANCH   1  23
ATOM     22  C   UNL     1      11.058  15.941  16.849  0.00  0.00    +0.000 C 
ATOM     23  C   UNL     1      11.720  14.767  17.581  0.00  0.00    +0.000 C 
ATOM     24  C   UNL     1      12.333  15.302  18.894  0.00  0.00    +0.000 C 
ENDBRANCH   1  23
BRANCH   2  25
ATOM     25  O   UNL     1      12.325  11.816  17.125  0.00  0.00    +0.000 OA
ATOM     26  H   UNL     1      12.941  11.237  17.600  0.00  0.00    +0.000 HD
ENDBRANCH   2  25
TORSDOF 2
ENDMDL
MODEL 9
REMARK VINA RESULT:      -5.7      8.908     11.182
REMARK  Name = 
REMARK  7 active torsions:
REMARK  status: ('A' for Active; 'I' for Inactive)
REMARK    1  A    between atoms: C_1  and  C_2
REMARK    2  A    between atoms: C_2  and  C_3
REMARK    3  A    between atoms: C_2  and  C_4
REMARK    4  A    between atoms: C_5  and  O_6
REMARK    5  A    between atoms: C_14  and  C_15
REMARK    6  A    between atoms: C_14  and  C_16
REMARK    7  A    between atoms: C_23  and  C_24
REMARK                            x       y       z     vdW  Elec       q    Type
REMARK                         _______ _______ _______ _____ _____    ______ ____
ROOT
ATOM      1  C   UNL     1       0.536  12.148  20.512  0.00  0.00    +0.000 A 
ATOM      2  C   UNL     1       1.111  12.603  19.331  0.00  0.00    +0.000 A 
ATOM      3  C   UNL     1       0.485  13.613  18.599  0.00  0.00    +0.000 A 
ATOM      4  C   UNL     1      -0.812  14.030  18.955  0.00  0.00    +0.000 A 
ATOM      5  C   UNL     1      -1.328  13.648  20.187  0.00  0.00    +0.000 A 
ATOM      6  C   UNL     1      -0.413  13.017  21.045  0.00  0.00    +0.000 A 
ATOM      7  C   UNL     1      -0.135  13.853  22.297  0.00  0.00    +0.000 C 
ATOM      8  C   UNL     1      -1.444  14.294  22.967  0.00  0.00    +0.000 C 
ATOM      9  C   UNL     1      -2.613  13.520  22.327  0.00  0.00    +0.000 C 
ATOM     10  C   UNL     1      -3.868  13.272  23.224  0.00  0.00    +0.000 C 
ATOM     11  C   UNL     1      -3.480  12.130  24.218  0.00  0.00    +0.000 C 
ATOM     12  C   UNL     1      -4.326  14.474  24.056  0.00  0.00    +0.000 C 
ATOM     13  C   UNL     1      -4.972  12.792  22.332  0.00  0.00    +0.000 A 
ATOM     14  N   UNL     1      -6.168  12.300  22.740  0.00  0.00    +0.000 N 
ATOM     15  N   UNL     1      -6.954  11.904  21.726  0.00  0.00    +0.000 NA
ATOM     16  C   UNL     1      -6.211  12.141  20.639  0.00  0.00    +0.000 A 
ATOM     17  C   UNL     1      -4.967  12.696  20.958  0.00  0.00    +0.000 A 
ATOM     18  C   UNL     1      -3.810  13.049  20.071  0.00  0.00    +0.000 C 
ATOM     19  C   UNL     1      -2.733  13.943  20.781  0.00  0.00    +0.000 C 
ATOM     20  C   UNL     1      -3.094  15.421  20.548  0.00  0.00    +0.000 C 
ATOM     21  H   UNL     1      -6.507  12.177  23.689  0.00  0.00    +0.000 HD
ENDROOT
BRANCH   1  23
ATOM     22  C   UNL     1      -0.256  10.171  22.026  0.00  0.00    +0.000 C 
ATOM     23  C   UNL     1       0.286  10.624  20.665  0.00  0.00    +0.000 C 
ATOM     24  C   UNL     1      -0.683  10.123  19.570  0.00  0.00    +0.000 C 
ENDBRANCH   1  23
BRANCH   2  25
ATOM     25  O   UNL     1       2.210  12.028  18.766  0.00  0.00    +0.000 OA
ATOM     26  H   UNL     1       1.937  11.248  18.260  0.00  0.00    +0.000 HD
ENDBRANCH   2  25
TORSDOF 2
ENDMDL
