MODEL 1
REMARK VINA RESULT:      -7.0      0.000      0.000
REMARK  Name = 
REMARK  6 active torsions:
REMARK  status: ('A' for Active; 'I' for Inactive)
REMARK    1  A    between atoms: C_1  and  C_2
REMARK    2  A    between atoms: C_4  and  C_5
REMARK    3  A    between atoms: C_5  and  O_6
REMARK    4  A    between atoms: O_6  and  C_7
REMARK    5  A    between atoms: C_7  and  C_8
REMARK    6  A    between atoms: N_14  and  C_15
REMARK                            x       y       z     vdW  Elec       q    Type
REMARK                         _______ _______ _______ _____ _____    ______ ____
ROOT
ATOM      1  C   UNL     1       3.881   5.828  18.101  0.00  0.00    +0.000 C 
ATOM      2  C   UNL     1       3.011   7.043  18.459  0.00  0.00    +0.000 C 
ATOM      3  C   UNL     1       2.337   6.648  19.756  0.00  0.00    +0.000 C 
ATOM      4  C   UNL     1       1.970   5.192  19.516  0.00  0.00    +0.000 C 
ATOM      5  C   UNL     1       3.150   4.589  18.719  0.00  0.00    +0.000 C 
ATOM      6  C   UNL     1       2.691   3.628  17.584  0.00  0.00    +0.000 C 
ATOM      7  N   UNL     1       2.207   2.300  18.009  0.00  0.00    +0.000 NA
ATOM      8  C   UNL     1       0.882   2.326  18.616  0.00  0.00    +0.000 C 
ATOM      9  C   UNL     1       3.214   1.707  18.905  0.00  0.00    +0.000 C 
ATOM     10  C   UNL     1       3.632   2.631  20.058  0.00  0.00    +0.000 C 
ATOM     11  O   UNL     1       4.069   3.915  19.605  0.00  0.00    +0.000 OA
ENDROOT
BRANCH   1  12
ATOM     12  C   UNL     1       5.320   5.983  18.605  0.00  0.00    +0.000 C 
BRANCH  12  13
ATOM     13  O   UNL     1       6.131   6.553  17.578  0.00  0.00    +0.000 OA
BRANCH  13  14
ATOM     14  C   UNL     1       7.151   5.632  17.171  0.00  0.00    +0.000 C 
BRANCH  14  18
ATOM     15  C   UNL     1       7.806   5.191  12.284  0.00  0.00    +0.000 C 
ATOM     16  C   UNL     1       7.237   4.924  13.628  0.00  0.00    +0.000 A 
ATOM     17  N   UNL     1       7.607   5.541  14.733  0.00  0.00    +0.000 NA
ATOM     18  C   UNL     1       6.883   5.059  15.817  0.00  0.00    +0.000 A 
ATOM     19  C   UNL     1       5.964   4.074  15.499  0.00  0.00    +0.000 A 
ATOM     20  S   UNL     1       6.006   3.740  13.823  0.00  0.00    +0.000 S 
ENDBRANCH  14  18
ENDBRANCH  13  14
ENDBRANCH  12  13
ENDBRANCH   1  12
TORSDOF 4
ENDMDL
MODEL 2
REMARK VINA RESULT:      -6.9      1.353      1.538
REMARK  Name = 
REMARK  6 active torsions:
REMARK  status: ('A' for Active; 'I' for Inactive)
REMARK    1  A    between atoms: C_1  and  C_2
REMARK    2  A    between atoms: C_4  and  C_5
REMARK    3  A    between atoms: C_5  and  O_6
REMARK    4  A    between atoms: O_6  and  C_7
REMARK    5  A    between atoms: C_7  and  C_8
REMARK    6  A    between atoms: N_14  and  C_15
REMARK                            x       y       z     vdW  Elec       q    Type
REMARK                         _______ _______ _______ _____ _____    ______ ____
ROOT
ATOM      1  C   UNL     1       4.054   5.691  17.443  0.00  0.00    +0.000 C 
ATOM      2  C   UNL     1       3.269   6.940  17.875  0.00  0.00    +0.000 C 
ATOM      3  C   UNL     1       2.821   6.626  19.286  0.00  0.00    +0.000 C 
ATOM      4  C   UNL     1       2.404   5.167  19.192  0.00  0.00    +0.000 C 
ATOM      5  C   UNL     1       3.427   4.500  18.243  0.00  0.00    +0.000 C 
ATOM      6  C   UNL     1       2.773   3.489  17.256  0.00  0.00    +0.000 C 
ATOM      7  N   UNL     1       2.354   2.196  17.829  0.00  0.00    +0.000 NA
ATOM      8  C   UNL     1       1.152   2.278  18.647  0.00  0.00    +0.000 C 
ATOM      9  C   UNL     1       3.493   1.632  18.574  0.00  0.00    +0.000 C 
ATOM     10  C   UNL     1       4.108   2.608  19.587  0.00  0.00    +0.000 C 
ATOM     11  O   UNL     1       4.475   3.857  18.997  0.00  0.00    +0.000 OA
ENDROOT
BRANCH   1  12
ATOM     12  C   UNL     1       5.560   5.846  17.688  0.00  0.00    +0.000 C 
BRANCH  12  13
ATOM     13  O   UNL     1       6.241   5.970  16.440  0.00  0.00    +0.000 OA
BRANCH  13  14
ATOM     14  C   UNL     1       6.806   4.713  16.046  0.00  0.00    +0.000 C 
BRANCH  14  18
ATOM     15  C   UNL     1       4.929   2.991  11.802  0.00  0.00    +0.000 C 
ATOM     16  C   UNL     1       5.861   3.709  12.706  0.00  0.00    +0.000 A 
ATOM     17  N   UNL     1       5.731   3.772  14.016  0.00  0.00    +0.000 NA
ATOM     18  C   UNL     1       6.767   4.520  14.564  0.00  0.00    +0.000 A 
ATOM     19  C   UNL     1       7.672   5.010  13.639  0.00  0.00    +0.000 A 
ATOM     20  S   UNL     1       7.224   4.534  12.059  0.00  0.00    +0.000 S 
ENDBRANCH  14  18
ENDBRANCH  13  14
ENDBRANCH  12  13
ENDBRANCH   1  12
TORSDOF 4
ENDMDL
MODEL 3
REMARK VINA RESULT:      -6.9      3.725      6.974
REMARK  Name = 
REMARK  6 active torsions:
REMARK  status: ('A' for Active; 'I' for Inactive)
REMARK    1  A    between atoms: C_1  and  C_2
REMARK    2  A    between atoms: C_4  and  C_5
REMARK    3  A    between atoms: C_5  and  O_6
REMARK    4  A    between atoms: O_6  and  C_7
REMARK    5  A    between atoms: C_7  and  C_8
REMARK    6  A    between atoms: N_14  and  C_15
REMARK                            x       y       z     vdW  Elec       q    Type
REMARK                         _______ _______ _______ _____ _____    ______ ____
ROOT
ATOM      1  C   UNL     1       3.049   5.401  18.168  0.00  0.00    +0.000 C 
ATOM      2  C   UNL     1       2.041   4.350  17.676  0.00  0.00    +0.000 C 
ATOM      3  C   UNL     1       2.885   3.121  17.414  0.00  0.00    +0.000 C 
ATOM      4  C   UNL     1       4.128   3.697  16.757  0.00  0.00    +0.000 C 
ATOM      5  C   UNL     1       4.411   5.028  17.492  0.00  0.00    +0.000 C 
ATOM      6  C   UNL     1       4.854   6.172  16.533  0.00  0.00    +0.000 C 
ATOM      7  N   UNL     1       6.230   6.088  16.007  0.00  0.00    +0.000 NA
ATOM      8  C   UNL     1       6.404   5.068  14.981  0.00  0.00    +0.000 C 
ATOM      9  C   UNL     1       7.146   5.891  17.143  0.00  0.00    +0.000 C 
ATOM     10  C   UNL     1       6.743   4.729  18.064  0.00  0.00    +0.000 C 
ATOM     11  O   UNL     1       5.396   4.836  18.529  0.00  0.00    +0.000 OA
ENDROOT
BRANCH   1  12
ATOM     12  C   UNL     1       3.135   5.442  19.698  0.00  0.00    +0.000 C 
BRANCH  12  13
ATOM     13  O   UNL     1       2.163   6.352  20.211  0.00  0.00    +0.000 OA
BRANCH  13  14
ATOM     14  C   UNL     1       2.167   7.573  19.460  0.00  0.00    +0.000 C 
BRANCH  14  18
ATOM     15  C   UNL     1      -0.282   9.646  23.229  0.00  0.00    +0.000 C 
ATOM     16  C   UNL     1       0.286   9.504  21.866  0.00  0.00    +0.000 A 
ATOM     17  N   UNL     1       0.981   8.464  21.450  0.00  0.00    +0.000 NA
ATOM     18  C   UNL     1       1.367   8.644  20.126  0.00  0.00    +0.000 A 
ATOM     19  C   UNL     1       0.944   9.836  19.563  0.00  0.00    +0.000 A 
ATOM     20  S   UNL     1       0.054  10.748  20.702  0.00  0.00    +0.000 S 
ENDBRANCH  14  18
ENDBRANCH  13  14
ENDBRANCH  12  13
ENDBRANCH   1  12
TORSDOF 4
ENDMDL
MODEL 4
REMARK VINA RESULT:      -6.8      2.102      2.916
REMARK  Name = 
REMARK  6 active torsions:
REMARK  status: ('A' for Active; 'I' for Inactive)
REMARK    1  A    between atoms: C_1  and  C_2
REMARK    2  A    between atoms: C_4  and  C_5
REMARK    3  A    between atoms: C_5  and  O_6
REMARK    4  A    between atoms: O_6  and  C_7
REMARK    5  A    between atoms: C_7  and  C_8
REMARK    6  A    between atoms: N_14  and  C_15
REMARK                            x       y       z     vdW  Elec       q    Type
REMARK                         _______ _______ _______ _____ _____    ______ ____
ROOT
ATOM      1  C   UNL     1       3.699   4.544  16.933  0.00  0.00    +0.000 C 
ATOM      2  C   UNL     1       3.979   6.054  16.989  0.00  0.00    +0.000 C 
ATOM      3  C   UNL     1       4.284   6.321  18.447  0.00  0.00    +0.000 C 
ATOM      4  C   UNL     1       3.254   5.468  19.170  0.00  0.00    +0.000 C 
ATOM      5  C   UNL     1       3.134   4.167  18.343  0.00  0.00    +0.000 C 
ATOM      6  C   UNL     1       1.667   3.665  18.206  0.00  0.00    +0.000 C 
ATOM      7  N   UNL     1       1.074   3.042  19.404  0.00  0.00    +0.000 NA
ATOM      8  C   UNL     1       0.722   3.996  20.448  0.00  0.00    +0.000 C 
ATOM      9  C   UNL     1       2.002   2.008  19.892  0.00  0.00    +0.000 C 
ATOM     10  C   UNL     1       3.440   2.510  20.080  0.00  0.00    +0.000 C 
ATOM     11  O   UNL     1       3.966   3.130  18.904  0.00  0.00    +0.000 OA
ENDROOT
BRANCH   1  12
ATOM     12  C   UNL     1       4.951   3.741  16.559  0.00  0.00    +0.000 C 
BRANCH  12  13
ATOM     13  O   UNL     1       5.539   4.287  15.379  0.00  0.00    +0.000 OA
BRANCH  13  14
ATOM     14  C   UNL     1       6.960   4.400  15.529  0.00  0.00    +0.000 C 
BRANCH  14  18
ATOM     15  C   UNL     1       7.965   8.654  17.852  0.00  0.00    +0.000 C 
ATOM     16  C   UNL     1       7.773   7.194  17.672  0.00  0.00    +0.000 A 
ATOM     17  N   UNL     1       7.433   6.619  16.535  0.00  0.00    +0.000 NA
ATOM     18  C   UNL     1       7.336   5.242  16.705  0.00  0.00    +0.000 A 
ATOM     19  C   UNL     1       7.612   4.802  17.987  0.00  0.00    +0.000 A 
ATOM     20  S   UNL     1       7.997   6.125  19.000  0.00  0.00    +0.000 S 
ENDBRANCH  14  18
ENDBRANCH  13  14
ENDBRANCH  12  13
ENDBRANCH   1  12
TORSDOF 4
ENDMDL
MODEL 5
REMARK VINA RESULT:      -6.5      4.101      6.998
REMARK  Name = 
REMARK  6 active torsions:
REMARK  status: ('A' for Active; 'I' for Inactive)
REMARK    1  A    between atoms: C_1  and  C_2
REMARK    2  A    between atoms: C_4  and  C_5
REMARK    3  A    between atoms: C_5  and  O_6
REMARK    4  A    between atoms: O_6  and  C_7
REMARK    5  A    between atoms: C_7  and  C_8
REMARK    6  A    between atoms: N_14  and  C_15
REMARK                            x       y       z     vdW  Elec       q    Type
REMARK                         _______ _______ _______ _____ _____    ______ ____
ROOT
ATOM      1  C   UNL     1       2.851   5.672  18.090  0.00  0.00    +0.000 C 
ATOM      2  C   UNL     1       2.045   4.428  17.685  0.00  0.00    +0.000 C 
ATOM      3  C   UNL     1       3.028   3.285  17.834  0.00  0.00    +0.000 C 
ATOM      4  C   UNL     1       4.313   3.870  17.271  0.00  0.00    +0.000 C 
ATOM      5  C   UNL     1       4.340   5.345  17.735  0.00  0.00    +0.000 C 
ATOM      6  C   UNL     1       4.845   6.322  16.632  0.00  0.00    +0.000 C 
ATOM      7  N   UNL     1       6.295   6.307  16.361  0.00  0.00    +0.000 NA
ATOM      8  C   UNL     1       6.742   5.133  15.622  0.00  0.00    +0.000 C 
ATOM      9  C   UNL     1       7.005   6.455  17.643  0.00  0.00    +0.000 C 
ATOM     10  C   UNL     1       6.548   5.459  18.718  0.00  0.00    +0.000 C 
ATOM     11  O   UNL     1       5.134   5.487  18.931  0.00  0.00    +0.000 OA
ENDROOT
BRANCH   1  12
ATOM     12  C   UNL     1       2.655   6.027  19.569  0.00  0.00    +0.000 C 
BRANCH  12  13
ATOM     13  O   UNL     1       2.254   7.391  19.688  0.00  0.00    +0.000 OA
BRANCH  13  14
ATOM     14  C   UNL     1       1.510   7.595  20.896  0.00  0.00    +0.000 C 
BRANCH  14  18
ATOM     15  C   UNL     1       0.083  11.946  19.016  0.00  0.00    +0.000 C 
ATOM     16  C   UNL     1       0.281  10.881  20.029  0.00  0.00    +0.000 A 
ATOM     17  N   UNL     1       0.862   9.722  19.792  0.00  0.00    +0.000 NA
ATOM     18  C   UNL     1       0.889   8.953  20.951  0.00  0.00    +0.000 A 
ATOM     19  C   UNL     1       0.320   9.562  22.055  0.00  0.00    +0.000 A 
ATOM     20  S   UNL     1      -0.261  11.116  21.644  0.00  0.00    +0.000 S 
ENDBRANCH  14  18
ENDBRANCH  13  14
ENDBRANCH  12  13
ENDBRANCH   1  12
TORSDOF 4
ENDMDL
MODEL 6
REMARK VINA RESULT:      -6.4      3.688      6.659
REMARK  Name = 
REMARK  6 active torsions:
REMARK  status: ('A' for Active; 'I' for Inactive)
REMARK    1  A    between atoms: C_1  and  C_2
REMARK    2  A    between atoms: C_4  and  C_5
REMARK    3  A    between atoms: C_5  and  O_6
REMARK    4  A    between atoms: O_6  and  C_7
REMARK    5  A    between atoms: C_7  and  C_8
REMARK    6  A    between atoms: N_14  and  C_15
REMARK                            x       y       z     vdW  Elec       q    Type
REMARK                         _______ _______ _______ _____ _____    ______ ____
ROOT
ATOM      1  C   UNL     1       2.965   5.471  17.973  0.00  0.00    +0.000 C 
ATOM      2  C   UNL     1       2.107   4.280  17.518  0.00  0.00    +0.000 C 
ATOM      3  C   UNL     1       3.056   3.101  17.561  0.00  0.00    +0.000 C 
ATOM      4  C   UNL     1       4.341   3.681  16.994  0.00  0.00    +0.000 C 
ATOM      5  C   UNL     1       4.431   5.122  17.548  0.00  0.00    +0.000 C 
ATOM      6  C   UNL     1       4.933   6.150  16.493  0.00  0.00    +0.000 C 
ATOM      7  N   UNL     1       6.372   6.108  16.173  0.00  0.00    +0.000 NA
ATOM      8  C   UNL     1       6.757   4.971  15.347  0.00  0.00    +0.000 C 
ATOM      9  C   UNL     1       7.127   6.153  17.437  0.00  0.00    +0.000 C 
ATOM     10  C   UNL     1       6.671   5.104  18.463  0.00  0.00    +0.000 C 
ATOM     11  O   UNL     1       5.267   5.162  18.724  0.00  0.00    +0.000 OA
ENDROOT
BRANCH   1  12
ATOM     12  C   UNL     1       2.828   5.736  19.477  0.00  0.00    +0.000 C 
BRANCH  12  13
ATOM     13  O   UNL     1       2.686   7.137  19.708  0.00  0.00    +0.000 OA
BRANCH  13  14
ATOM     14  C   UNL     1       2.072   7.776  18.581  0.00  0.00    +0.000 C 
BRANCH  14  18
ATOM     15  C   UNL     1      -0.317  11.089  21.376  0.00  0.00    +0.000 C 
ATOM     16  C   UNL     1       0.463  10.558  20.231  0.00  0.00    +0.000 A 
ATOM     17  N   UNL     1       0.839   9.302  20.101  0.00  0.00    +0.000 NA
ATOM     18  C   UNL     1       1.553   9.135  18.919  0.00  0.00    +0.000 A 
ATOM     19  C   UNL     1       1.699  10.290  18.170  0.00  0.00    +0.000 A 
ATOM     20  S   UNL     1       0.937  11.606  18.952  0.00  0.00    +0.000 S 
ENDBRANCH  14  18
ENDBRANCH  13  14
ENDBRANCH  12  13
ENDBRANCH   1  12
TORSDOF 4
ENDMDL
MODEL 7
REMARK VINA RESULT:      -6.3      6.829      9.629
REMARK  Name = 
REMARK  6 active torsions:
REMARK  status: ('A' for Active; 'I' for Inactive)
REMARK    1  A    between atoms: C_1  and  C_2
REMARK    2  A    between atoms: C_4  and  C_5
REMARK    3  A    between atoms: C_5  and  O_6
REMARK    4  A    between atoms: O_6  and  C_7
REMARK    5  A    between atoms: C_7  and  C_8
REMARK    6  A    between atoms: N_14  and  C_15
REMARK                            x       y       z     vdW  Elec       q    Type
REMARK                         _______ _______ _______ _____ _____    ______ ____
ROOT
ATOM      1  C   UNL     1      10.170  11.100  19.134  0.00  0.00    +0.000 C 
ATOM      2  C   UNL     1       9.863  10.789  20.607  0.00  0.00    +0.000 C 
ATOM      3  C   UNL     1       9.237  12.064  21.132  0.00  0.00    +0.000 C 
ATOM      4  C   UNL     1      10.093  13.147  20.497  0.00  0.00    +0.000 C 
ATOM      5  C   UNL     1      10.413  12.645  19.069  0.00  0.00    +0.000 C 
ATOM      6  C   UNL     1      11.881  12.930  18.637  0.00  0.00    +0.000 C 
ATOM      7  N   UNL     1      12.200  14.329  18.293  0.00  0.00    +0.000 NA
ATOM      8  C   UNL     1      12.298  15.210  19.450  0.00  0.00    +0.000 C 
ATOM      9  C   UNL     1      11.202  14.803  17.320  0.00  0.00    +0.000 C 
ATOM     10  C   UNL     1       9.751  14.572  17.765  0.00  0.00    +0.000 C 
ATOM     11  O   UNL     1       9.491  13.210  18.114  0.00  0.00    +0.000 OA
ENDROOT
BRANCH   1  12
ATOM     12  C   UNL     1       9.045  10.634  18.202  0.00  0.00    +0.000 C 
BRANCH  12  13
ATOM     13  O   UNL     1       8.677   9.293  18.522  0.00  0.00    +0.000 OA
BRANCH  13  14
ATOM     14  C   UNL     1       7.632   8.835  17.655  0.00  0.00    +0.000 C 
BRANCH  14  18
ATOM     15  C   UNL     1       6.687   4.442  15.578  0.00  0.00    +0.000 C 
ATOM     16  C   UNL     1       7.090   5.414  16.624  0.00  0.00    +0.000 A 
ATOM     17  N   UNL     1       7.113   6.722  16.460  0.00  0.00    +0.000 NA
ATOM     18  C   UNL     1       7.537   7.344  17.630  0.00  0.00    +0.000 A 
ATOM     19  C   UNL     1       7.826   6.476  18.668  0.00  0.00    +0.000 A 
ATOM     20  S   UNL     1       7.569   4.858  18.179  0.00  0.00    +0.000 S 
ENDBRANCH  14  18
ENDBRANCH  13  14
ENDBRANCH  12  13
ENDBRANCH   1  12
TORSDOF 4
ENDMDL
MODEL 8
REMARK VINA RESULT:      -6.3      4.040      6.710
REMARK  Name = 
REMARK  6 active torsions:
REMARK  status: ('A' for Active; 'I' for Inactive)
REMARK    1  A    between atoms: C_1  and  C_2
REMARK    2  A    between atoms: C_4  and  C_5
REMARK    3  A    between atoms: C_5  and  O_6
REMARK    4  A    between atoms: O_6  and  C_7
REMARK    5  A    between atoms: C_7  and  C_8
REMARK    6  A    between atoms: N_14  and  C_15
REMARK                            x       y       z     vdW  Elec       q    Type
REMARK                         _______ _______ _______ _____ _____    ______ ____
ROOT
ATOM      1  C   UNL     1       3.010   6.062  17.987  0.00  0.00    +0.000 C 
ATOM      2  C   UNL     1       2.056   4.882  17.747  0.00  0.00    +0.000 C 
ATOM      3  C   UNL     1       2.922   3.657  17.951  0.00  0.00    +0.000 C 
ATOM      4  C   UNL     1       4.223   4.046  17.266  0.00  0.00    +0.000 C 
ATOM      5  C   UNL     1       4.432   5.545  17.585  0.00  0.00    +0.000 C 
ATOM      6  C   UNL     1       4.963   6.358  16.368  0.00  0.00    +0.000 C 
ATOM      7  N   UNL     1       6.384   6.161  16.021  0.00  0.00    +0.000 NA
ATOM      8  C   UNL     1       6.658   4.884  15.374  0.00  0.00    +0.000 C 
ATOM      9  C   UNL     1       7.186   6.345  17.243  0.00  0.00    +0.000 C 
ATOM     10  C   UNL     1       6.698   5.504  18.432  0.00  0.00    +0.000 C 
ATOM     11  O   UNL     1       5.311   5.705  18.717  0.00  0.00    +0.000 OA
ENDROOT
BRANCH   1  12
ATOM     12  C   UNL     1       2.947   6.567  19.433  0.00  0.00    +0.000 C 
BRANCH  12  13
ATOM     13  O   UNL     1       1.964   7.595  19.543  0.00  0.00    +0.000 OA
BRANCH  13  14
ATOM     14  C   UNL     1       2.099   8.539  18.473  0.00  0.00    +0.000 C 
BRANCH  14  18
ATOM     15  C   UNL     1      -2.240  10.690  17.450  0.00  0.00    +0.000 C 
ATOM     16  C   UNL     1      -0.890  10.522  18.043  0.00  0.00    +0.000 A 
ATOM     17  N   UNL     1      -0.118   9.471  17.859  0.00  0.00    +0.000 NA
ATOM     18  C   UNL     1       1.078   9.627  18.551  0.00  0.00    +0.000 A 
ATOM     19  C   UNL     1       1.182  10.815  19.252  0.00  0.00    +0.000 A 
ATOM     20  S   UNL     1      -0.233  11.753  19.048  0.00  0.00    +0.000 S 
ENDBRANCH  14  18
ENDBRANCH  13  14
ENDBRANCH  12  13
ENDBRANCH   1  12
TORSDOF 4
ENDMDL
MODEL 9
REMARK VINA RESULT:      -6.3      4.182      6.799
REMARK  Name = 
REMARK  6 active torsions:
REMARK  status: ('A' for Active; 'I' for Inactive)
REMARK    1  A    between atoms: C_1  and  C_2
REMARK    2  A    between atoms: C_4  and  C_5
REMARK    3  A    between atoms: C_5  and  O_6
REMARK    4  A    between atoms: O_6  and  C_7
REMARK    5  A    between atoms: C_7  and  C_8
REMARK    6  A    between atoms: N_14  and  C_15
REMARK                            x       y       z     vdW  Elec       q    Type
REMARK                         _______ _______ _______ _____ _____    ______ ____
ROOT
ATOM      1  C   UNL     1       4.022   6.577  18.125  0.00  0.00    +0.000 C 
ATOM      2  C   UNL     1       5.234   6.602  17.180  0.00  0.00    +0.000 C 
ATOM      3  C   UNL     1       4.960   5.485  16.196  0.00  0.00    +0.000 C 
ATOM      4  C   UNL     1       4.409   4.380  17.084  0.00  0.00    +0.000 C 
ATOM      5  C   UNL     1       3.527   5.092  18.137  0.00  0.00    +0.000 C 
ATOM      6  C   UNL     1       3.685   4.496  19.566  0.00  0.00    +0.000 C 
ATOM      7  N   UNL     1       3.040   3.190  19.804  0.00  0.00    +0.000 NA
ATOM      8  C   UNL     1       3.737   2.070  19.187  0.00  0.00    +0.000 C 
ATOM      9  C   UNL     1       1.638   3.281  19.360  0.00  0.00    +0.000 C 
ATOM     10  C   UNL     1       1.480   3.819  17.931  0.00  0.00    +0.000 C 
ATOM     11  O   UNL     1       2.141   5.071  17.736  0.00  0.00    +0.000 OA
ENDROOT
BRANCH   1  12
ATOM     12  C   UNL     1       2.933   7.564  17.690  0.00  0.00    +0.000 C 
BRANCH  12  13
ATOM     13  O   UNL     1       2.339   8.164  18.840  0.00  0.00    +0.000 OA
BRANCH  13  14
ATOM     14  C   UNL     1       1.474   9.241  18.458  0.00  0.00    +0.000 C 
BRANCH  14  18
ATOM     15  C   UNL     1       0.043   9.472  23.191  0.00  0.00    +0.000 C 
ATOM     16  C   UNL     1       0.190   9.885  21.774  0.00  0.00    +0.000 A 
ATOM     17  N   UNL     1       0.843   9.197  20.858  0.00  0.00    +0.000 NA
ATOM     18  C   UNL     1       0.792   9.858  19.636  0.00  0.00    +0.000 A 
ATOM     19  C   UNL     1       0.086  11.049  19.657  0.00  0.00    +0.000 A 
ATOM     20  S   UNL     1      -0.521  11.352  21.226  0.00  0.00    +0.000 S 
ENDBRANCH  14  18
ENDBRANCH  13  14
ENDBRANCH  12  13
ENDBRANCH   1  12
TORSDOF 4
ENDMDL
