MODEL 1
REMARK VINA RESULT:      -7.1      0.000      0.000
REMARK  Name = 
REMARK  5 active torsions:
REMARK  status: ('A' for Active; 'I' for Inactive)
REMARK    1  A    between atoms: C_2  and  C_4
REMARK    2  A    between atoms: C_9  and  N_10
REMARK    3  A    between atoms: N_17  and  C_18
REMARK    4  A    between atoms: C_18  and  C_19
REMARK    5  A    between atoms: C_19  and  C_20
REMARK                            x       y       z     vdW  Elec       q    Type
REMARK                         _______ _______ _______ _____ _____    ______ ____
ROOT
ATOM      1  N   UNL     1       3.881   6.006  17.712  0.00  0.00    +0.000 N 
ATOM      2  C   UNL     1       2.572   5.389  17.541  0.00  0.00    +0.000 C 
ATOM      3  C   UNL     1       1.578   6.433  18.050  0.00  0.00    +0.000 C 
ATOM      4  C   UNL     1       2.412   7.682  18.428  0.00  0.00    +0.000 C 
ATOM      5  C   UNL     1       2.663   7.765  19.942  0.00  0.00    +0.000 C 
ATOM      6  C   UNL     1       1.375   8.086  20.693  0.00  0.00    +0.000 C 
ATOM      7  C   UNL     1       0.709   9.347  20.140  0.00  0.00    +0.000 C 
ATOM      8  N   UNL     1       0.489   9.267  18.686  0.00  0.00    +0.000 NA
ATOM      9  C   UNL     1       1.738   8.974  17.966  0.00  0.00    +0.000 C 
ATOM     10  C   UNL     1       3.738   7.462  17.675  0.00  0.00    +0.000 C 
ENDROOT
BRANCH   1  16
ATOM     11  C   UNL     1       6.036   4.849  17.617  0.00  0.00    +0.000 A 
ATOM     12  C   UNL     1       7.153   4.485  16.849  0.00  0.00    +0.000 A 
ATOM     13  C   UNL     1       7.140   4.709  15.479  0.00  0.00    +0.000 A 
ATOM     14  C   UNL     1       6.000   5.256  14.926  0.00  0.00    +0.000 A 
ATOM     15  N   UNL     1       4.922   5.639  15.641  0.00  0.00    +0.000 NA
ATOM     16  C   UNL     1       4.953   5.488  16.986  0.00  0.00    +0.000 A 
BRANCH  11  18
ATOM     17  N   UNL     1       5.410   3.315  19.407  0.00  0.00    +0.000 N 
ATOM     18  C   UNL     1       6.041   4.469  19.052  0.00  0.00    +0.000 C 
ATOM     19  O   UNL     1       6.650   5.132  19.897  0.00  0.00    +0.000 OA
ATOM     20  H   UNL     1       5.432   3.017  20.370  0.00  0.00    +0.000 HD
ATOM     21  H   UNL     1       4.968   2.722  18.706  0.00  0.00    +0.000 HD
ENDBRANCH  11  18
ENDBRANCH   1  16
BRANCH   8  22
ATOM     22  C   UNL     1      -0.098  10.527  18.184  0.00  0.00    +0.000 C 
BRANCH  22  23
ATOM     23  C   UNL     1      -1.587  10.679  18.535  0.00  0.00    +0.000 C 
BRANCH  23  24
ATOM     24  C   UNL     1      -2.514   9.689  17.797  0.00  0.00    +0.000 C 
ATOM     25  C   UNL     1      -3.998   9.895  18.134  0.00  0.00    +0.000 C 
ATOM     26  C   UNL     1      -4.546  11.207  17.581  0.00  0.00    +0.000 C 
ATOM     27  C   UNL     1      -4.287  11.336  16.082  0.00  0.00    +0.000 C 
ATOM     28  C   UNL     1      -2.821  11.121  15.718  0.00  0.00    +0.000 C 
ATOM     29  C   UNL     1      -2.301   9.797  16.280  0.00  0.00    +0.000 C 
ENDBRANCH  23  24
ENDBRANCH  22  23
ENDBRANCH   8  22
TORSDOF 5
ENDMDL
MODEL 2
REMARK VINA RESULT:      -6.7      3.870      9.401
REMARK  Name = 
REMARK  5 active torsions:
REMARK  status: ('A' for Active; 'I' for Inactive)
REMARK    1  A    between atoms: C_2  and  C_4
REMARK    2  A    between atoms: C_9  and  N_10
REMARK    3  A    between atoms: N_17  and  C_18
REMARK    4  A    between atoms: C_18  and  C_19
REMARK    5  A    between atoms: C_19  and  C_20
REMARK                            x       y       z     vdW  Elec       q    Type
REMARK                         _______ _______ _______ _____ _____    ______ ____
ROOT
ATOM      1  N   UNL     1      -2.449  11.597  19.096  0.00  0.00    +0.000 N 
ATOM      2  C   UNL     1      -1.369  12.572  19.000  0.00  0.00    +0.000 C 
ATOM      3  C   UNL     1      -0.087  11.748  19.131  0.00  0.00    +0.000 C 
ATOM      4  C   UNL     1      -0.527  10.266  19.220  0.00  0.00    +0.000 C 
ATOM      5  C   UNL     1      -0.529   9.756  20.669  0.00  0.00    +0.000 C 
ATOM      6  C   UNL     1       0.892   9.628  21.206  0.00  0.00    +0.000 C 
ATOM      7  C   UNL     1       1.759   8.769  20.284  0.00  0.00    +0.000 C 
ATOM      8  N   UNL     1       1.741   9.254  18.893  0.00  0.00    +0.000 NA
ATOM      9  C   UNL     1       0.367   9.359  18.376  0.00  0.00    +0.000 C 
ATOM     10  C   UNL     1      -1.961  10.290  18.656  0.00  0.00    +0.000 C 
ENDROOT
BRANCH   1  16
ATOM     11  C   UNL     1      -4.663  12.580  19.447  0.00  0.00    +0.000 A 
ATOM     12  C   UNL     1      -5.961  12.784  18.954  0.00  0.00    +0.000 A 
ATOM     13  C   UNL     1      -6.256  12.426  17.646  0.00  0.00    +0.000 A 
ATOM     14  C   UNL     1      -5.237  11.911  16.872  0.00  0.00    +0.000 A 
ATOM     15  N   UNL     1      -3.987  11.681  17.325  0.00  0.00    +0.000 NA
ATOM     16  C   UNL     1      -3.708  11.962  18.620  0.00  0.00    +0.000 A 
BRANCH  11  18
ATOM     17  N   UNL     1      -4.751  12.353  21.874  0.00  0.00    +0.000 N 
ATOM     18  C   UNL     1      -4.359  13.100  20.805  0.00  0.00    +0.000 C 
ATOM     19  O   UNL     1      -3.714  14.140  20.972  0.00  0.00    +0.000 OA
ATOM     20  H   UNL     1      -4.522  12.667  22.805  0.00  0.00    +0.000 HD
ATOM     21  H   UNL     1      -5.218  11.457  21.745  0.00  0.00    +0.000 HD
ENDBRANCH  11  18
ENDBRANCH   1  16
BRANCH   8  22
ATOM     22  C   UNL     1       2.539   8.362  18.027  0.00  0.00    +0.000 C 
BRANCH  22  23
ATOM     23  C   UNL     1       2.031   6.911  18.028  0.00  0.00    +0.000 C 
BRANCH  23  24
ATOM     24  C   UNL     1       3.079   5.875  18.489  0.00  0.00    +0.000 C 
ATOM     25  C   UNL     1       2.899   5.454  19.955  0.00  0.00    +0.000 C 
ATOM     26  C   UNL     1       1.629   4.636  20.176  0.00  0.00    +0.000 C 
ATOM     27  C   UNL     1       1.564   3.436  19.233  0.00  0.00    +0.000 C 
ATOM     28  C   UNL     1       1.754   3.826  17.771  0.00  0.00    +0.000 C 
ATOM     29  C   UNL     1       3.036   4.639  17.578  0.00  0.00    +0.000 C 
ENDBRANCH  23  24
ENDBRANCH  22  23
ENDBRANCH   8  22
TORSDOF 5
ENDMDL
MODEL 3
REMARK VINA RESULT:      -6.7      3.544      9.649
REMARK  Name = 
REMARK  5 active torsions:
REMARK  status: ('A' for Active; 'I' for Inactive)
REMARK    1  A    between atoms: C_2  and  C_4
REMARK    2  A    between atoms: C_9  and  N_10
REMARK    3  A    between atoms: N_17  and  C_18
REMARK    4  A    between atoms: C_18  and  C_19
REMARK    5  A    between atoms: C_19  and  C_20
REMARK                            x       y       z     vdW  Elec       q    Type
REMARK                         _______ _______ _______ _____ _____    ______ ____
ROOT
ATOM      1  N   UNL     1      -2.356  11.491  19.046  0.00  0.00    +0.000 N 
ATOM      2  C   UNL     1      -1.266  12.457  18.998  0.00  0.00    +0.000 C 
ATOM      3  C   UNL     1       0.007  11.614  19.083  0.00  0.00    +0.000 C 
ATOM      4  C   UNL     1      -0.450  10.134  19.094  0.00  0.00    +0.000 C 
ATOM      5  C   UNL     1      -0.454   9.548  20.514  0.00  0.00    +0.000 C 
ATOM      6  C   UNL     1       0.967   9.376  21.040  0.00  0.00    +0.000 C 
ATOM      7  C   UNL     1       1.822   8.559  20.072  0.00  0.00    +0.000 C 
ATOM      8  N   UNL     1       1.807   9.116  18.709  0.00  0.00    +0.000 NA
ATOM      9  C   UNL     1       0.433   9.263  18.201  0.00  0.00    +0.000 C 
ATOM     10  C   UNL     1      -1.884  10.203  18.536  0.00  0.00    +0.000 C 
ENDROOT
BRANCH   1  16
ATOM     11  C   UNL     1      -4.554  12.491  19.451  0.00  0.00    +0.000 A 
ATOM     12  C   UNL     1      -5.851  12.734  18.975  0.00  0.00    +0.000 A 
ATOM     13  C   UNL     1      -6.159  12.436  17.654  0.00  0.00    +0.000 A 
ATOM     14  C   UNL     1      -5.152  11.939  16.854  0.00  0.00    +0.000 A 
ATOM     15  N   UNL     1      -3.903  11.671  17.290  0.00  0.00    +0.000 NA
ATOM     16  C   UNL     1      -3.612  11.893  18.593  0.00  0.00    +0.000 A 
BRANCH  11  18
ATOM     17  N   UNL     1      -3.707  14.196  20.976  0.00  0.00    +0.000 N 
ATOM     18  C   UNL     1      -4.234  12.949  20.827  0.00  0.00    +0.000 C 
ATOM     19  O   UNL     1      -4.495  12.259  21.817  0.00  0.00    +0.000 OA
ATOM     20  H   UNL     1      -3.517  14.543  21.904  0.00  0.00    +0.000 HD
ATOM     21  H   UNL     1      -3.557  14.802  20.171  0.00  0.00    +0.000 HD
ENDBRANCH  11  18
ENDBRANCH   1  16
BRANCH   8  22
ATOM     22  C   UNL     1       2.593   8.262  17.794  0.00  0.00    +0.000 C 
BRANCH  22  23
ATOM     23  C   UNL     1       2.779   6.830  18.320  0.00  0.00    +0.000 C 
BRANCH  23  24
ATOM     24  C   UNL     1       3.685   5.945  17.436  0.00  0.00    +0.000 C 
ATOM     25  C   UNL     1       5.159   5.981  17.867  0.00  0.00    +0.000 C 
ATOM     26  C   UNL     1       5.390   5.303  19.215  0.00  0.00    +0.000 C 
ATOM     27  C   UNL     1       4.834   3.881  19.230  0.00  0.00    +0.000 C 
ATOM     28  C   UNL     1       3.374   3.816  18.793  0.00  0.00    +0.000 C 
ATOM     29  C   UNL     1       3.173   4.497  17.438  0.00  0.00    +0.000 C 
ENDBRANCH  23  24
ENDBRANCH  22  23
ENDBRANCH   8  22
TORSDOF 5
ENDMDL
MODEL 4
REMARK VINA RESULT:      -6.7      3.472      9.493
REMARK  Name = 
REMARK  5 active torsions:
REMARK  status: ('A' for Active; 'I' for Inactive)
REMARK    1  A    between atoms: C_2  and  C_4
REMARK    2  A    between atoms: C_9  and  N_10
REMARK    3  A    between atoms: N_17  and  C_18
REMARK    4  A    between atoms: C_18  and  C_19
REMARK    5  A    between atoms: C_19  and  C_20
REMARK                            x       y       z     vdW  Elec       q    Type
REMARK                         _______ _______ _______ _____ _____    ______ ____
ROOT
ATOM      1  N   UNL     1      -2.291  11.406  18.940  0.00  0.00    +0.000 N 
ATOM      2  C   UNL     1      -1.209  12.383  18.931  0.00  0.00    +0.000 C 
ATOM      3  C   UNL     1       0.069  11.550  19.041  0.00  0.00    +0.000 C 
ATOM      4  C   UNL     1      -0.374  10.067  19.026  0.00  0.00    +0.000 C 
ATOM      5  C   UNL     1      -0.411   9.466  20.440  0.00  0.00    +0.000 C 
ATOM      6  C   UNL     1       0.997   9.302  21.002  0.00  0.00    +0.000 C 
ATOM      7  C   UNL     1       1.886   8.502  20.049  0.00  0.00    +0.000 C 
ATOM      8  N   UNL     1       1.902   9.073  18.691  0.00  0.00    +0.000 NA
ATOM      9  C   UNL     1       0.541   9.212  18.149  0.00  0.00    +0.000 C 
ATOM     10  C   UNL     1      -1.793  10.128  18.431  0.00  0.00    +0.000 C 
ENDROOT
BRANCH   1  16
ATOM     11  C   UNL     1      -4.482  12.445  19.281  0.00  0.00    +0.000 A 
ATOM     12  C   UNL     1      -5.772  12.681  18.781  0.00  0.00    +0.000 A 
ATOM     13  C   UNL     1      -6.070  12.330  17.471  0.00  0.00    +0.000 A 
ATOM     14  C   UNL     1      -5.060  11.790  16.702  0.00  0.00    +0.000 A 
ATOM     15  N   UNL     1      -3.819  11.528  17.162  0.00  0.00    +0.000 NA
ATOM     16  C   UNL     1      -3.538  11.802  18.458  0.00  0.00    +0.000 A 
BRANCH  11  18
ATOM     17  N   UNL     1      -3.665  14.216  20.744  0.00  0.00    +0.000 N 
ATOM     18  C   UNL     1      -4.172  12.956  20.639  0.00  0.00    +0.000 C 
ATOM     19  O   UNL     1      -4.422  12.297  21.654  0.00  0.00    +0.000 OA
ATOM     20  H   UNL     1      -3.482  14.600  21.659  0.00  0.00    +0.000 HD
ATOM     21  H   UNL     1      -3.525  14.796  19.918  0.00  0.00    +0.000 HD
ENDBRANCH  11  18
ENDBRANCH   1  16
BRANCH   8  22
ATOM     22  C   UNL     1       2.720   8.235  17.790  0.00  0.00    +0.000 C 
BRANCH  22  23
ATOM     23  C   UNL     1       2.563   6.730  18.061  0.00  0.00    +0.000 C 
BRANCH  23  24
ATOM     24  C   UNL     1       3.852   6.042  18.562  0.00  0.00    +0.000 C 
ATOM     25  C   UNL     1       3.714   4.515  18.659  0.00  0.00    +0.000 C 
ATOM     26  C   UNL     1       3.595   3.850  17.290  0.00  0.00    +0.000 C 
ATOM     27  C   UNL     1       4.742   4.255  16.368  0.00  0.00    +0.000 C 
ATOM     28  C   UNL     1       4.910   5.767  16.265  0.00  0.00    +0.000 C 
ATOM     29  C   UNL     1       5.033   6.405  17.650  0.00  0.00    +0.000 C 
ENDBRANCH  23  24
ENDBRANCH  22  23
ENDBRANCH   8  22
TORSDOF 5
ENDMDL
MODEL 5
REMARK VINA RESULT:      -6.6      4.061      9.311
REMARK  Name = 
REMARK  5 active torsions:
REMARK  status: ('A' for Active; 'I' for Inactive)
REMARK    1  A    between atoms: C_2  and  C_4
REMARK    2  A    between atoms: C_9  and  N_10
REMARK    3  A    between atoms: N_17  and  C_18
REMARK    4  A    between atoms: C_18  and  C_19
REMARK    5  A    between atoms: C_19  and  C_20
REMARK                            x       y       z     vdW  Elec       q    Type
REMARK                         _______ _______ _______ _____ _____    ______ ____
ROOT
ATOM      1  N   UNL     1      -0.188  12.008  20.530  0.00  0.00    +0.000 N 
ATOM      2  C   UNL     1      -1.268  11.168  20.027  0.00  0.00    +0.000 C 
ATOM      3  C   UNL     1      -0.576   9.897  19.533  0.00  0.00    +0.000 C 
ATOM      4  C   UNL     1       0.927  10.058  19.871  0.00  0.00    +0.000 C 
ATOM      5  C   UNL     1       1.744  10.500  18.647  0.00  0.00    +0.000 C 
ATOM      6  C   UNL     1       1.838   9.380  17.617  0.00  0.00    +0.000 C 
ATOM      7  C   UNL     1       2.373   8.092  18.245  0.00  0.00    +0.000 C 
ATOM      8  N   UNL     1       1.596   7.684  19.428  0.00  0.00    +0.000 NA
ATOM      9  C   UNL     1       1.524   8.765  20.424  0.00  0.00    +0.000 C 
ATOM     10  C   UNL     1       0.930  11.161  20.946  0.00  0.00    +0.000 C 
ENDROOT
BRANCH   1  16
ATOM     11  C   UNL     1      -0.239  14.391  21.088  0.00  0.00    +0.000 A 
ATOM     12  C   UNL     1      -0.451  15.374  22.067  0.00  0.00    +0.000 A 
ATOM     13  C   UNL     1      -0.980  15.008  23.297  0.00  0.00    +0.000 A 
ATOM     14  C   UNL     1      -1.309  13.682  23.489  0.00  0.00    +0.000 A 
ATOM     15  N   UNL     1      -1.094  12.711  22.578  0.00  0.00    +0.000 NA
ATOM     16  C   UNL     1      -0.514  13.047  21.401  0.00  0.00    +0.000 A 
BRANCH  11  18
ATOM     17  N   UNL     1      -0.735  15.389  18.919  0.00  0.00    +0.000 N 
ATOM     18  C   UNL     1       0.201  14.847  19.746  0.00  0.00    +0.000 C 
ATOM     19  O   UNL     1       1.387  14.803  19.403  0.00  0.00    +0.000 OA
ATOM     20  H   UNL     1      -0.453  15.741  18.017  0.00  0.00    +0.000 HD
ATOM     21  H   UNL     1      -1.702  15.498  19.221  0.00  0.00    +0.000 HD
ENDBRANCH  11  18
ENDBRANCH   1  16
BRANCH   8  22
ATOM     22  C   UNL     1       2.183   6.474  20.038  0.00  0.00    +0.000 C 
BRANCH  22  23
ATOM     23  C   UNL     1       2.761   5.498  19.001  0.00  0.00    +0.000 C 
BRANCH  23  24
ATOM     24  C   UNL     1       1.731   4.497  18.433  0.00  0.00    +0.000 C 
ATOM     25  C   UNL     1       2.314   3.600  17.331  0.00  0.00    +0.000 C 
ATOM     26  C   UNL     1       3.349   2.614  17.866  0.00  0.00    +0.000 C 
ATOM     27  C   UNL     1       2.792   1.791  19.025  0.00  0.00    +0.000 C 
ATOM     28  C   UNL     1       2.194   2.658  20.128  0.00  0.00    +0.000 C 
ATOM     29  C   UNL     1       1.157   3.632  19.565  0.00  0.00    +0.000 C 
ENDBRANCH  23  24
ENDBRANCH  22  23
ENDBRANCH   8  22
TORSDOF 5
ENDMDL
MODEL 6
REMARK VINA RESULT:      -6.6      3.430      9.657
REMARK  Name = 
REMARK  5 active torsions:
REMARK  status: ('A' for Active; 'I' for Inactive)
REMARK    1  A    between atoms: C_2  and  C_4
REMARK    2  A    between atoms: C_9  and  N_10
REMARK    3  A    between atoms: N_17  and  C_18
REMARK    4  A    between atoms: C_18  and  C_19
REMARK    5  A    between atoms: C_19  and  C_20
REMARK                            x       y       z     vdW  Elec       q    Type
REMARK                         _______ _______ _______ _____ _____    ______ ____
ROOT
ATOM      1  N   UNL     1      -2.217  11.402  19.016  0.00  0.00    +0.000 N 
ATOM      2  C   UNL     1      -1.111  12.352  18.978  0.00  0.00    +0.000 C 
ATOM      3  C   UNL     1       0.149  11.487  19.033  0.00  0.00    +0.000 C 
ATOM      4  C   UNL     1      -0.332  10.015  19.018  0.00  0.00    +0.000 C 
ATOM      5  C   UNL     1      -0.333   9.399  20.426  0.00  0.00    +0.000 C 
ATOM      6  C   UNL     1       1.090   9.195  20.935  0.00  0.00    +0.000 C 
ATOM      7  C   UNL     1       1.923   8.384  19.942  0.00  0.00    +0.000 C 
ATOM      8  N   UNL     1       1.905   8.970  18.591  0.00  0.00    +0.000 NA
ATOM      9  C   UNL     1       0.529   9.149  18.099  0.00  0.00    +0.000 C 
ATOM     10  C   UNL     1      -1.770  10.118  18.475  0.00  0.00    +0.000 C 
ENDROOT
BRANCH   1  16
ATOM     11  C   UNL     1      -4.385  12.451  19.457  0.00  0.00    +0.000 A 
ATOM     12  C   UNL     1      -5.683  12.724  19.001  0.00  0.00    +0.000 A 
ATOM     13  C   UNL     1      -6.018  12.436  17.684  0.00  0.00    +0.000 A 
ATOM     14  C   UNL     1      -5.034  11.919  16.867  0.00  0.00    +0.000 A 
ATOM     15  N   UNL     1      -3.786  11.622  17.283  0.00  0.00    +0.000 NA
ATOM     16  C   UNL     1      -3.470  11.834  18.583  0.00  0.00    +0.000 A 
BRANCH  11  18
ATOM     17  N   UNL     1      -3.425  14.107  20.968  0.00  0.00    +0.000 N 
ATOM     18  C   UNL     1      -4.035  12.897  20.829  0.00  0.00    +0.000 C 
ATOM     19  O   UNL     1      -4.340  12.234  21.825  0.00  0.00    +0.000 OA
ATOM     20  H   UNL     1      -3.211  14.449  21.892  0.00  0.00    +0.000 HD
ATOM     21  H   UNL     1      -3.235  14.695  20.158  0.00  0.00    +0.000 HD
ENDBRANCH  11  18
ENDBRANCH   1  16
BRANCH   8  22
ATOM     22  C   UNL     1       2.669   8.123  17.652  0.00  0.00    +0.000 C 
BRANCH  22  23
ATOM     23  C   UNL     1       3.338   6.919  18.335  0.00  0.00    +0.000 C 
BRANCH  23  24
ATOM     24  C   UNL     1       3.992   5.920  17.356  0.00  0.00    +0.000 C 
ATOM     25  C   UNL     1       5.064   6.568  16.469  0.00  0.00    +0.000 C 
ATOM     26  C   UNL     1       6.302   6.986  17.258  0.00  0.00    +0.000 C 
ATOM     27  C   UNL     1       6.869   5.823  18.069  0.00  0.00    +0.000 C 
ATOM     28  C   UNL     1       5.820   5.152  18.949  0.00  0.00    +0.000 C 
ATOM     29  C   UNL     1       4.595   4.739  18.131  0.00  0.00    +0.000 C 
ENDBRANCH  23  24
ENDBRANCH  22  23
ENDBRANCH   8  22
TORSDOF 5
ENDMDL
MODEL 7
REMARK VINA RESULT:      -6.6      4.928      8.623
REMARK  Name = 
REMARK  5 active torsions:
REMARK  status: ('A' for Active; 'I' for Inactive)
REMARK    1  A    between atoms: C_2  and  C_4
REMARK    2  A    between atoms: C_9  and  N_10
REMARK    3  A    between atoms: N_17  and  C_18
REMARK    4  A    between atoms: C_18  and  C_19
REMARK    5  A    between atoms: C_19  and  C_20
REMARK                            x       y       z     vdW  Elec       q    Type
REMARK                         _______ _______ _______ _____ _____    ______ ____
ROOT
ATOM      1  N   UNL     1       3.783   4.744  19.169  0.00  0.00    +0.000 N 
ATOM      2  C   UNL     1       3.113   5.672  18.266  0.00  0.00    +0.000 C 
ATOM      3  C   UNL     1       4.165   6.022  17.214  0.00  0.00    +0.000 C 
ATOM      4  C   UNL     1       5.415   5.171  17.547  0.00  0.00    +0.000 C 
ATOM      5  C   UNL     1       6.477   5.985  18.302  0.00  0.00    +0.000 C 
ATOM      6  C   UNL     1       7.118   7.026  17.392  0.00  0.00    +0.000 C 
ATOM      7  C   UNL     1       7.668   6.386  16.116  0.00  0.00    +0.000 C 
ATOM      8  N   UNL     1       6.650   5.593  15.408  0.00  0.00    +0.000 NA
ATOM      9  C   UNL     1       6.048   4.578  16.288  0.00  0.00    +0.000 C 
ATOM     10  C   UNL     1       4.853   4.054  18.447  0.00  0.00    +0.000 C 
ENDROOT
BRANCH   1  16
ATOM     11  C   UNL     1       2.384   2.765  19.511  0.00  0.00    +0.000 A 
ATOM     12  C   UNL     1       1.481   2.081  20.339  0.00  0.00    +0.000 A 
ATOM     13  C   UNL     1       1.255   2.542  21.629  0.00  0.00    +0.000 A 
ATOM     14  C   UNL     1       1.964   3.647  22.052  0.00  0.00    +0.000 A 
ATOM     15  N   UNL     1       2.819   4.340  21.271  0.00  0.00    +0.000 NA
ATOM     16  C   UNL     1       2.994   3.939  19.990  0.00  0.00    +0.000 A 
BRANCH  11  18
ATOM     17  N   UNL     1       3.589   1.134  18.156  0.00  0.00    +0.000 N 
ATOM     18  C   UNL     1       2.693   2.159  18.191  0.00  0.00    +0.000 C 
ATOM     19  O   UNL     1       2.116   2.519  17.161  0.00  0.00    +0.000 OA
ATOM     20  H   UNL     1       3.787   0.682  17.276  0.00  0.00    +0.000 HD
ATOM     21  H   UNL     1       4.015   0.780  19.011  0.00  0.00    +0.000 HD
ENDBRANCH  11  18
ENDBRANCH   1  16
BRANCH   8  22
ATOM     22  C   UNL     1       7.238   4.943  14.219  0.00  0.00    +0.000 C 
BRANCH  22  23
ATOM     23  C   UNL     1       6.322   3.873  13.603  0.00  0.00    +0.000 C 
BRANCH  23  24
ATOM     24  C   UNL     1       6.068   4.053  12.090  0.00  0.00    +0.000 C 
ATOM     25  C   UNL     1       7.325   3.811  11.241  0.00  0.00    +0.000 C 
ATOM     26  C   UNL     1       7.761   2.349  11.246  0.00  0.00    +0.000 C 
ATOM     27  C   UNL     1       6.619   1.421  10.838  0.00  0.00    +0.000 C 
ATOM     28  C   UNL     1       5.353   1.651  11.658  0.00  0.00    +0.000 C 
ATOM     29  C   UNL     1       4.937   3.123  11.630  0.00  0.00    +0.000 C 
ENDBRANCH  23  24
ENDBRANCH  22  23
ENDBRANCH   8  22
TORSDOF 5
ENDMDL
MODEL 8
REMARK VINA RESULT:      -6.5      4.044      9.253
REMARK  Name = 
REMARK  5 active torsions:
REMARK  status: ('A' for Active; 'I' for Inactive)
REMARK    1  A    between atoms: C_2  and  C_4
REMARK    2  A    between atoms: C_9  and  N_10
REMARK    3  A    between atoms: N_17  and  C_18
REMARK    4  A    between atoms: C_18  and  C_19
REMARK    5  A    between atoms: C_19  and  C_20
REMARK                            x       y       z     vdW  Elec       q    Type
REMARK                         _______ _______ _______ _____ _____    ______ ____
ROOT
ATOM      1  N   UNL     1      -0.133  12.206  20.535  0.00  0.00    +0.000 N 
ATOM      2  C   UNL     1      -1.251  11.372  20.111  0.00  0.00    +0.000 C 
ATOM      3  C   UNL     1      -0.612  10.050  19.685  0.00  0.00    +0.000 C 
ATOM      4  C   UNL     1       0.902  10.183  19.979  0.00  0.00    +0.000 C 
ATOM      5  C   UNL     1       1.704  10.518  18.711  0.00  0.00    +0.000 C 
ATOM      6  C   UNL     1       1.736   9.332  17.754  0.00  0.00    +0.000 C 
ATOM      7  C   UNL     1       2.245   8.069  18.451  0.00  0.00    +0.000 C 
ATOM      8  N   UNL     1       1.484   7.764  19.675  0.00  0.00    +0.000 NA
ATOM      9  C   UNL     1       1.471   8.908  20.601  0.00  0.00    +0.000 C 
ATOM     10  C   UNL     1       0.967  11.351  20.981  0.00  0.00    +0.000 C 
ENDROOT
BRANCH   1  16
ATOM     11  C   UNL     1      -0.084  14.620  20.945  0.00  0.00    +0.000 A 
ATOM     12  C   UNL     1      -0.242  15.668  21.864  0.00  0.00    +0.000 A 
ATOM     13  C   UNL     1      -0.764  15.400  23.121  0.00  0.00    +0.000 A 
ATOM     14  C   UNL     1      -1.141  14.103  23.400  0.00  0.00    +0.000 A 
ATOM     15  N   UNL     1      -0.978  13.070  22.548  0.00  0.00    +0.000 NA
ATOM     16  C   UNL     1      -0.405  13.309  21.345  0.00  0.00    +0.000 A 
BRANCH  11  18
ATOM     17  N   UNL     1      -0.612  15.204  18.637  0.00  0.00    +0.000 N 
ATOM     18  C   UNL     1       0.352  14.974  19.571  0.00  0.00    +0.000 C 
ATOM     19  O   UNL     1       1.545  15.125  19.288  0.00  0.00    +0.000 OA
ATOM     20  H   UNL     1      -0.341  15.483  17.706  0.00  0.00    +0.000 HD
ATOM     21  H   UNL     1      -1.600  15.155  18.880  0.00  0.00    +0.000 HD
ENDBRANCH  11  18
ENDBRANCH   1  16
BRANCH   8  22
ATOM     22  C   UNL     1       2.047   6.577  20.349  0.00  0.00    +0.000 C 
BRANCH  22  23
ATOM     23  C   UNL     1       3.180   5.912  19.549  0.00  0.00    +0.000 C 
BRANCH  23  24
ATOM     24  C   UNL     1       3.283   4.384  19.752  0.00  0.00    +0.000 C 
ATOM     25  C   UNL     1       1.945   3.662  19.540  0.00  0.00    +0.000 C 
ATOM     26  C   UNL     1       1.490   3.688  18.084  0.00  0.00    +0.000 C 
ATOM     27  C   UNL     1       2.573   3.154  17.149  0.00  0.00    +0.000 C 
ATOM     28  C   UNL     1       3.917   3.846  17.348  0.00  0.00    +0.000 C 
ATOM     29  C   UNL     1       4.350   3.799  18.814  0.00  0.00    +0.000 C 
ENDBRANCH  23  24
ENDBRANCH  22  23
ENDBRANCH   8  22
TORSDOF 5
ENDMDL
MODEL 9
REMARK VINA RESULT:      -6.5      3.036      8.321
REMARK  Name = 
REMARK  5 active torsions:
REMARK  status: ('A' for Active; 'I' for Inactive)
REMARK    1  A    between atoms: C_2  and  C_4
REMARK    2  A    between atoms: C_9  and  N_10
REMARK    3  A    between atoms: N_17  and  C_18
REMARK    4  A    between atoms: C_18  and  C_19
REMARK    5  A    between atoms: C_19  and  C_20
REMARK                            x       y       z     vdW  Elec       q    Type
REMARK                         _______ _______ _______ _____ _____    ______ ____
ROOT
ATOM      1  N   UNL     1       0.990   7.835  20.231  0.00  0.00    +0.000 N 
ATOM      2  C   UNL     1       0.853   6.733  21.176  0.00  0.00    +0.000 C 
ATOM      3  C   UNL     1       1.759   5.631  20.625  0.00  0.00    +0.000 C 
ATOM      4  C   UNL     1       2.458   6.224  19.377  0.00  0.00    +0.000 C 
ATOM      5  C   UNL     1       1.784   5.770  18.073  0.00  0.00    +0.000 C 
ATOM      6  C   UNL     1       2.030   4.287  17.817  0.00  0.00    +0.000 C 
ATOM      7  C   UNL     1       3.523   3.958  17.850  0.00  0.00    +0.000 C 
ATOM      8  N   UNL     1       4.166   4.412  19.095  0.00  0.00    +0.000 NA
ATOM      9  C   UNL     1       3.939   5.848  19.326  0.00  0.00    +0.000 C 
ATOM     10  C   UNL     1       2.292   7.744  19.568  0.00  0.00    +0.000 C 
ENDROOT
BRANCH   1  16
ATOM     11  C   UNL     1       0.551  10.196  19.757  0.00  0.00    +0.000 A 
ATOM     12  C   UNL     1       0.318  11.483  20.264  0.00  0.00    +0.000 A 
ATOM     13  C   UNL     1       0.098  11.649  21.625  0.00  0.00    +0.000 A 
ATOM     14  C   UNL     1       0.086  10.521  22.419  0.00  0.00    +0.000 A 
ATOM     15  N   UNL     1       0.332   9.275  21.964  0.00  0.00    +0.000 NA
ATOM     16  C   UNL     1       0.616   9.111  20.651  0.00  0.00    +0.000 A 
BRANCH  11  18
ATOM     17  N   UNL     1       1.812  10.422  17.681  0.00  0.00    +0.000 N 
ATOM     18  C   UNL     1       0.648  10.051  18.282  0.00  0.00    +0.000 C 
ATOM     19  O   UNL     1      -0.265   9.549  17.618  0.00  0.00    +0.000 OA
ATOM     20  H   UNL     1       1.916  10.298  16.686  0.00  0.00    +0.000 HD
ATOM     21  H   UNL     1       2.599  10.768  18.230  0.00  0.00    +0.000 HD
ENDBRANCH  11  18
ENDBRANCH   1  16
BRANCH   8  22
ATOM     22  C   UNL     1       5.616   4.131  19.058  0.00  0.00    +0.000 C 
BRANCH  22  23
ATOM     23  C   UNL     1       6.477   5.392  19.238  0.00  0.00    +0.000 C 
BRANCH  23  24
ATOM     24  C   UNL     1       7.495   5.629  18.101  0.00  0.00    +0.000 C 
ATOM     25  C   UNL     1       7.558   4.463  17.104  0.00  0.00    +0.000 C 
ATOM     26  C   UNL     1       6.284   4.335  16.273  0.00  0.00    +0.000 C 
ATOM     27  C   UNL     1       5.932   5.650  15.581  0.00  0.00    +0.000 C 
ATOM     28  C   UNL     1       5.876   6.828  16.548  0.00  0.00    +0.000 C 
ATOM     29  C   UNL     1       7.167   6.935  17.362  0.00  0.00    +0.000 C 
ENDBRANCH  23  24
ENDBRANCH  22  23
ENDBRANCH   8  22
TORSDOF 5
ENDMDL
