MODEL 1
REMARK VINA RESULT:      -8.3      0.000      0.000
REMARK  Name = 
REMARK  8 active torsions:
REMARK  status: ('A' for Active; 'I' for Inactive)
REMARK    1  A    between atoms: C_1  and  N_2
REMARK    2  A    between atoms: N_2  and  C_3
REMARK    3  A    between atoms: C_3  and  C_4
REMARK    4  A    between atoms: C_4  and  C_5
REMARK    5  A    between atoms: C_13  and  C_14
REMARK    6  A    between atoms: N_16  and  C_17
REMARK    7  A    between atoms: C_17  and  C_18
REMARK    8  A    between atoms: C_22  and  N_23
REMARK                            x       y       z     vdW  Elec       q    Type
REMARK                         _______ _______ _______ _____ _____    ______ ____
ROOT
ATOM      1  C   UNL     1       7.290   5.500  17.404  0.00  0.00    +0.000 C 
ATOM      2  N   UNL     1       6.498   6.717  17.300  0.00  0.00    +0.000 N 
ATOM      3  C   UNL     1       5.186   6.617  17.752  0.00  0.00    +0.000 A 
ATOM      4  N   UNL     1       4.424   7.714  17.807  0.00  0.00    +0.000 NA
ATOM      5  C   UNL     1       3.133   7.517  18.146  0.00  0.00    +0.000 A 
ATOM      6  C   UNL     1       2.591   6.289  18.460  0.00  0.00    +0.000 A 
ATOM      7  C   UNL     1       3.437   5.217  18.434  0.00  0.00    +0.000 A 
ATOM      8  N   UNL     1       4.714   5.393  18.060  0.00  0.00    +0.000 NA
ENDROOT
BRANCH   7   9
ATOM      9  N   UNL     1       3.008   3.932  18.741  0.00  0.00    +0.000 N 
ATOM     10  C   UNL     1       2.079   3.190  17.890  0.00  0.00    +0.000 C 
ATOM     11  C   UNL     1       0.792   2.862  18.652  0.00  0.00    +0.000 C 
ATOM     12  C   UNL     1       1.079   2.158  19.974  0.00  0.00    +0.000 C 
ATOM     13  C   UNL     1       1.990   3.013  20.840  0.00  0.00    +0.000 C 
ATOM     14  F   UNL     1       1.316   4.120  21.245  0.00  0.00    +0.000 F 
ATOM     15  F   UNL     1       2.302   2.321  21.968  0.00  0.00    +0.000 F 
ATOM     16  C   UNL     1       3.271   3.397  20.093  0.00  0.00    +0.000 C 
ENDBRANCH   7   9
BRANCH   5  17
ATOM     17  C   UNL     1       2.231   8.716  18.137  0.00  0.00    +0.000 C 
ATOM     18  O   UNL     1       2.095   9.399  17.126  0.00  0.00    +0.000 OA
ATOM     19  N   UNL     1       1.586   8.993  19.326  0.00  0.00    +0.000 N 
ATOM     20  H   UNL     1       1.803   8.403  20.123  0.00  0.00    +0.000 HD
BRANCH  19  21
ATOM     21  C   UNL     1       0.755  10.162  19.472  0.00  0.00    +0.000 C 
BRANCH  21  22
ATOM     22  C   UNL     1      -0.678   9.811  19.224  0.00  0.00    +0.000 C 
ATOM     23  C   UNL     1      -1.717  10.897  19.109  0.00  0.00    +0.000 C 
ATOM     24  C   UNL     1      -1.340  10.096  17.896  0.00  0.00    +0.000 C 
ENDBRANCH  21  22
ENDBRANCH  19  21
ENDBRANCH   5  17
BRANCH   2  25
ATOM     25  C   UNL     1       7.103   8.049  17.273  0.00  0.00    +0.000 C 
BRANCH  25  26
ATOM     26  C   UNL     1       8.266   8.192  18.270  0.00  0.00    +0.000 C 
BRANCH  26  27
ATOM     27  C   UNL     1       8.665   9.630  18.485  0.00  0.00    +0.000 A 
ATOM     28  C   UNL     1       9.476   9.983  19.571  0.00  0.00    +0.000 A 
ATOM     29  C   UNL     1       9.832  11.315  19.781  0.00  0.00    +0.000 A 
ATOM     30  C   UNL     1       9.377  12.303  18.910  0.00  0.00    +0.000 A 
ATOM     31  C   UNL     1       8.573  11.960  17.824  0.00  0.00    +0.000 A 
ATOM     32  C   UNL     1       8.216  10.630  17.612  0.00  0.00    +0.000 A 
ENDBRANCH  26  27
ENDBRANCH  25  26
ENDBRANCH   2  25
TORSDOF 7
ENDMDL
MODEL 2
REMARK VINA RESULT:      -8.2      0.813      1.349
REMARK  Name = 
REMARK  8 active torsions:
REMARK  status: ('A' for Active; 'I' for Inactive)
REMARK    1  A    between atoms: C_1  and  N_2
REMARK    2  A    between atoms: N_2  and  C_3
REMARK    3  A    between atoms: C_3  and  C_4
REMARK    4  A    between atoms: C_4  and  C_5
REMARK    5  A    between atoms: C_13  and  C_14
REMARK    6  A    between atoms: N_16  and  C_17
REMARK    7  A    between atoms: C_17  and  C_18
REMARK    8  A    between atoms: C_22  and  N_23
REMARK                            x       y       z     vdW  Elec       q    Type
REMARK                         _______ _______ _______ _____ _____    ______ ____
ROOT
ATOM      1  C   UNL     1       7.371   5.050  17.544  0.00  0.00    +0.000 C 
ATOM      2  N   UNL     1       6.610   6.277  17.354  0.00  0.00    +0.000 N 
ATOM      3  C   UNL     1       5.300   6.247  17.821  0.00  0.00    +0.000 A 
ATOM      4  N   UNL     1       4.568   7.365  17.798  0.00  0.00    +0.000 NA
ATOM      5  C   UNL     1       3.275   7.229  18.160  0.00  0.00    +0.000 A 
ATOM      6  C   UNL     1       2.704   6.043  18.569  0.00  0.00    +0.000 A 
ATOM      7  C   UNL     1       3.521   4.949  18.618  0.00  0.00    +0.000 A 
ATOM      8  N   UNL     1       4.798   5.063  18.223  0.00  0.00    +0.000 NA
ENDROOT
BRANCH   7   9
ATOM      9  N   UNL     1       3.061   3.704  19.024  0.00  0.00    +0.000 N 
ATOM     10  C   UNL     1       2.534   2.716  18.083  0.00  0.00    +0.000 C 
ATOM     11  C   UNL     1       1.073   2.390  18.402  0.00  0.00    +0.000 C 
ATOM     12  C   UNL     1       0.888   1.981  19.860  0.00  0.00    +0.000 C 
ATOM     13  C   UNL     1       1.387   3.079  20.784  0.00  0.00    +0.000 C 
ATOM     14  F   UNL     1       0.569   4.159  20.684  0.00  0.00    +0.000 F 
ATOM     15  F   UNL     1       1.295   2.649  22.071  0.00  0.00    +0.000 F 
ATOM     16  C   UNL     1       2.836   3.462  20.465  0.00  0.00    +0.000 C 
ENDBRANCH   7   9
BRANCH   5  17
ATOM     17  C   UNL     1       2.405   8.448  18.066  0.00  0.00    +0.000 C 
ATOM     18  O   UNL     1       2.448   9.183  17.085  0.00  0.00    +0.000 OA
ATOM     19  N   UNL     1       1.578   8.680  19.147  0.00  0.00    +0.000 N 
ATOM     20  H   UNL     1       1.651   8.047  19.936  0.00  0.00    +0.000 HD
BRANCH  19  21
ATOM     21  C   UNL     1       0.751   9.860  19.216  0.00  0.00    +0.000 C 
BRANCH  21  22
ATOM     22  C   UNL     1       0.686  10.363  20.623  0.00  0.00    +0.000 C 
ATOM     23  C   UNL     1       0.747  11.843  20.904  0.00  0.00    +0.000 C 
ATOM     24  C   UNL     1      -0.531  11.092  21.143  0.00  0.00    +0.000 C 
ENDBRANCH  21  22
ENDBRANCH  19  21
ENDBRANCH   5  17
BRANCH   2  25
ATOM     25  C   UNL     1       7.250   7.587  17.222  0.00  0.00    +0.000 C 
BRANCH  25  26
ATOM     26  C   UNL     1       8.175   7.916  18.406  0.00  0.00    +0.000 C 
BRANCH  26  27
ATOM     27  C   UNL     1       8.542   9.377  18.460  0.00  0.00    +0.000 A 
ATOM     28  C   UNL     1       8.008  10.275  17.528  0.00  0.00    +0.000 A 
ATOM     29  C   UNL     1       8.360  11.624  17.567  0.00  0.00    +0.000 A 
ATOM     30  C   UNL     1       9.251  12.084  18.536  0.00  0.00    +0.000 A 
ATOM     31  C   UNL     1       9.783  11.197  19.471  0.00  0.00    +0.000 A 
ATOM     32  C   UNL     1       9.433   9.849  19.434  0.00  0.00    +0.000 A 
ENDBRANCH  26  27
ENDBRANCH  25  26
ENDBRANCH   2  25
TORSDOF 7
ENDMDL
MODEL 3
REMARK VINA RESULT:      -8.0      3.518      6.857
REMARK  Name = 
REMARK  8 active torsions:
REMARK  status: ('A' for Active; 'I' for Inactive)
REMARK    1  A    between atoms: C_1  and  N_2
REMARK    2  A    between atoms: N_2  and  C_3
REMARK    3  A    between atoms: C_3  and  C_4
REMARK    4  A    between atoms: C_4  and  C_5
REMARK    5  A    between atoms: C_13  and  C_14
REMARK    6  A    between atoms: N_16  and  C_17
REMARK    7  A    between atoms: C_17  and  C_18
REMARK    8  A    between atoms: C_22  and  N_23
REMARK                            x       y       z     vdW  Elec       q    Type
REMARK                         _______ _______ _______ _____ _____    ______ ____
ROOT
ATOM      1  C   UNL     1       1.369   8.325  20.179  0.00  0.00    +0.000 C 
ATOM      2  N   UNL     1       2.190   8.479  18.986  0.00  0.00    +0.000 N 
ATOM      3  C   UNL     1       2.860   7.333  18.569  0.00  0.00    +0.000 A 
ATOM      4  N   UNL     1       3.539   7.351  17.418  0.00  0.00    +0.000 NA
ATOM      5  C   UNL     1       4.253   6.241  17.140  0.00  0.00    +0.000 A 
ATOM      6  C   UNL     1       4.288   5.118  17.938  0.00  0.00    +0.000 A 
ATOM      7  C   UNL     1       3.531   5.148  19.075  0.00  0.00    +0.000 A 
ATOM      8  N   UNL     1       2.847   6.260  19.384  0.00  0.00    +0.000 NA
ENDROOT
BRANCH   7   9
ATOM      9  N   UNL     1       3.478   4.072  19.952  0.00  0.00    +0.000 N 
ATOM     10  C   UNL     1       4.120   2.791  19.663  0.00  0.00    +0.000 C 
ATOM     11  C   UNL     1       3.081   1.667  19.602  0.00  0.00    +0.000 C 
ATOM     12  C   UNL     1       2.213   1.629  20.855  0.00  0.00    +0.000 C 
ATOM     13  C   UNL     1       1.519   2.965  21.058  0.00  0.00    +0.000 C 
ATOM     14  F   UNL     1       0.598   3.147  20.077  0.00  0.00    +0.000 F 
ATOM     15  F   UNL     1       0.828   2.930  22.229  0.00  0.00    +0.000 F 
ATOM     16  C   UNL     1       2.526   4.120  21.082  0.00  0.00    +0.000 C 
ENDBRANCH   7   9
BRANCH   5  17
ATOM     17  C   UNL     1       5.093   6.260  15.896  0.00  0.00    +0.000 C 
ATOM     18  O   UNL     1       5.027   7.193  15.101  0.00  0.00    +0.000 OA
ATOM     19  N   UNL     1       5.919   5.169  15.711  0.00  0.00    +0.000 N 
ATOM     20  H   UNL     1       5.864   4.421  16.395  0.00  0.00    +0.000 HD
BRANCH  19  21
ATOM     21  C   UNL     1       6.716   5.028  14.518  0.00  0.00    +0.000 C 
BRANCH  21  22
ATOM     22  C   UNL     1       6.350   3.769  13.798  0.00  0.00    +0.000 C 
ATOM     23  C   UNL     1       5.139   3.733  12.900  0.00  0.00    +0.000 C 
ATOM     24  C   UNL     1       6.513   3.642  12.301  0.00  0.00    +0.000 C 
ENDBRANCH  21  22
ENDBRANCH  19  21
ENDBRANCH   5  17
BRANCH   2  25
ATOM     25  C   UNL     1       1.935   9.515  17.985  0.00  0.00    +0.000 C 
BRANCH  25  26
ATOM     26  C   UNL     1       1.360  10.803  18.597  0.00  0.00    +0.000 C 
BRANCH  26  27
ATOM     27  C   UNL     1      -0.138  10.892  18.447  0.00  0.00    +0.000 A 
ATOM     28  C   UNL     1      -0.852  11.916  19.082  0.00  0.00    +0.000 A 
ATOM     29  C   UNL     1      -2.239  11.990  18.958  0.00  0.00    +0.000 A 
ATOM     30  C   UNL     1      -2.922  11.039  18.201  0.00  0.00    +0.000 A 
ATOM     31  C   UNL     1      -2.218  10.020  17.561  0.00  0.00    +0.000 A 
ATOM     32  C   UNL     1      -0.832   9.944  17.684  0.00  0.00    +0.000 A 
ENDBRANCH  26  27
ENDBRANCH  25  26
ENDBRANCH   2  25
TORSDOF 7
ENDMDL
MODEL 4
REMARK VINA RESULT:      -7.9      1.311      1.844
REMARK  Name = 
REMARK  8 active torsions:
REMARK  status: ('A' for Active; 'I' for Inactive)
REMARK    1  A    between atoms: C_1  and  N_2
REMARK    2  A    between atoms: N_2  and  C_3
REMARK    3  A    between atoms: C_3  and  C_4
REMARK    4  A    between atoms: C_4  and  C_5
REMARK    5  A    between atoms: C_13  and  C_14
REMARK    6  A    between atoms: N_16  and  C_17
REMARK    7  A    between atoms: C_17  and  C_18
REMARK    8  A    between atoms: C_22  and  N_23
REMARK                            x       y       z     vdW  Elec       q    Type
REMARK                         _______ _______ _______ _____ _____    ______ ____
ROOT
ATOM      1  C   UNL     1       7.003   5.761  16.832  0.00  0.00    +0.000 C 
ATOM      2  N   UNL     1       6.244   7.000  16.948  0.00  0.00    +0.000 N 
ATOM      3  C   UNL     1       4.930   6.857  17.380  0.00  0.00    +0.000 A 
ATOM      4  N   UNL     1       4.199   7.948  17.631  0.00  0.00    +0.000 NA
ATOM      5  C   UNL     1       2.902   7.729  17.934  0.00  0.00    +0.000 A 
ATOM      6  C   UNL     1       2.326   6.481  18.029  0.00  0.00    +0.000 A 
ATOM      7  C   UNL     1       3.142   5.407  17.810  0.00  0.00    +0.000 A 
ATOM      8  N   UNL     1       4.424   5.611  17.468  0.00  0.00    +0.000 NA
ENDROOT
BRANCH   7   9
ATOM      9  N   UNL     1       2.677   4.101  17.887  0.00  0.00    +0.000 N 
ATOM     10  C   UNL     1       1.288   3.780  18.212  0.00  0.00    +0.000 C 
ATOM     11  C   UNL     1       1.211   2.958  19.502  0.00  0.00    +0.000 C 
ATOM     12  C   UNL     1       2.108   1.726  19.444  0.00  0.00    +0.000 C 
ATOM     13  C   UNL     1       3.548   2.133  19.175  0.00  0.00    +0.000 C 
ATOM     14  F   UNL     1       4.037   2.795  20.256  0.00  0.00    +0.000 F 
ATOM     15  F   UNL     1       4.305   1.013  19.038  0.00  0.00    +0.000 F 
ATOM     16  C   UNL     1       3.658   2.995  17.913  0.00  0.00    +0.000 C 
ENDBRANCH   7   9
BRANCH   5  17
ATOM     17  C   UNL     1       2.034   8.935  18.141  0.00  0.00    +0.000 C 
ATOM     18  O   UNL     1       1.969   9.821  17.295  0.00  0.00    +0.000 OA
ATOM     19  N   UNL     1       1.336   8.977  19.331  0.00  0.00    +0.000 N 
ATOM     20  H   UNL     1       1.496   8.225  19.993  0.00  0.00    +0.000 HD
BRANCH  19  21
ATOM     21  C   UNL     1       0.529  10.119  19.686  0.00  0.00    +0.000 C 
BRANCH  21  22
ATOM     22  C   UNL     1      -0.357   9.785  20.843  0.00  0.00    +0.000 C 
ATOM     23  C   UNL     1       0.027   8.687  21.803  0.00  0.00    +0.000 C 
ATOM     24  C   UNL     1       0.043  10.116  22.263  0.00  0.00    +0.000 C 
ENDBRANCH  21  22
ENDBRANCH  19  21
ENDBRANCH   5  17
BRANCH   2  25
ATOM     25  C   UNL     1       6.887   8.298  17.154  0.00  0.00    +0.000 C 
BRANCH  25  26
ATOM     26  C   UNL     1       8.147   8.203  18.029  0.00  0.00    +0.000 C 
BRANCH  26  27
ATOM     27  C   UNL     1       8.652   9.557  18.460  0.00  0.00    +0.000 A 
ATOM     28  C   UNL     1       8.552  10.656  17.598  0.00  0.00    +0.000 A 
ATOM     29  C   UNL     1       9.034  11.905  17.989  0.00  0.00    +0.000 A 
ATOM     30  C   UNL     1       9.623  12.063  19.243  0.00  0.00    +0.000 A 
ATOM     31  C   UNL     1       9.722  10.975  20.109  0.00  0.00    +0.000 A 
ATOM     32  C   UNL     1       9.242   9.726  19.720  0.00  0.00    +0.000 A 
ENDBRANCH  26  27
ENDBRANCH  25  26
ENDBRANCH   2  25
TORSDOF 7
ENDMDL
MODEL 5
REMARK VINA RESULT:      -7.8      1.299      1.785
REMARK  Name = 
REMARK  8 active torsions:
REMARK  status: ('A' for Active; 'I' for Inactive)
REMARK    1  A    between atoms: C_1  and  N_2
REMARK    2  A    between atoms: N_2  and  C_3
REMARK    3  A    between atoms: C_3  and  C_4
REMARK    4  A    between atoms: C_4  and  C_5
REMARK    5  A    between atoms: C_13  and  C_14
REMARK    6  A    between atoms: N_16  and  C_17
REMARK    7  A    between atoms: C_17  and  C_18
REMARK    8  A    between atoms: C_22  and  N_23
REMARK                            x       y       z     vdW  Elec       q    Type
REMARK                         _______ _______ _______ _____ _____    ______ ____
ROOT
ATOM      1  C   UNL     1       6.836   5.554  17.084  0.00  0.00    +0.000 C 
ATOM      2  N   UNL     1       6.148   6.836  17.009  0.00  0.00    +0.000 N 
ATOM      3  C   UNL     1       4.820   6.827  17.424  0.00  0.00    +0.000 A 
ATOM      4  N   UNL     1       4.148   7.980  17.504  0.00  0.00    +0.000 NA
ATOM      5  C   UNL     1       2.837   7.877  17.802  0.00  0.00    +0.000 A 
ATOM      6  C   UNL     1       2.188   6.687  18.053  0.00  0.00    +0.000 A 
ATOM      7  C   UNL     1       2.945   5.550  18.005  0.00  0.00    +0.000 A 
ATOM      8  N   UNL     1       4.242   5.635  17.671  0.00  0.00    +0.000 NA
ENDROOT
BRANCH   7   9
ATOM      9  N   UNL     1       2.404   4.295  18.249  0.00  0.00    +0.000 N 
ATOM     10  C   UNL     1       1.355   4.072  19.242  0.00  0.00    +0.000 C 
ATOM     11  C   UNL     1       1.838   3.114  20.335  0.00  0.00    +0.000 C 
ATOM     12  C   UNL     1       2.388   1.817  19.749  0.00  0.00    +0.000 C 
ATOM     13  C   UNL     1       3.522   2.114  18.781  0.00  0.00    +0.000 C 
ATOM     14  F   UNL     1       4.589   2.592  19.472  0.00  0.00    +0.000 F 
ATOM     15  F   UNL     1       3.928   0.950  18.208  0.00  0.00    +0.000 F 
ATOM     16  C   UNL     1       3.086   3.105  17.698  0.00  0.00    +0.000 C 
ENDBRANCH   7   9
BRANCH   5  17
ATOM     17  C   UNL     1       2.035   9.146  17.818  0.00  0.00    +0.000 C 
ATOM     18  O   UNL     1       2.539  10.217  17.495  0.00  0.00    +0.000 OA
ATOM     19  N   UNL     1       0.722   9.022  18.223  0.00  0.00    +0.000 N 
ATOM     20  H   UNL     1       0.410   8.104  18.524  0.00  0.00    +0.000 HD
BRANCH  19  21
ATOM     21  C   UNL     1      -0.132  10.176  18.359  0.00  0.00    +0.000 C 
BRANCH  21  22
ATOM     22  C   UNL     1      -1.314  10.055  17.451  0.00  0.00    +0.000 C 
ATOM     23  C   UNL     1      -2.712  10.149  18.007  0.00  0.00    +0.000 C 
ATOM     24  C   UNL     1      -2.185  11.247  17.129  0.00  0.00    +0.000 C 
ENDBRANCH  21  22
ENDBRANCH  19  21
ENDBRANCH   5  17
BRANCH   2  25
ATOM     25  C   UNL     1       6.860   8.114  17.051  0.00  0.00    +0.000 C 
BRANCH  25  26
ATOM     26  C   UNL     1       8.024   8.111  18.056  0.00  0.00    +0.000 C 
BRANCH  26  27
ATOM     27  C   UNL     1       8.522   9.501  18.362  0.00  0.00    +0.000 A 
ATOM     28  C   UNL     1       8.185  10.573  17.527  0.00  0.00    +0.000 A 
ATOM     29  C   UNL     1       8.661  11.855  17.800  0.00  0.00    +0.000 A 
ATOM     30  C   UNL     1       9.478  12.074  18.908  0.00  0.00    +0.000 A 
ATOM     31  C   UNL     1       9.814  11.013  19.748  0.00  0.00    +0.000 A 
ATOM     32  C   UNL     1       9.341   9.731  19.476  0.00  0.00    +0.000 A 
ENDBRANCH  26  27
ENDBRANCH  25  26
ENDBRANCH   2  25
TORSDOF 7
ENDMDL
MODEL 6
REMARK VINA RESULT:      -7.5      3.397      6.110
REMARK  Name = 
REMARK  8 active torsions:
REMARK  status: ('A' for Active; 'I' for Inactive)
REMARK    1  A    between atoms: C_1  and  N_2
REMARK    2  A    between atoms: N_2  and  C_3
REMARK    3  A    between atoms: C_3  and  C_4
REMARK    4  A    between atoms: C_4  and  C_5
REMARK    5  A    between atoms: C_13  and  C_14
REMARK    6  A    between atoms: N_16  and  C_17
REMARK    7  A    between atoms: C_17  and  C_18
REMARK    8  A    between atoms: C_22  and  N_23
REMARK                            x       y       z     vdW  Elec       q    Type
REMARK                         _______ _______ _______ _____ _____    ______ ____
ROOT
ATOM      1  C   UNL     1       1.388   8.283  20.196  0.00  0.00    +0.000 C 
ATOM      2  N   UNL     1       2.215   8.470  19.012  0.00  0.00    +0.000 N 
ATOM      3  C   UNL     1       2.860   7.328  18.548  0.00  0.00    +0.000 A 
ATOM      4  N   UNL     1       3.542   7.379  17.399  0.00  0.00    +0.000 NA
ATOM      5  C   UNL     1       4.233   6.267  17.076  0.00  0.00    +0.000 A 
ATOM      6  C   UNL     1       4.242   5.111  17.827  0.00  0.00    +0.000 A 
ATOM      7  C   UNL     1       3.483   5.109  18.964  0.00  0.00    +0.000 A 
ATOM      8  N   UNL     1       2.823   6.222  19.317  0.00  0.00    +0.000 NA
ENDROOT
BRANCH   7   9
ATOM      9  N   UNL     1       3.406   4.000  19.795  0.00  0.00    +0.000 N 
ATOM     10  C   UNL     1       3.994   2.710  19.440  0.00  0.00    +0.000 C 
ATOM     11  C   UNL     1       2.913   1.629  19.350  0.00  0.00    +0.000 C 
ATOM     12  C   UNL     1       2.066   1.568  20.618  0.00  0.00    +0.000 C 
ATOM     13  C   UNL     1       1.426   2.919  20.891  0.00  0.00    +0.000 C 
ATOM     14  F   UNL     1       0.495   3.177  19.936  0.00  0.00    +0.000 F 
ATOM     15  F   UNL     1       0.755   2.859  22.072  0.00  0.00    +0.000 F 
ATOM     16  C   UNL     1       2.476   4.033  20.943  0.00  0.00    +0.000 C 
ENDBRANCH   7   9
BRANCH   5  17
ATOM     17  C   UNL     1       5.075   6.319  15.835  0.00  0.00    +0.000 C 
ATOM     18  O   UNL     1       5.323   7.386  15.282  0.00  0.00    +0.000 OA
ATOM     19  N   UNL     1       5.532   5.104  15.367  0.00  0.00    +0.000 N 
ATOM     20  H   UNL     1       5.230   4.269  15.860  0.00  0.00    +0.000 HD
BRANCH  19  21
ATOM     21  C   UNL     1       6.284   5.009  14.139  0.00  0.00    +0.000 C 
BRANCH  21  22
ATOM     22  C   UNL     1       6.063   3.675  13.500  0.00  0.00    +0.000 C 
ATOM     23  C   UNL     1       5.081   3.530  12.365  0.00  0.00    +0.000 C 
ATOM     24  C   UNL     1       6.552   3.383  12.100  0.00  0.00    +0.000 C 
ENDBRANCH  21  22
ENDBRANCH  19  21
ENDBRANCH   5  17
BRANCH   2  25
ATOM     25  C   UNL     1       1.983   9.552  18.054  0.00  0.00    +0.000 C 
BRANCH  25  26
ATOM     26  C   UNL     1       0.805  10.455  18.453  0.00  0.00    +0.000 C 
BRANCH  26  27
ATOM     27  C   UNL     1       1.191  11.911  18.514  0.00  0.00    +0.000 A 
ATOM     28  C   UNL     1       2.474  12.319  18.128  0.00  0.00    +0.000 A 
ATOM     29  C   UNL     1       2.838  13.664  18.201  0.00  0.00    +0.000 A 
ATOM     30  C   UNL     1       1.923  14.609  18.663  0.00  0.00    +0.000 A 
ATOM     31  C   UNL     1       0.642  14.212  19.044  0.00  0.00    +0.000 A 
ATOM     32  C   UNL     1       0.277  12.869  18.973  0.00  0.00    +0.000 A 
ENDBRANCH  26  27
ENDBRANCH  25  26
ENDBRANCH   2  25
TORSDOF 7
ENDMDL
MODEL 7
REMARK VINA RESULT:      -7.5      3.591      5.059
REMARK  Name = 
REMARK  8 active torsions:
REMARK  status: ('A' for Active; 'I' for Inactive)
REMARK    1  A    between atoms: C_1  and  N_2
REMARK    2  A    between atoms: N_2  and  C_3
REMARK    3  A    between atoms: C_3  and  C_4
REMARK    4  A    between atoms: C_4  and  C_5
REMARK    5  A    between atoms: C_13  and  C_14
REMARK    6  A    between atoms: N_16  and  C_17
REMARK    7  A    between atoms: C_17  and  C_18
REMARK    8  A    between atoms: C_22  and  N_23
REMARK                            x       y       z     vdW  Elec       q    Type
REMARK                         _______ _______ _______ _____ _____    ______ ____
ROOT
ATOM      1  C   UNL     1       7.383   6.055  19.936  0.00  0.00    +0.000 C 
ATOM      2  N   UNL     1       7.648   6.056  18.504  0.00  0.00    +0.000 N 
ATOM      3  C   UNL     1       6.746   5.336  17.728  0.00  0.00    +0.000 A 
ATOM      4  N   UNL     1       6.842   5.381  16.396  0.00  0.00    +0.000 NA
ATOM      5  C   UNL     1       6.006   4.567  15.719  0.00  0.00    +0.000 A 
ATOM      6  C   UNL     1       5.069   3.747  16.311  0.00  0.00    +0.000 A 
ATOM      7  C   UNL     1       4.990   3.787  17.674  0.00  0.00    +0.000 A 
ATOM      8  N   UNL     1       5.842   4.563  18.362  0.00  0.00    +0.000 NA
ENDROOT
BRANCH   7   9
ATOM      9  N   UNL     1       4.079   3.014  18.381  0.00  0.00    +0.000 N 
ATOM     10  C   UNL     1       3.318   1.932  17.759  0.00  0.00    +0.000 C 
ATOM     11  C   UNL     1       1.815   2.212  17.838  0.00  0.00    +0.000 C 
ATOM     12  C   UNL     1       1.368   2.509  19.266  0.00  0.00    +0.000 C 
ATOM     13  C   UNL     1       2.144   3.688  19.827  0.00  0.00    +0.000 C 
ATOM     14  F   UNL     1       1.781   4.821  19.171  0.00  0.00    +0.000 F 
ATOM     15  F   UNL     1       1.791   3.871  21.128  0.00  0.00    +0.000 F 
ATOM     16  C   UNL     1       3.656   3.461  19.725  0.00  0.00    +0.000 C 
ENDBRANCH   7   9
BRANCH   5  17
ATOM     17  C   UNL     1       6.144   4.533  14.224  0.00  0.00    +0.000 C 
ATOM     18  O   UNL     1       6.970   5.233  13.648  0.00  0.00    +0.000 OA
ATOM     19  N   UNL     1       5.285   3.679  13.561  0.00  0.00    +0.000 N 
ATOM     20  H   UNL     1       4.599   3.180  14.118  0.00  0.00    +0.000 HD
BRANCH  19  21
ATOM     21  C   UNL     1       5.262   3.612  12.120  0.00  0.00    +0.000 C 
BRANCH  21  22
ATOM     22  C   UNL     1       3.851   3.534  11.630  0.00  0.00    +0.000 C 
ATOM     23  C   UNL     1       3.477   4.128  10.296  0.00  0.00    +0.000 C 
ATOM     24  C   UNL     1       3.468   2.637  10.475  0.00  0.00    +0.000 C 
ENDBRANCH  21  22
ENDBRANCH  19  21
ENDBRANCH   5  17
BRANCH   2  25
ATOM     25  C   UNL     1       8.404   7.122  17.846  0.00  0.00    +0.000 C 
BRANCH  25  26
ATOM     26  C   UNL     1       7.589   8.416  17.685  0.00  0.00    +0.000 C 
BRANCH  26  27
ATOM     27  C   UNL     1       8.345   9.634  18.150  0.00  0.00    +0.000 A 
ATOM     28  C   UNL     1       9.156   9.571  19.290  0.00  0.00    +0.000 A 
ATOM     29  C   UNL     1       9.842  10.702  19.731  0.00  0.00    +0.000 A 
ATOM     30  C   UNL     1       9.721  11.905  19.037  0.00  0.00    +0.000 A 
ATOM     31  C   UNL     1       8.920  11.976  17.898  0.00  0.00    +0.000 A 
ATOM     32  C   UNL     1       8.232  10.847  17.456  0.00  0.00    +0.000 A 
ENDBRANCH  26  27
ENDBRANCH  25  26
ENDBRANCH   2  25
TORSDOF 7
ENDMDL
MODEL 8
REMARK VINA RESULT:      -7.4      1.359      1.724
REMARK  Name = 
REMARK  8 active torsions:
REMARK  status: ('A' for Active; 'I' for Inactive)
REMARK    1  A    between atoms: C_1  and  N_2
REMARK    2  A    between atoms: N_2  and  C_3
REMARK    3  A    between atoms: C_3  and  C_4
REMARK    4  A    between atoms: C_4  and  C_5
REMARK    5  A    between atoms: C_13  and  C_14
REMARK    6  A    between atoms: N_16  and  C_17
REMARK    7  A    between atoms: C_17  and  C_18
REMARK    8  A    between atoms: C_22  and  N_23
REMARK                            x       y       z     vdW  Elec       q    Type
REMARK                         _______ _______ _______ _____ _____    ______ ____
ROOT
ATOM      1  C   UNL     1       6.719   5.515  17.061  0.00  0.00    +0.000 C 
ATOM      2  N   UNL     1       6.052   6.810  17.022  0.00  0.00    +0.000 N 
ATOM      3  C   UNL     1       4.743   6.822  17.492  0.00  0.00    +0.000 A 
ATOM      4  N   UNL     1       4.096   7.987  17.606  0.00  0.00    +0.000 NA
ATOM      5  C   UNL     1       2.797   7.905  17.958  0.00  0.00    +0.000 A 
ATOM      6  C   UNL     1       2.137   6.726  18.230  0.00  0.00    +0.000 A 
ATOM      7  C   UNL     1       2.871   5.576  18.143  0.00  0.00    +0.000 A 
ATOM      8  N   UNL     1       4.154   5.639  17.756  0.00  0.00    +0.000 NA
ENDROOT
BRANCH   7   9
ATOM      9  N   UNL     1       2.317   4.329  18.403  0.00  0.00    +0.000 N 
ATOM     10  C   UNL     1       1.300   4.120  19.432  0.00  0.00    +0.000 C 
ATOM     11  C   UNL     1       1.804   3.151  20.504  0.00  0.00    +0.000 C 
ATOM     12  C   UNL     1       2.312   1.847  19.895  0.00  0.00    +0.000 C 
ATOM     13  C   UNL     1       3.416   2.128  18.890  0.00  0.00    +0.000 C 
ATOM     14  F   UNL     1       4.515   2.585  19.544  0.00  0.00    +0.000 F 
ATOM     15  F   UNL     1       3.783   0.959  18.299  0.00  0.00    +0.000 F 
ATOM     16  C   UNL     1       2.960   3.130  17.825  0.00  0.00    +0.000 C 
ENDBRANCH   7   9
BRANCH   5  17
ATOM     17  C   UNL     1       2.020   9.188  18.015  0.00  0.00    +0.000 C 
ATOM     18  O   UNL     1       2.405  10.188  17.418  0.00  0.00    +0.000 OA
ATOM     19  N   UNL     1       0.871   9.162  18.780  0.00  0.00    +0.000 N 
ATOM     20  H   UNL     1       0.663   8.304  19.281  0.00  0.00    +0.000 HD
BRANCH  19  21
ATOM     21  C   UNL     1       0.079  10.350  18.981  0.00  0.00    +0.000 C 
BRANCH  21  22
ATOM     22  C   UNL     1       0.403  10.970  20.302  0.00  0.00    +0.000 C 
ATOM     23  C   UNL     1       1.257  12.212  20.370  0.00  0.00    +0.000 C 
ATOM     24  C   UNL     1      -0.201  12.290  20.723  0.00  0.00    +0.000 C 
ENDBRANCH  21  22
ENDBRANCH  19  21
ENDBRANCH   5  17
BRANCH   2  25
ATOM     25  C   UNL     1       6.789   8.074  17.042  0.00  0.00    +0.000 C 
BRANCH  25  26
ATOM     26  C   UNL     1       7.972   8.056  18.024  0.00  0.00    +0.000 C 
BRANCH  26  27
ATOM     27  C   UNL     1       8.488   9.440  18.328  0.00  0.00    +0.000 A 
ATOM     28  C   UNL     1       9.288   9.663  19.456  0.00  0.00    +0.000 A 
ATOM     29  C   UNL     1       9.752  10.946  19.748  0.00  0.00    +0.000 A 
ATOM     30  C   UNL     1       9.416  12.014  18.917  0.00  0.00    +0.000 A 
ATOM     31  C   UNL     1       8.624  11.799  17.790  0.00  0.00    +0.000 A 
ATOM     32  C   UNL     1       8.159  10.519  17.497  0.00  0.00    +0.000 A 
ENDBRANCH  26  27
ENDBRANCH  25  26
ENDBRANCH   2  25
TORSDOF 7
ENDMDL
MODEL 9
REMARK VINA RESULT:      -7.4      1.255      1.478
REMARK  Name = 
REMARK  8 active torsions:
REMARK  status: ('A' for Active; 'I' for Inactive)
REMARK    1  A    between atoms: C_1  and  N_2
REMARK    2  A    between atoms: N_2  and  C_3
REMARK    3  A    between atoms: C_3  and  C_4
REMARK    4  A    between atoms: C_4  and  C_5
REMARK    5  A    between atoms: C_13  and  C_14
REMARK    6  A    between atoms: N_16  and  C_17
REMARK    7  A    between atoms: C_17  and  C_18
REMARK    8  A    between atoms: C_22  and  N_23
REMARK                            x       y       z     vdW  Elec       q    Type
REMARK                         _______ _______ _______ _____ _____    ______ ____
ROOT
ATOM      1  C   UNL     1       7.363   5.592  17.644  0.00  0.00    +0.000 C 
ATOM      2  N   UNL     1       6.533   6.763  17.402  0.00  0.00    +0.000 N 
ATOM      3  C   UNL     1       5.194   6.631  17.758  0.00  0.00    +0.000 A 
ATOM      4  N   UNL     1       4.386   7.693  17.684  0.00  0.00    +0.000 NA
ATOM      5  C   UNL     1       3.082   7.457  17.934  0.00  0.00    +0.000 A 
ATOM      6  C   UNL     1       2.567   6.227  18.283  0.00  0.00    +0.000 A 
ATOM      7  C   UNL     1       3.456   5.195  18.390  0.00  0.00    +0.000 A 
ATOM      8  N   UNL     1       4.750   5.407  18.105  0.00  0.00    +0.000 NA
ENDROOT
BRANCH   7   9
ATOM      9  N   UNL     1       3.056   3.913  18.744  0.00  0.00    +0.000 N 
ATOM     10  C   UNL     1       2.292   3.052  17.843  0.00  0.00    +0.000 C 
ATOM     11  C   UNL     1       0.932   2.701  18.453  0.00  0.00    +0.000 C 
ATOM     12  C   UNL     1       1.073   2.120  19.856  0.00  0.00    +0.000 C 
ATOM     13  C   UNL     1       1.810   3.093  20.760  0.00  0.00    +0.000 C 
ATOM     14  F   UNL     1       1.030   4.183  20.979  0.00  0.00    +0.000 F 
ATOM     15  F   UNL     1       2.000   2.511  21.974  0.00  0.00    +0.000 F 
ATOM     16  C   UNL     1       3.159   3.500  20.160  0.00  0.00    +0.000 C 
ENDBRANCH   7   9
BRANCH   5  17
ATOM     17  C   UNL     1       2.134   8.611  17.780  0.00  0.00    +0.000 C 
ATOM     18  O   UNL     1       0.953   8.428  17.504  0.00  0.00    +0.000 OA
ATOM     19  N   UNL     1       2.682   9.866  17.957  0.00  0.00    +0.000 N 
ATOM     20  H   UNL     1       3.681   9.920  18.129  0.00  0.00    +0.000 HD
BRANCH  19  21
ATOM     21  C   UNL     1       1.897  11.060  17.758  0.00  0.00    +0.000 C 
BRANCH  21  22
ATOM     22  C   UNL     1       2.418  12.169  18.614  0.00  0.00    +0.000 C 
ATOM     23  C   UNL     1       1.926  13.580  18.412  0.00  0.00    +0.000 C 
ATOM     24  C   UNL     1       1.550  12.832  19.659  0.00  0.00    +0.000 C 
ENDBRANCH  21  22
ENDBRANCH  19  21
ENDBRANCH   5  17
BRANCH   2  25
ATOM     25  C   UNL     1       7.084   8.118  17.338  0.00  0.00    +0.000 C 
BRANCH  25  26
ATOM     26  C   UNL     1       8.321   8.298  18.232  0.00  0.00    +0.000 C 
BRANCH  26  27
ATOM     27  C   UNL     1       8.677   9.749  18.437  0.00  0.00    +0.000 A 
ATOM     28  C   UNL     1       9.459  10.137  19.532  0.00  0.00    +0.000 A 
ATOM     29  C   UNL     1       9.774  11.481  19.731  0.00  0.00    +0.000 A 
ATOM     30  C   UNL     1       9.308  12.446  18.839  0.00  0.00    +0.000 A 
ATOM     31  C   UNL     1       8.533  12.067  17.744  0.00  0.00    +0.000 A 
ATOM     32  C   UNL     1       8.216  10.725  17.543  0.00  0.00    +0.000 A 
ENDBRANCH  26  27
ENDBRANCH  25  26
ENDBRANCH   2  25
TORSDOF 7
ENDMDL
