MODEL 1
REMARK VINA RESULT:      -7.3      0.000      0.000
REMARK  Name = 
REMARK  8 active torsions:
REMARK  status: ('A' for Active; 'I' for Inactive)
REMARK    1  A    between atoms: C_1  and  C_2
REMARK    2  A    between atoms: C_2  and  C_3
REMARK    3  A    between atoms: C_3  and  N_4
REMARK    4  A    between atoms: C_3  and  C_15
REMARK    5  A    between atoms: N_7  and  C_8
REMARK    6  A    between atoms: N_7  and  C_9
REMARK    7  A    between atoms: C_22  and  C_23
REMARK    8  A    between atoms: C_22  and  C_24
REMARK                            x       y       z     vdW  Elec       q    Type
REMARK                         _______ _______ _______ _____ _____    ______ ____
ROOT
ATOM      1  C   UNL     1       0.775   9.578  20.942  0.00  0.00    +0.000 C 
ENDROOT
BRANCH   1   2
ATOM      2  C   UNL     1       1.484   8.530  20.090  0.00  0.00    +0.000 A 
ATOM      3  C   UNL     1       1.771   8.818  18.732  0.00  0.00    +0.000 A 
ATOM      4  C   UNL     1       2.337   7.856  17.890  0.00  0.00    +0.000 A 
ATOM      5  C   UNL     1       2.615   6.614  18.418  0.00  0.00    +0.000 A 
ATOM      6  C   UNL     1       2.358   6.312  19.740  0.00  0.00    +0.000 A 
ATOM      7  C   UNL     1       1.783   7.248  20.588  0.00  0.00    +0.000 A 
ATOM      8  C   UNL     1       2.725   4.904  20.015  0.00  0.00    +0.000 C 
ATOM      9  C   UNL     1       3.382   4.519  18.665  0.00  0.00    +0.000 C 
ATOM     10  C   UNL     1       4.902   4.371  18.792  0.00  0.00    +0.000 C 
ATOM     11  C   UNL     1       2.782   3.223  18.113  0.00  0.00    +0.000 C 
ATOM     12  O   UNL     1       3.132   5.575  17.694  0.00  0.00    +0.000 OA
ENDBRANCH   1   2
BRANCH   1  13
ATOM     13  N   UNL     1       0.366  10.703  20.104  0.00  0.00    +0.000 N 
ATOM     14  C   UNL     1       0.859  11.975  20.227  0.00  0.00    +0.000 C 
ATOM     15  O   UNL     1       1.709  12.275  21.063  0.00  0.00    +0.000 OA
ATOM     16  N   UNL     1       0.372  12.896  19.301  0.00  0.00    +0.000 N 
ATOM     17  C   UNL     1      -0.680  12.625  18.319  0.00  0.00    +0.000 C 
ATOM     18  H   UNL     1      -0.609  10.665  19.864  0.00  0.00    +0.000 HD
BRANCH  16  19
ATOM     19  C   UNL     1       0.841  14.298  19.437  0.00  0.00    +0.000 C 
ATOM     20  C   UNL     1      -0.307  15.286  19.196  0.00  0.00    +0.000 C 
ATOM     21  C   UNL     1       0.192  16.722  19.255  0.00  0.00    +0.000 C 
ATOM     22  O   UNL     1       1.278  16.920  18.350  0.00  0.00    +0.000 OA
ATOM     23  C   UNL     1       2.406  16.115  18.688  0.00  0.00    +0.000 C 
ATOM     24  C   UNL     1       2.056  14.640  18.563  0.00  0.00    +0.000 C 
ENDBRANCH  16  19
ENDBRANCH   1  13
BRANCH   1  26
ATOM     25  C   UNL     1      -0.354   9.750  23.238  0.00  0.00    +0.000 C 
ATOM     26  C   UNL     1      -0.306   9.026  21.896  0.00  0.00    +0.000 C 
ENDBRANCH   1  26
TORSDOF 4
ENDMDL
MODEL 2
REMARK VINA RESULT:      -7.2      2.664      4.605
REMARK  Name = 
REMARK  8 active torsions:
REMARK  status: ('A' for Active; 'I' for Inactive)
REMARK    1  A    between atoms: C_1  and  C_2
REMARK    2  A    between atoms: C_2  and  C_3
REMARK    3  A    between atoms: C_3  and  N_4
REMARK    4  A    between atoms: C_3  and  C_15
REMARK    5  A    between atoms: N_7  and  C_8
REMARK    6  A    between atoms: N_7  and  C_9
REMARK    7  A    between atoms: C_22  and  C_23
REMARK    8  A    between atoms: C_22  and  C_24
REMARK                            x       y       z     vdW  Elec       q    Type
REMARK                         _______ _______ _______ _____ _____    ______ ____
ROOT
ATOM      1  C   UNL     1       2.821   6.144  19.905  0.00  0.00    +0.000 C 
ENDROOT
BRANCH   1   2
ATOM      2  C   UNL     1       3.795   5.544  18.896  0.00  0.00    +0.000 A 
ATOM      3  C   UNL     1       4.679   4.516  19.310  0.00  0.00    +0.000 A 
ATOM      4  C   UNL     1       5.649   4.000  18.446  0.00  0.00    +0.000 A 
ATOM      5  C   UNL     1       5.722   4.516  17.170  0.00  0.00    +0.000 A 
ATOM      6  C   UNL     1       4.866   5.508  16.737  0.00  0.00    +0.000 A 
ATOM      7  C   UNL     1       3.906   6.043  17.584  0.00  0.00    +0.000 A 
ATOM      8  C   UNL     1       5.197   5.885  15.344  0.00  0.00    +0.000 C 
ATOM      9  C   UNL     1       6.278   4.824  15.017  0.00  0.00    +0.000 C 
ATOM     10  C   UNL     1       5.762   3.768  14.033  0.00  0.00    +0.000 C 
ATOM     11  C   UNL     1       7.540   5.482  14.454  0.00  0.00    +0.000 C 
ATOM     12  O   UNL     1       6.648   4.126  16.241  0.00  0.00    +0.000 OA
ENDBRANCH   1   2
BRANCH   1  13
ATOM     13  N   UNL     1       2.234   7.367  19.359  0.00  0.00    +0.000 N 
ATOM     14  C   UNL     1       1.567   8.300  20.108  0.00  0.00    +0.000 C 
ATOM     15  O   UNL     1       1.414   8.187  21.321  0.00  0.00    +0.000 OA
ATOM     16  N   UNL     1       1.121   9.420  19.405  0.00  0.00    +0.000 N 
ATOM     17  C   UNL     1       1.216   9.594  17.955  0.00  0.00    +0.000 C 
ATOM     18  H   UNL     1       1.851   7.229  18.442  0.00  0.00    +0.000 HD
BRANCH  16  19
ATOM     19  C   UNL     1       0.345  10.427  20.171  0.00  0.00    +0.000 C 
ATOM     20  C   UNL     1      -0.942  10.806  19.428  0.00  0.00    +0.000 C 
ATOM     21  C   UNL     1      -1.696  11.899  20.172  0.00  0.00    +0.000 C 
ATOM     22  O   UNL     1      -0.853  13.026  20.410  0.00  0.00    +0.000 OA
ATOM     23  C   UNL     1       0.255  12.696  21.245  0.00  0.00    +0.000 C 
ATOM     24  C   UNL     1       1.148  11.677  20.555  0.00  0.00    +0.000 C 
ENDBRANCH  16  19
ENDBRANCH   1  13
BRANCH   1  26
ATOM     25  C   UNL     1       1.260   4.146  19.520  0.00  0.00    +0.000 C 
ATOM     26  C   UNL     1       1.823   5.144  20.528  0.00  0.00    +0.000 C 
ENDBRANCH   1  26
TORSDOF 4
ENDMDL
MODEL 3
REMARK VINA RESULT:      -7.1      1.063      1.250
REMARK  Name = 
REMARK  8 active torsions:
REMARK  status: ('A' for Active; 'I' for Inactive)
REMARK    1  A    between atoms: C_1  and  C_2
REMARK    2  A    between atoms: C_2  and  C_3
REMARK    3  A    between atoms: C_3  and  N_4
REMARK    4  A    between atoms: C_3  and  C_15
REMARK    5  A    between atoms: N_7  and  C_8
REMARK    6  A    between atoms: N_7  and  C_9
REMARK    7  A    between atoms: C_22  and  C_23
REMARK    8  A    between atoms: C_22  and  C_24
REMARK                            x       y       z     vdW  Elec       q    Type
REMARK                         _______ _______ _______ _____ _____    ______ ____
ROOT
ATOM      1  C   UNL     1       0.682   9.533  20.944  0.00  0.00    +0.000 C 
ENDROOT
BRANCH   1   2
ATOM      2  C   UNL     1       1.475   8.579  20.056  0.00  0.00    +0.000 A 
ATOM      3  C   UNL     1       1.762   8.952  18.718  0.00  0.00    +0.000 A 
ATOM      4  C   UNL     1       2.406   8.073  17.842  0.00  0.00    +0.000 A 
ATOM      5  C   UNL     1       2.761   6.829  18.316  0.00  0.00    +0.000 A 
ATOM      6  C   UNL     1       2.505   6.446  19.617  0.00  0.00    +0.000 A 
ATOM      7  C   UNL     1       1.854   7.298  20.497  0.00  0.00    +0.000 A 
ATOM      8  C   UNL     1       2.965   5.055  19.832  0.00  0.00    +0.000 C 
ATOM      9  C   UNL     1       3.668   4.782  18.478  0.00  0.00    +0.000 C 
ATOM     10  C   UNL     1       5.193   4.732  18.625  0.00  0.00    +0.000 C 
ATOM     11  C   UNL     1       3.168   3.477  17.853  0.00  0.00    +0.000 C 
ATOM     12  O   UNL     1       3.361   5.864  17.553  0.00  0.00    +0.000 OA
ENDBRANCH   1   2
BRANCH   1  13
ATOM     13  N   UNL     1       0.101  10.599  20.129  0.00  0.00    +0.000 N 
ATOM     14  C   UNL     1       0.148  11.929  20.455  0.00  0.00    +0.000 C 
ATOM     15  O   UNL     1       0.701  12.341  21.472  0.00  0.00    +0.000 OA
ATOM     16  N   UNL     1      -0.427  12.792  19.522  0.00  0.00    +0.000 N 
ATOM     17  C   UNL     1      -1.152  12.370  18.322  0.00  0.00    +0.000 C 
ATOM     18  H   UNL     1      -0.756  10.317  19.687  0.00  0.00    +0.000 HD
BRANCH  16  19
ATOM     19  C   UNL     1      -0.445  14.235  19.866  0.00  0.00    +0.000 C 
ATOM     20  C   UNL     1      -1.781  14.629  20.507  0.00  0.00    +0.000 C 
ATOM     21  C   UNL     1      -1.831  16.125  20.783  0.00  0.00    +0.000 C 
ATOM     22  O   UNL     1      -1.557  16.870  19.597  0.00  0.00    +0.000 OA
ATOM     23  C   UNL     1      -0.242  16.621  19.103  0.00  0.00    +0.000 C 
ATOM     24  C   UNL     1      -0.102  15.163  18.691  0.00  0.00    +0.000 C 
ENDBRANCH  16  19
ENDBRANCH   1  13
BRANCH   1  26
ATOM     25  C   UNL     1      -0.291   9.515  23.316  0.00  0.00    +0.000 C 
ATOM     26  C   UNL     1      -0.281   8.854  21.941  0.00  0.00    +0.000 C 
ENDBRANCH   1  26
TORSDOF 4
ENDMDL
MODEL 4
REMARK VINA RESULT:      -7.0      3.294      9.162
REMARK  Name = 
REMARK  8 active torsions:
REMARK  status: ('A' for Active; 'I' for Inactive)
REMARK    1  A    between atoms: C_1  and  C_2
REMARK    2  A    between atoms: C_2  and  C_3
REMARK    3  A    between atoms: C_3  and  N_4
REMARK    4  A    between atoms: C_3  and  C_15
REMARK    5  A    between atoms: N_7  and  C_8
REMARK    6  A    between atoms: N_7  and  C_9
REMARK    7  A    between atoms: C_22  and  C_23
REMARK    8  A    between atoms: C_22  and  C_24
REMARK                            x       y       z     vdW  Elec       q    Type
REMARK                         _______ _______ _______ _____ _____    ______ ____
ROOT
ATOM      1  C   UNL     1       1.644   8.649  19.693  0.00  0.00    +0.000 C 
ENDROOT
BRANCH   1   2
ATOM      2  C   UNL     1       0.831   9.405  20.739  0.00  0.00    +0.000 A 
ATOM      3  C   UNL     1       0.739   8.887  22.056  0.00  0.00    +0.000 A 
ATOM      4  C   UNL     1      -0.068   9.496  23.022  0.00  0.00    +0.000 A 
ATOM      5  C   UNL     1      -0.772  10.625  22.661  0.00  0.00    +0.000 A 
ATOM      6  C   UNL     1      -0.690  11.158  21.391  0.00  0.00    +0.000 A 
ATOM      7  C   UNL     1       0.093  10.559  20.414  0.00  0.00    +0.000 A 
ATOM      8  C   UNL     1      -1.573  12.341  21.283  0.00  0.00    +0.000 C 
ATOM      9  C   UNL     1      -2.038  12.475  22.756  0.00  0.00    +0.000 C 
ATOM     10  C   UNL     1      -1.405  13.688  23.446  0.00  0.00    +0.000 C 
ATOM     11  C   UNL     1      -3.564  12.571  22.843  0.00  0.00    +0.000 C 
ATOM     12  O   UNL     1      -1.624  11.293  23.498  0.00  0.00    +0.000 OA
ENDBRANCH   1   2
BRANCH   1  13
ATOM     13  N   UNL     1       1.566   7.212  19.950  0.00  0.00    +0.000 N 
ATOM     14  C   UNL     1       2.458   6.294  19.464  0.00  0.00    +0.000 C 
ATOM     15  O   UNL     1       3.419   6.612  18.768  0.00  0.00    +0.000 OA
ATOM     16  N   UNL     1       2.234   4.976  19.861  0.00  0.00    +0.000 N 
ATOM     17  C   UNL     1       1.081   4.517  20.638  0.00  0.00    +0.000 C 
ATOM     18  H   UNL     1       0.618   6.882  19.984  0.00  0.00    +0.000 HD
BRANCH  16  19
ATOM     19  C   UNL     1       3.147   3.944  19.309  0.00  0.00    +0.000 C 
ATOM     20  C   UNL     1       2.545   3.292  18.059  0.00  0.00    +0.000 C 
ATOM     21  C   UNL     1       3.443   2.178  17.542  0.00  0.00    +0.000 C 
ATOM     22  O   UNL     1       3.719   1.228  18.572  0.00  0.00    +0.000 OA
ATOM     23  C   UNL     1       4.432   1.813  19.659  0.00  0.00    +0.000 C 
ATOM     24  C   UNL     1       3.583   2.883  20.329  0.00  0.00    +0.000 C 
ENDBRANCH  16  19
ENDBRANCH   1  13
BRANCH   1  26
ATOM     25  C   UNL     1       2.316  10.208  17.772  0.00  0.00    +0.000 C 
ATOM     26  C   UNL     1       1.396   9.081  18.232  0.00  0.00    +0.000 C 
ENDBRANCH   1  26
TORSDOF 4
ENDMDL
MODEL 5
REMARK VINA RESULT:      -6.9      3.297      8.431
REMARK  Name = 
REMARK  8 active torsions:
REMARK  status: ('A' for Active; 'I' for Inactive)
REMARK    1  A    between atoms: C_1  and  C_2
REMARK    2  A    between atoms: C_2  and  C_3
REMARK    3  A    between atoms: C_3  and  N_4
REMARK    4  A    between atoms: C_3  and  C_15
REMARK    5  A    between atoms: N_7  and  C_8
REMARK    6  A    between atoms: N_7  and  C_9
REMARK    7  A    between atoms: C_22  and  C_23
REMARK    8  A    between atoms: C_22  and  C_24
REMARK                            x       y       z     vdW  Elec       q    Type
REMARK                         _______ _______ _______ _____ _____    ______ ____
ROOT
ATOM      1  C   UNL     1       0.307  10.817  19.405  0.00  0.00    +0.000 C 
ENDROOT
BRANCH   1   2
ATOM      2  C   UNL     1      -1.083  10.793  18.780  0.00  0.00    +0.000 A 
ATOM      3  C   UNL     1      -1.297  10.051  17.590  0.00  0.00    +0.000 A 
ATOM      4  C   UNL     1      -2.530  10.073  16.932  0.00  0.00    +0.000 A 
ATOM      5  C   UNL     1      -3.542  10.835  17.475  0.00  0.00    +0.000 A 
ATOM      6  C   UNL     1      -3.365  11.555  18.638  0.00  0.00    +0.000 A 
ATOM      7  C   UNL     1      -2.144  11.559  19.298  0.00  0.00    +0.000 A 
ATOM      8  C   UNL     1      -4.604  12.299  18.963  0.00  0.00    +0.000 C 
ATOM      9  C   UNL     1      -5.555  11.744  17.873  0.00  0.00    +0.000 C 
ATOM     10  C   UNL     1      -6.613  10.804  18.462  0.00  0.00    +0.000 C 
ATOM     11  C   UNL     1      -6.243  12.882  17.114  0.00  0.00    +0.000 C 
ATOM     12  O   UNL     1      -4.781  10.972  16.911  0.00  0.00    +0.000 OA
ENDBRANCH   1   2
BRANCH   1  13
ATOM     13  N   UNL     1       1.106   9.712  18.880  0.00  0.00    +0.000 N 
ATOM     14  C   UNL     1       1.509   8.633  19.622  0.00  0.00    +0.000 C 
ATOM     15  O   UNL     1       1.218   8.501  20.808  0.00  0.00    +0.000 OA
ATOM     16  N   UNL     1       2.227   7.663  18.923  0.00  0.00    +0.000 N 
ATOM     17  C   UNL     1       2.659   7.779  17.529  0.00  0.00    +0.000 C 
ATOM     18  H   UNL     1       1.783  10.018  18.204  0.00  0.00    +0.000 HD
BRANCH  16  19
ATOM     19  C   UNL     1       2.728   6.506  19.704  0.00  0.00    +0.000 C 
ATOM     20  C   UNL     1       3.797   5.736  18.918  0.00  0.00    +0.000 C 
ATOM     21  C   UNL     1       4.251   4.503  19.685  0.00  0.00    +0.000 C 
ATOM     22  O   UNL     1       3.137   3.682  20.035  0.00  0.00    +0.000 OA
ATOM     23  C   UNL     1       2.231   4.356  20.907  0.00  0.00    +0.000 C 
ATOM     24  C   UNL     1       1.626   5.562  20.205  0.00  0.00    +0.000 C 
ENDBRANCH  16  19
ENDBRANCH   1  13
BRANCH   1  26
ATOM     25  C   UNL     1       1.007  12.862  20.786  0.00  0.00    +0.000 C 
ATOM     26  C   UNL     1       0.999  12.198  19.412  0.00  0.00    +0.000 C 
ENDBRANCH   1  26
TORSDOF 4
ENDMDL
MODEL 6
REMARK VINA RESULT:      -6.8      6.833      9.910
REMARK  Name = 
REMARK  8 active torsions:
REMARK  status: ('A' for Active; 'I' for Inactive)
REMARK    1  A    between atoms: C_1  and  C_2
REMARK    2  A    between atoms: C_2  and  C_3
REMARK    3  A    between atoms: C_3  and  N_4
REMARK    4  A    between atoms: C_3  and  C_15
REMARK    5  A    between atoms: N_7  and  C_8
REMARK    6  A    between atoms: N_7  and  C_9
REMARK    7  A    between atoms: C_22  and  C_23
REMARK    8  A    between atoms: C_22  and  C_24
REMARK                            x       y       z     vdW  Elec       q    Type
REMARK                         _______ _______ _______ _____ _____    ______ ____
ROOT
ATOM      1  C   UNL     1       7.081   5.354  17.611  0.00  0.00    +0.000 C 
ENDROOT
BRANCH   1   2
ATOM      2  C   UNL     1       5.630   5.119  18.019  0.00  0.00    +0.000 A 
ATOM      3  C   UNL     1       4.674   6.144  17.804  0.00  0.00    +0.000 A 
ATOM      4  C   UNL     1       3.354   6.010  18.243  0.00  0.00    +0.000 A 
ATOM      5  C   UNL     1       3.001   4.845  18.890  0.00  0.00    +0.000 A 
ATOM      6  C   UNL     1       3.907   3.827  19.101  0.00  0.00    +0.000 A 
ATOM      7  C   UNL     1       5.226   3.948  18.686  0.00  0.00    +0.000 A 
ATOM      8  C   UNL     1       3.260   2.722  19.844  0.00  0.00    +0.000 C 
ATOM      9  C   UNL     1       1.795   3.226  19.871  0.00  0.00    +0.000 C 
ATOM     10  C   UNL     1       0.891   2.406  18.944  0.00  0.00    +0.000 C 
ATOM     11  C   UNL     1       1.232   3.200  21.295  0.00  0.00    +0.000 C 
ATOM     12  O   UNL     1       1.755   4.604  19.402  0.00  0.00    +0.000 OA
ENDBRANCH   1   2
BRANCH   1  13
ATOM     13  N   UNL     1       7.203   5.290  16.156  0.00  0.00    +0.000 N 
ATOM     14  C   UNL     1       6.582   4.353  15.373  0.00  0.00    +0.000 C 
ATOM     15  O   UNL     1       5.852   3.481  15.839  0.00  0.00    +0.000 OA
ATOM     16  N   UNL     1       6.790   4.490  14.001  0.00  0.00    +0.000 N 
ATOM     17  C   UNL     1       7.690   5.465  13.381  0.00  0.00    +0.000 C 
ATOM     18  H   UNL     1       8.121   5.544  15.839  0.00  0.00    +0.000 HD
BRANCH  16  19
ATOM     19  C   UNL     1       6.179   3.462  13.123  0.00  0.00    +0.000 C 
ATOM     20  C   UNL     1       7.182   2.976  12.069  0.00  0.00    +0.000 C 
ATOM     21  C   UNL     1       6.532   1.983  11.118  0.00  0.00    +0.000 C 
ATOM     22  O   UNL     1       5.353   2.536  10.533  0.00  0.00    +0.000 OA
ATOM     23  C   UNL     1       4.358   2.827  11.512  0.00  0.00    +0.000 C 
ATOM     24  C   UNL     1       4.861   3.898  12.469  0.00  0.00    +0.000 C 
ENDBRANCH  16  19
ENDBRANCH   1  13
BRANCH   1  26
ATOM     25  C   UNL     1       7.695   7.839  17.454  0.00  0.00    +0.000 C 
ATOM     26  C   UNL     1       7.765   6.562  18.287  0.00  0.00    +0.000 C 
ENDBRANCH   1  26
TORSDOF 4
ENDMDL
MODEL 7
REMARK VINA RESULT:      -6.8      3.196      8.402
REMARK  Name = 
REMARK  8 active torsions:
REMARK  status: ('A' for Active; 'I' for Inactive)
REMARK    1  A    between atoms: C_1  and  C_2
REMARK    2  A    between atoms: C_2  and  C_3
REMARK    3  A    between atoms: C_3  and  N_4
REMARK    4  A    between atoms: C_3  and  C_15
REMARK    5  A    between atoms: N_7  and  C_8
REMARK    6  A    between atoms: N_7  and  C_9
REMARK    7  A    between atoms: C_22  and  C_23
REMARK    8  A    between atoms: C_22  and  C_24
REMARK                            x       y       z     vdW  Elec       q    Type
REMARK                         _______ _______ _______ _____ _____    ______ ____
ROOT
ATOM      1  C   UNL     1       0.799  10.626  19.106  0.00  0.00    +0.000 C 
ENDROOT
BRANCH   1   2
ATOM      2  C   UNL     1      -0.634  10.603  18.586  0.00  0.00    +0.000 A 
ATOM      3  C   UNL     1      -0.937   9.859  17.417  0.00  0.00    +0.000 A 
ATOM      4  C   UNL     1      -2.216   9.882  16.852  0.00  0.00    +0.000 A 
ATOM      5  C   UNL     1      -3.183  10.648  17.468  0.00  0.00    +0.000 A 
ATOM      6  C   UNL     1      -2.919  11.370  18.613  0.00  0.00    +0.000 A 
ATOM      7  C   UNL     1      -1.652  11.373  19.180  0.00  0.00    +0.000 A 
ATOM      8  C   UNL     1      -4.128  12.118  19.027  0.00  0.00    +0.000 C 
ATOM      9  C   UNL     1      -5.159  11.563  18.012  0.00  0.00    +0.000 C 
ATOM     10  C   UNL     1      -6.172  10.626  18.681  0.00  0.00    +0.000 C 
ATOM     11  C   UNL     1      -5.899  12.701  17.304  0.00  0.00    +0.000 C 
ATOM     12  O   UNL     1      -4.461  10.786  16.997  0.00  0.00    +0.000 OA
ENDBRANCH   1   2
BRANCH   1  13
ATOM     13  N   UNL     1       1.230   9.267  19.429  0.00  0.00    +0.000 N 
ATOM     14  C   UNL     1       1.892   8.442  18.558  0.00  0.00    +0.000 C 
ATOM     15  O   UNL     1       2.190   8.789  17.417  0.00  0.00    +0.000 OA
ATOM     16  N   UNL     1       2.255   7.198  19.073  0.00  0.00    +0.000 N 
ATOM     17  C   UNL     1       1.884   6.696  20.398  0.00  0.00    +0.000 C 
ATOM     18  H   UNL     1       0.576   8.791  20.025  0.00  0.00    +0.000 HD
BRANCH  16  19
ATOM     19  C   UNL     1       2.924   6.256  18.143  0.00  0.00    +0.000 C 
ATOM     20  C   UNL     1       2.208   4.900  18.128  0.00  0.00    +0.000 C 
ATOM     21  C   UNL     1       2.942   3.908  17.238  0.00  0.00    +0.000 C 
ATOM     22  O   UNL     1       4.311   3.795  17.624  0.00  0.00    +0.000 OA
ATOM     23  C   UNL     1       5.012   5.028  17.472  0.00  0.00    +0.000 C 
ATOM     24  C   UNL     1       4.428   6.082  18.401  0.00  0.00    +0.000 C 
ENDBRANCH  16  19
ENDBRANCH   1  13
BRANCH   1  26
ATOM     25  C   UNL     1       1.769  12.946  18.604  0.00  0.00    +0.000 C 
ATOM     26  C   UNL     1       1.790  11.459  18.264  0.00  0.00    +0.000 C 
ENDBRANCH   1  26
TORSDOF 4
ENDMDL
MODEL 8
REMARK VINA RESULT:      -6.8      3.194      8.754
REMARK  Name = 
REMARK  8 active torsions:
REMARK  status: ('A' for Active; 'I' for Inactive)
REMARK    1  A    between atoms: C_1  and  C_2
REMARK    2  A    between atoms: C_2  and  C_3
REMARK    3  A    between atoms: C_3  and  N_4
REMARK    4  A    between atoms: C_3  and  C_15
REMARK    5  A    between atoms: N_7  and  C_8
REMARK    6  A    between atoms: N_7  and  C_9
REMARK    7  A    between atoms: C_22  and  C_23
REMARK    8  A    between atoms: C_22  and  C_24
REMARK                            x       y       z     vdW  Elec       q    Type
REMARK                         _______ _______ _______ _____ _____    ______ ____
ROOT
ATOM      1  C   UNL     1       0.976  10.097  19.647  0.00  0.00    +0.000 C 
ENDROOT
BRANCH   1   2
ATOM      2  C   UNL     1       0.093  10.610  20.780  0.00  0.00    +0.000 A 
ATOM      3  C   UNL     1       0.039   9.889  22.000  0.00  0.00    +0.000 A 
ATOM      4  C   UNL     1      -0.824  10.271  23.031  0.00  0.00    +0.000 A 
ATOM      5  C   UNL     1      -1.622  11.376  22.833  0.00  0.00    +0.000 A 
ATOM      6  C   UNL     1      -1.580  12.104  21.661  0.00  0.00    +0.000 A 
ATOM      7  C   UNL     1      -0.741  11.732  20.620  0.00  0.00    +0.000 A 
ATOM      8  C   UNL     1      -2.564  13.209  21.719  0.00  0.00    +0.000 C 
ATOM      9  C   UNL     1      -3.048  13.074  23.185  0.00  0.00    +0.000 C 
ATOM     10  C   UNL     1      -2.528  14.216  24.065  0.00  0.00    +0.000 C 
ATOM     11  C   UNL     1      -4.577  13.023  23.255  0.00  0.00    +0.000 C 
ATOM     12  O   UNL     1      -2.535  11.832  23.745  0.00  0.00    +0.000 OA
ENDBRANCH   1   2
BRANCH   1  13
ATOM     13  N   UNL     1       1.307   8.691  19.876  0.00  0.00    +0.000 N 
ATOM     14  C   UNL     1       2.155   7.962  19.084  0.00  0.00    +0.000 C 
ATOM     15  O   UNL     1       2.722   8.442  18.106  0.00  0.00    +0.000 OA
ATOM     16  N   UNL     1       2.374   6.648  19.498  0.00  0.00    +0.000 N 
ATOM     17  C   UNL     1       1.690   5.993  20.614  0.00  0.00    +0.000 C 
ATOM     18  H   UNL     1       0.526   8.168  20.228  0.00  0.00    +0.000 HD
BRANCH  16  19
ATOM     19  C   UNL     1       3.243   5.809  18.636  0.00  0.00    +0.000 C 
ATOM     20  C   UNL     1       2.438   4.680  17.981  0.00  0.00    +0.000 C 
ATOM     21  C   UNL     1       3.343   3.771  17.163  0.00  0.00    +0.000 C 
ATOM     22  O   UNL     1       4.422   3.280  17.959  0.00  0.00    +0.000 OA
ATOM     23  C   UNL     1       5.265   4.332  18.423  0.00  0.00    +0.000 C 
ATOM     24  C   UNL     1       4.487   5.259  19.346  0.00  0.00    +0.000 C 
ENDBRANCH  16  19
ENDBRANCH   1  13
BRANCH   1  26
ATOM     25  C   UNL     1      -0.865   9.826  17.883  0.00  0.00    +0.000 C 
ATOM     26  C   UNL     1       0.487  10.445  18.225  0.00  0.00    +0.000 C 
ENDBRANCH   1  26
TORSDOF 4
ENDMDL
MODEL 9
REMARK VINA RESULT:      -6.7      2.705      4.164
REMARK  Name = 
REMARK  8 active torsions:
REMARK  status: ('A' for Active; 'I' for Inactive)
REMARK    1  A    between atoms: C_1  and  C_2
REMARK    2  A    between atoms: C_2  and  C_3
REMARK    3  A    between atoms: C_3  and  N_4
REMARK    4  A    between atoms: C_3  and  C_15
REMARK    5  A    between atoms: N_7  and  C_8
REMARK    6  A    between atoms: N_7  and  C_9
REMARK    7  A    between atoms: C_22  and  C_23
REMARK    8  A    between atoms: C_22  and  C_24
REMARK                            x       y       z     vdW  Elec       q    Type
REMARK                         _______ _______ _______ _____ _____    ______ ____
ROOT
ATOM      1  C   UNL     1       2.248   6.651  19.849  0.00  0.00    +0.000 C 
ENDROOT
BRANCH   1   2
ATOM      2  C   UNL     1       3.198   6.497  18.666  0.00  0.00    +0.000 A 
ATOM      3  C   UNL     1       3.560   7.641  17.911  0.00  0.00    +0.000 A 
ATOM      4  C   UNL     1       4.354   7.535  16.766  0.00  0.00    +0.000 A 
ATOM      5  C   UNL     1       4.784   6.281  16.388  0.00  0.00    +0.000 A 
ATOM      6  C   UNL     1       4.457   5.152  17.112  0.00  0.00    +0.000 A 
ATOM      7  C   UNL     1       3.658   5.235  18.243  0.00  0.00    +0.000 A 
ATOM      8  C   UNL     1       5.026   3.952  16.456  0.00  0.00    +0.000 C 
ATOM      9  C   UNL     1       5.862   4.618  15.334  0.00  0.00    +0.000 C 
ATOM     10  C   UNL     1       7.367   4.515  15.605  0.00  0.00    +0.000 C 
ATOM     11  C   UNL     1       5.540   4.001  13.970  0.00  0.00    +0.000 C 
ATOM     12  O   UNL     1       5.533   6.035  15.269  0.00  0.00    +0.000 OA
ENDBRANCH   1   2
BRANCH   1  13
ATOM     13  N   UNL     1       1.461   7.873  19.695  0.00  0.00    +0.000 N 
ATOM     14  C   UNL     1       1.269   8.795  20.691  0.00  0.00    +0.000 C 
ATOM     15  O   UNL     1       1.760   8.670  21.810  0.00  0.00    +0.000 OA
ATOM     16  N   UNL     1       0.523   9.916  20.329  0.00  0.00    +0.000 N 
ATOM     17  C   UNL     1      -0.140  10.104  19.037  0.00  0.00    +0.000 C 
ATOM     18  H   UNL     1       0.662   7.740  19.102  0.00  0.00    +0.000 HD
BRANCH  16  19
ATOM     19  C   UNL     1       0.246  10.910  21.395  0.00  0.00    +0.000 C 
ATOM     20  C   UNL     1      -1.072  10.591  22.113  0.00  0.00    +0.000 C 
ATOM     21  C   UNL     1      -1.397  11.656  23.149  0.00  0.00    +0.000 C 
ATOM     22  O   UNL     1      -1.401  12.955  22.559  0.00  0.00    +0.000 OA
ATOM     23  C   UNL     1      -0.120  13.311  22.043  0.00  0.00    +0.000 C 
ATOM     24  C   UNL     1       0.272  12.368  20.915  0.00  0.00    +0.000 C 
ENDBRANCH  16  19
ENDBRANCH   1  13
BRANCH   1  26
ATOM     25  C   UNL     1       2.149   4.508  21.255  0.00  0.00    +0.000 C 
ATOM     26  C   UNL     1       1.449   5.383  20.218  0.00  0.00    +0.000 C 
ENDBRANCH   1  26
TORSDOF 4
ENDMDL
