MODEL 1
REMARK VINA RESULT:      -8.8      0.000      0.000
REMARK  Name = 
REMARK  6 active torsions:
REMARK  status: ('A' for Active; 'I' for Inactive)
REMARK    1  A    between atoms: C_1  and  C_2
REMARK    2  A    between atoms: C_4  and  N_5
REMARK    3  A    between atoms: N_11  and  C_12
REMARK    4  A    between atoms: C_15  and  C_16
REMARK    5  A    between atoms: C_23  and  C_24
REMARK    6  A    between atoms: C_27  and  C_28
REMARK                            x       y       z     vdW  Elec       q    Type
REMARK                         _______ _______ _______ _____ _____    ______ ____
ROOT
ATOM      1  N   UNL     1      -1.518  12.195  23.332  0.00  0.00    +0.000 N 
ATOM      2  C   UNL     1      -2.808  12.723  23.092  0.00  0.00    +0.000 A 
ATOM      3  C   UNL     1      -3.405  13.507  24.052  0.00  0.00    +0.000 A 
ATOM      4  C   UNL     1      -4.689  13.925  23.785  0.00  0.00    +0.000 A 
ATOM      5  N   UNL     1      -5.368  13.599  22.670  0.00  0.00    +0.000 NA
ATOM      6  C   UNL     1      -4.708  12.858  21.773  0.00  0.00    +0.000 A 
ATOM      7  N   UNL     1      -5.377  12.487  20.609  0.00  0.00    +0.000 N 
ATOM      8  N   UNL     1      -3.456  12.425  21.960  0.00  0.00    +0.000 NA
ATOM      9  H   UNL     1      -0.908  12.912  23.709  0.00  0.00    +0.000 HD
ATOM     10  H   UNL     1      -6.354  12.731  20.644  0.00  0.00    +0.000 HD
ENDROOT
BRANCH   1  14
ATOM     11  C   UNL     1       0.861  11.421  19.113  0.00  0.00    +0.000 C 
ATOM     12  C   UNL     1       0.428  10.831  20.431  0.00  0.00    +0.000 A 
ATOM     13  C   UNL     1      -0.273  11.702  21.303  0.00  0.00    +0.000 A 
ATOM     14  C   UNL     1      -0.811  11.275  22.520  0.00  0.00    +0.000 A 
ATOM     15  C   UNL     1      -0.545   9.966  22.905  0.00  0.00    +0.000 A 
ATOM     16  C   UNL     1       0.176   9.097  22.075  0.00  0.00    +0.000 A 
ATOM     17  C   UNL     1       0.676   9.488  20.815  0.00  0.00    +0.000 A 
BRANCH  17  18
ATOM     18  C   UNL     1       1.413   8.480  19.995  0.00  0.00    +0.000 A 
ATOM     19  C   UNL     1       1.739   7.209  20.519  0.00  0.00    +0.000 A 
ATOM     20  C   UNL     1       2.461   6.261  19.780  0.00  0.00    +0.000 A 
ATOM     21  C   UNL     1       2.847   6.541  18.473  0.00  0.00    +0.000 A 
ATOM     22  C   UNL     1       2.535   7.783  17.924  0.00  0.00    +0.000 A 
ATOM     23  C   UNL     1       1.860   8.742  18.690  0.00  0.00    +0.000 A 
BRANCH  21  24
ATOM     24  C   UNL     1       3.570   5.574  17.702  0.00  0.00    +0.000 C 
ATOM     25  N   UNL     1       4.162   4.788  17.084  0.00  0.00    +0.000 NA
ENDBRANCH  21  24
ENDBRANCH  17  18
ENDBRANCH   1  14
BRANCH   7  26
ATOM     26  C   UNL     1      -4.831  12.161  19.361  0.00  0.00    +0.000 A 
ATOM     27  C   UNL     1      -5.675  11.971  18.261  0.00  0.00    +0.000 A 
ATOM     28  C   UNL     1      -5.157  11.561  17.024  0.00  0.00    +0.000 A 
ATOM     29  C   UNL     1      -3.787  11.348  16.871  0.00  0.00    +0.000 A 
ATOM     30  C   UNL     1      -2.933  11.541  17.954  0.00  0.00    +0.000 A 
ATOM     31  C   UNL     1      -3.457  11.933  19.188  0.00  0.00    +0.000 A 
BRANCH  29  32
ATOM     32  C   UNL     1      -3.259  10.916  15.612  0.00  0.00    +0.000 C 
ATOM     33  N   UNL     1      -2.837  10.568  14.586  0.00  0.00    +0.000 NA
ENDBRANCH  29  32
ENDBRANCH   7  26
TORSDOF 5
ENDMDL
MODEL 2
REMARK VINA RESULT:      -8.5      0.350      1.267
REMARK  Name = 
REMARK  6 active torsions:
REMARK  status: ('A' for Active; 'I' for Inactive)
REMARK    1  A    between atoms: C_1  and  C_2
REMARK    2  A    between atoms: C_4  and  N_5
REMARK    3  A    between atoms: N_11  and  C_12
REMARK    4  A    between atoms: C_15  and  C_16
REMARK    5  A    between atoms: C_23  and  C_24
REMARK    6  A    between atoms: C_27  and  C_28
REMARK                            x       y       z     vdW  Elec       q    Type
REMARK                         _______ _______ _______ _____ _____    ______ ____
ROOT
ATOM      1  N   UNL     1      -1.207  12.403  23.140  0.00  0.00    +0.000 N 
ATOM      2  C   UNL     1      -2.493  12.944  22.906  0.00  0.00    +0.000 A 
ATOM      3  C   UNL     1      -3.018  13.846  23.802  0.00  0.00    +0.000 A 
ATOM      4  C   UNL     1      -4.302  14.276  23.553  0.00  0.00    +0.000 A 
ATOM      5  N   UNL     1      -5.046  13.853  22.513  0.00  0.00    +0.000 NA
ATOM      6  C   UNL     1      -4.453  12.999  21.672  0.00  0.00    +0.000 A 
ATOM      7  N   UNL     1      -5.190  12.527  20.590  0.00  0.00    +0.000 N 
ATOM      8  N   UNL     1      -3.205  12.547  21.845  0.00  0.00    +0.000 NA
ATOM      9  H   UNL     1      -0.560  13.136  23.407  0.00  0.00    +0.000 HD
ATOM     10  H   UNL     1      -6.158  12.805  20.644  0.00  0.00    +0.000 HD
ENDROOT
BRANCH   1  14
ATOM     11  C   UNL     1       1.021  11.129  18.961  0.00  0.00    +0.000 C 
ATOM     12  C   UNL     1       0.592  10.683  20.336  0.00  0.00    +0.000 A 
ATOM     13  C   UNL     1      -0.041  11.665  21.139  0.00  0.00    +0.000 A 
ATOM     14  C   UNL     1      -0.568  11.378  22.401  0.00  0.00    +0.000 A 
ATOM     15  C   UNL     1      -0.358  10.096  22.898  0.00  0.00    +0.000 A 
ATOM     16  C   UNL     1       0.296   9.119  22.136  0.00  0.00    +0.000 A 
ATOM     17  C   UNL     1       0.782   9.369  20.836  0.00  0.00    +0.000 A 
BRANCH  17  18
ATOM     18  C   UNL     1       1.446   8.254  20.096  0.00  0.00    +0.000 A 
ATOM     19  C   UNL     1       1.927   8.434  18.779  0.00  0.00    +0.000 A 
ATOM     20  C   UNL     1       2.520   7.391  18.054  0.00  0.00    +0.000 A 
ATOM     21  C   UNL     1       2.688   6.139  18.639  0.00  0.00    +0.000 A 
ATOM     22  C   UNL     1       2.232   5.931  19.939  0.00  0.00    +0.000 A 
ATOM     23  C   UNL     1       1.592   6.965  20.636  0.00  0.00    +0.000 A 
BRANCH  21  24
ATOM     24  C   UNL     1       3.309   5.071  17.914  0.00  0.00    +0.000 C 
ATOM     25  N   UNL     1       3.807   4.206  17.318  0.00  0.00    +0.000 NA
ENDBRANCH  21  24
ENDBRANCH  17  18
ENDBRANCH   1  14
BRANCH   7  26
ATOM     26  C   UNL     1      -4.718  12.050  19.360  0.00  0.00    +0.000 A 
ATOM     27  C   UNL     1      -3.340  11.934  19.142  0.00  0.00    +0.000 A 
ATOM     28  C   UNL     1      -2.844  11.541  17.891  0.00  0.00    +0.000 A 
ATOM     29  C   UNL     1      -3.721  11.251  16.845  0.00  0.00    +0.000 A 
ATOM     30  C   UNL     1      -5.096  11.354  17.049  0.00  0.00    +0.000 A 
ATOM     31  C   UNL     1      -5.583  11.762  18.292  0.00  0.00    +0.000 A 
BRANCH  29  32
ATOM     32  C   UNL     1      -3.216  10.864  15.564  0.00  0.00    +0.000 C 
ATOM     33  N   UNL     1      -2.802  10.542  14.525  0.00  0.00    +0.000 NA
ENDBRANCH  29  32
ENDBRANCH   7  26
TORSDOF 5
ENDMDL
MODEL 3
REMARK VINA RESULT:      -8.2      0.545      1.014
REMARK  Name = 
REMARK  6 active torsions:
REMARK  status: ('A' for Active; 'I' for Inactive)
REMARK    1  A    between atoms: C_1  and  C_2
REMARK    2  A    between atoms: C_4  and  N_5
REMARK    3  A    between atoms: N_11  and  C_12
REMARK    4  A    between atoms: C_15  and  C_16
REMARK    5  A    between atoms: C_23  and  C_24
REMARK    6  A    between atoms: C_27  and  C_28
REMARK                            x       y       z     vdW  Elec       q    Type
REMARK                         _______ _______ _______ _____ _____    ______ ____
ROOT
ATOM      1  N   UNL     1      -1.321  12.960  23.064  0.00  0.00    +0.000 N 
ATOM      2  C   UNL     1      -2.642  13.436  22.895  0.00  0.00    +0.000 A 
ATOM      3  C   UNL     1      -3.152  14.342  23.797  0.00  0.00    +0.000 A 
ATOM      4  C   UNL     1      -4.468  14.706  23.616  0.00  0.00    +0.000 A 
ATOM      5  N   UNL     1      -5.254  14.219  22.638  0.00  0.00    +0.000 NA
ATOM      6  C   UNL     1      -4.675  13.366  21.786  0.00  0.00    +0.000 A 
ATOM      7  N   UNL     1      -5.455  12.827  20.765  0.00  0.00    +0.000 N 
ATOM      8  N   UNL     1      -3.400  12.975  21.893  0.00  0.00    +0.000 NA
ATOM      9  H   UNL     1      -0.693  13.729  23.269  0.00  0.00    +0.000 HD
ATOM     10  H   UNL     1      -6.429  13.064  20.872  0.00  0.00    +0.000 HD
ENDROOT
BRANCH   1  14
ATOM     11  C   UNL     1       1.470  11.845  19.188  0.00  0.00    +0.000 C 
ATOM     12  C   UNL     1       0.748  11.318  20.402  0.00  0.00    +0.000 A 
ATOM     13  C   UNL     1       0.098  12.286  21.209  0.00  0.00    +0.000 A 
ATOM     14  C   UNL     1      -0.682  11.942  22.316  0.00  0.00    +0.000 A 
ATOM     15  C   UNL     1      -0.719  10.597  22.670  0.00  0.00    +0.000 A 
ATOM     16  C   UNL     1      -0.054   9.627  21.908  0.00  0.00    +0.000 A 
ATOM     17  C   UNL     1       0.688   9.945  20.752  0.00  0.00    +0.000 A 
BRANCH  17  18
ATOM     18  C   UNL     1       1.341   8.834  19.995  0.00  0.00    +0.000 A 
ATOM     19  C   UNL     1       1.678   7.618  20.629  0.00  0.00    +0.000 A 
ATOM     20  C   UNL     1       2.324   6.577  19.947  0.00  0.00    +0.000 A 
ATOM     21  C   UNL     1       2.618   6.704  18.593  0.00  0.00    +0.000 A 
ATOM     22  C   UNL     1       2.292   7.889  17.937  0.00  0.00    +0.000 A 
ATOM     23  C   UNL     1       1.695   8.943  18.641  0.00  0.00    +0.000 A 
BRANCH  21  24
ATOM     24  C   UNL     1       3.262   5.640  17.882  0.00  0.00    +0.000 C 
ATOM     25  N   UNL     1       3.778   4.770  17.309  0.00  0.00    +0.000 NA
ENDBRANCH  21  24
ENDBRANCH  17  18
ENDBRANCH   1  14
BRANCH   7  26
ATOM     26  C   UNL     1      -5.037  12.335  19.522  0.00  0.00    +0.000 A 
ATOM     27  C   UNL     1      -3.731  11.854  19.368  0.00  0.00    +0.000 A 
ATOM     28  C   UNL     1      -3.266  11.437  18.113  0.00  0.00    +0.000 A 
ATOM     29  C   UNL     1      -4.106  11.484  16.999  0.00  0.00    +0.000 A 
ATOM     30  C   UNL     1      -5.411  11.952  17.139  0.00  0.00    +0.000 A 
ATOM     31  C   UNL     1      -5.863  12.382  18.388  0.00  0.00    +0.000 A 
BRANCH  29  32
ATOM     32  C   UNL     1      -3.628  11.072  15.715  0.00  0.00    +0.000 C 
ATOM     33  N   UNL     1      -3.248  10.735  14.669  0.00  0.00    +0.000 NA
ENDBRANCH  29  32
ENDBRANCH   7  26
TORSDOF 5
ENDMDL
MODEL 4
REMARK VINA RESULT:      -8.0      1.217      2.126
REMARK  Name = 
REMARK  6 active torsions:
REMARK  status: ('A' for Active; 'I' for Inactive)
REMARK    1  A    between atoms: C_1  and  C_2
REMARK    2  A    between atoms: C_4  and  N_5
REMARK    3  A    between atoms: N_11  and  C_12
REMARK    4  A    between atoms: C_15  and  C_16
REMARK    5  A    between atoms: C_23  and  C_24
REMARK    6  A    between atoms: C_27  and  C_28
REMARK                            x       y       z     vdW  Elec       q    Type
REMARK                         _______ _______ _______ _____ _____    ______ ____
ROOT
ATOM      1  N   UNL     1      -2.980  12.868  23.136  0.00  0.00    +0.000 N 
ATOM      2  C   UNL     1      -4.345  13.092  22.838  0.00  0.00    +0.000 A 
ATOM      3  C   UNL     1      -5.118  13.811  23.720  0.00  0.00    +0.000 A 
ATOM      4  C   UNL     1      -6.453  13.928  23.405  0.00  0.00    +0.000 A 
ATOM      5  N   UNL     1      -7.018  13.375  22.315  0.00  0.00    +0.000 NA
ATOM      6  C   UNL     1      -6.193  12.717  21.493  0.00  0.00    +0.000 A 
ATOM      7  N   UNL     1      -6.738  12.118  20.360  0.00  0.00    +0.000 N 
ATOM      8  N   UNL     1      -4.885  12.572  21.730  0.00  0.00    +0.000 NA
ATOM      9  H   UNL     1      -2.544  13.725  23.455  0.00  0.00    +0.000 HD
ATOM     10  H   UNL     1      -7.745  12.155  20.364  0.00  0.00    +0.000 HD
ENDROOT
BRANCH   1  14
ATOM     11  C   UNL     1       0.322   9.245  23.310  0.00  0.00    +0.000 C 
ATOM     12  C   UNL     1      -0.430  10.211  22.430  0.00  0.00    +0.000 A 
ATOM     13  C   UNL     1      -1.367  11.050  23.084  0.00  0.00    +0.000 A 
ATOM     14  C   UNL     1      -2.076  12.051  22.415  0.00  0.00    +0.000 A 
ATOM     15  C   UNL     1      -1.904  12.135  21.037  0.00  0.00    +0.000 A 
ATOM     16  C   UNL     1      -1.010  11.292  20.364  0.00  0.00    +0.000 A 
ATOM     17  C   UNL     1      -0.239  10.315  21.028  0.00  0.00    +0.000 A 
BRANCH  17  18
ATOM     18  C   UNL     1       0.703   9.481  20.222  0.00  0.00    +0.000 A 
ATOM     19  C   UNL     1       1.043   9.835  18.898  0.00  0.00    +0.000 A 
ATOM     20  C   UNL     1       1.897   9.048  18.112  0.00  0.00    +0.000 A 
ATOM     21  C   UNL     1       2.471   7.896  18.642  0.00  0.00    +0.000 A 
ATOM     22  C   UNL     1       2.161   7.523  19.948  0.00  0.00    +0.000 A 
ATOM     23  C   UNL     1       1.265   8.288  20.706  0.00  0.00    +0.000 A 
BRANCH  21  24
ATOM     24  C   UNL     1       3.358   7.094  17.854  0.00  0.00    +0.000 C 
ATOM     25  N   UNL     1       4.086   6.443  17.222  0.00  0.00    +0.000 NA
ENDBRANCH  21  24
ENDBRANCH  17  18
ENDBRANCH   1  14
BRANCH   7  26
ATOM     26  C   UNL     1      -6.102  11.811  19.150  0.00  0.00    +0.000 A 
ATOM     27  C   UNL     1      -5.367  10.625  19.033  0.00  0.00    +0.000 A 
ATOM     28  C   UNL     1      -4.652  10.340  17.861  0.00  0.00    +0.000 A 
ATOM     29  C   UNL     1      -4.673  11.233  16.789  0.00  0.00    +0.000 A 
ATOM     30  C   UNL     1      -5.406  12.413  16.888  0.00  0.00    +0.000 A 
ATOM     31  C   UNL     1      -6.102  12.700  18.064  0.00  0.00    +0.000 A 
BRANCH  29  32
ATOM     32  C   UNL     1      -3.932  10.950  15.597  0.00  0.00    +0.000 C 
ATOM     33  N   UNL     1      -3.323  10.725  14.632  0.00  0.00    +0.000 NA
ENDBRANCH  29  32
ENDBRANCH   7  26
TORSDOF 5
ENDMDL
MODEL 5
REMARK VINA RESULT:      -8.0      0.725      1.367
REMARK  Name = 
REMARK  6 active torsions:
REMARK  status: ('A' for Active; 'I' for Inactive)
REMARK    1  A    between atoms: C_1  and  C_2
REMARK    2  A    between atoms: C_4  and  N_5
REMARK    3  A    between atoms: N_11  and  C_12
REMARK    4  A    between atoms: C_15  and  C_16
REMARK    5  A    between atoms: C_23  and  C_24
REMARK    6  A    between atoms: C_27  and  C_28
REMARK                            x       y       z     vdW  Elec       q    Type
REMARK                         _______ _______ _______ _____ _____    ______ ____
ROOT
ATOM      1  N   UNL     1      -1.209  13.209  22.864  0.00  0.00    +0.000 N 
ATOM      2  C   UNL     1      -2.529  13.681  22.672  0.00  0.00    +0.000 A 
ATOM      3  C   UNL     1      -3.050  14.602  23.552  0.00  0.00    +0.000 A 
ATOM      4  C   UNL     1      -4.364  14.962  23.351  0.00  0.00    +0.000 A 
ATOM      5  N   UNL     1      -5.138  14.458  22.371  0.00  0.00    +0.000 NA
ATOM      6  C   UNL     1      -4.548  13.591  21.540  0.00  0.00    +0.000 A 
ATOM      7  N   UNL     1      -5.316  13.035  20.520  0.00  0.00    +0.000 N 
ATOM      8  N   UNL     1      -3.274  13.203  21.669  0.00  0.00    +0.000 NA
ATOM      9  H   UNL     1      -0.584  13.981  23.063  0.00  0.00    +0.000 HD
ATOM     10  H   UNL     1      -6.291  13.273  20.612  0.00  0.00    +0.000 HD
ENDROOT
BRANCH   1  14
ATOM     11  C   UNL     1      -0.563   8.383  22.272  0.00  0.00    +0.000 C 
ATOM     12  C   UNL     1      -0.219   9.762  21.769  0.00  0.00    +0.000 A 
ATOM     13  C   UNL     1      -0.846  10.843  22.438  0.00  0.00    +0.000 A 
ATOM     14  C   UNL     1      -0.562  12.179  22.141  0.00  0.00    +0.000 A 
ATOM     15  C   UNL     1       0.299  12.420  21.075  0.00  0.00    +0.000 A 
ATOM     16  C   UNL     1       0.903  11.366  20.376  0.00  0.00    +0.000 A 
ATOM     17  C   UNL     1       0.678  10.012  20.699  0.00  0.00    +0.000 A 
BRANCH  17  18
ATOM     18  C   UNL     1       1.388   8.962  19.907  0.00  0.00    +0.000 A 
ATOM     19  C   UNL     1       1.744   7.725  20.488  0.00  0.00    +0.000 A 
ATOM     20  C   UNL     1       2.442   6.740  19.774  0.00  0.00    +0.000 A 
ATOM     21  C   UNL     1       2.773   6.948  18.438  0.00  0.00    +0.000 A 
ATOM     22  C   UNL     1       2.430   8.155  17.834  0.00  0.00    +0.000 A 
ATOM     23  C   UNL     1       1.779   9.153  18.572  0.00  0.00    +0.000 A 
BRANCH  21  24
ATOM     24  C   UNL     1       3.470   5.942  17.693  0.00  0.00    +0.000 C 
ATOM     25  N   UNL     1       4.045   5.129  17.094  0.00  0.00    +0.000 NA
ENDBRANCH  21  24
ENDBRANCH  17  18
ENDBRANCH   1  14
BRANCH   7  26
ATOM     26  C   UNL     1      -4.884  12.522  19.290  0.00  0.00    +0.000 A 
ATOM     27  C   UNL     1      -5.767  12.483  18.205  0.00  0.00    +0.000 A 
ATOM     28  C   UNL     1      -5.382  11.895  16.991  0.00  0.00    +0.000 A 
ATOM     29  C   UNL     1      -4.105  11.350  16.846  0.00  0.00    +0.000 A 
ATOM     30  C   UNL     1      -3.213  11.389  17.915  0.00  0.00    +0.000 A 
ATOM     31  C   UNL     1      -3.608  11.960  19.127  0.00  0.00    +0.000 A 
BRANCH  29  32
ATOM     32  C   UNL     1      -3.717  10.737  15.613  0.00  0.00    +0.000 C 
ATOM     33  N   UNL     1      -3.409  10.237  14.609  0.00  0.00    +0.000 NA
ENDBRANCH  29  32
ENDBRANCH   7  26
TORSDOF 5
ENDMDL
MODEL 6
REMARK VINA RESULT:      -7.9      0.848      1.887
REMARK  Name = 
REMARK  6 active torsions:
REMARK  status: ('A' for Active; 'I' for Inactive)
REMARK    1  A    between atoms: C_1  and  C_2
REMARK    2  A    between atoms: C_4  and  N_5
REMARK    3  A    between atoms: N_11  and  C_12
REMARK    4  A    between atoms: C_15  and  C_16
REMARK    5  A    between atoms: C_23  and  C_24
REMARK    6  A    between atoms: C_27  and  C_28
REMARK                            x       y       z     vdW  Elec       q    Type
REMARK                         _______ _______ _______ _____ _____    ______ ____
ROOT
ATOM      1  N   UNL     1      -0.964  13.391  22.512  0.00  0.00    +0.000 N 
ATOM      2  C   UNL     1      -2.280  13.869  22.309  0.00  0.00    +0.000 A 
ATOM      3  C   UNL     1      -2.763  14.875  23.114  0.00  0.00    +0.000 A 
ATOM      4  C   UNL     1      -4.075  15.241  22.912  0.00  0.00    +0.000 A 
ATOM      5  N   UNL     1      -4.882  14.665  22.002  0.00  0.00    +0.000 NA
ATOM      6  C   UNL     1      -4.329  13.715  21.239  0.00  0.00    +0.000 A 
ATOM      7  N   UNL     1      -5.133  13.085  20.293  0.00  0.00    +0.000 N 
ATOM      8  N   UNL     1      -3.059  13.317  21.372  0.00  0.00    +0.000 NA
ATOM      9  H   UNL     1      -0.321  14.166  22.624  0.00  0.00    +0.000 HD
ATOM     10  H   UNL     1      -6.101  13.349  20.386  0.00  0.00    +0.000 HD
ENDROOT
BRANCH   1  14
ATOM     11  C   UNL     1      -0.452   8.517  22.315  0.00  0.00    +0.000 C 
ATOM     12  C   UNL     1      -0.079   9.839  21.696  0.00  0.00    +0.000 A 
ATOM     13  C   UNL     1      -0.669  10.989  22.279  0.00  0.00    +0.000 A 
ATOM     14  C   UNL     1      -0.353  12.287  21.869  0.00  0.00    +0.000 A 
ATOM     15  C   UNL     1       0.500  12.416  20.779  0.00  0.00    +0.000 A 
ATOM     16  C   UNL     1       1.068  11.292  20.163  0.00  0.00    +0.000 A 
ATOM     17  C   UNL     1       0.811   9.975  20.599  0.00  0.00    +0.000 A 
BRANCH  17  18
ATOM     18  C   UNL     1       1.483   8.845  19.890  0.00  0.00    +0.000 A 
ATOM     19  C   UNL     1       1.801   8.930  18.516  0.00  0.00    +0.000 A 
ATOM     20  C   UNL     1       2.398   7.868  17.822  0.00  0.00    +0.000 A 
ATOM     21  C   UNL     1       2.734   6.696  18.494  0.00  0.00    +0.000 A 
ATOM     22  C   UNL     1       2.441   6.583  19.851  0.00  0.00    +0.000 A 
ATOM     23  C   UNL     1       1.796   7.630  20.522  0.00  0.00    +0.000 A 
BRANCH  21  24
ATOM     24  C   UNL     1       3.362   5.611  17.799  0.00  0.00    +0.000 C 
ATOM     25  N   UNL     1       3.867   4.725  17.243  0.00  0.00    +0.000 NA
ENDBRANCH  21  24
ENDBRANCH  17  18
ENDBRANCH   1  14
BRANCH   7  26
ATOM     26  C   UNL     1      -4.741  12.454  19.105  0.00  0.00    +0.000 A 
ATOM     27  C   UNL     1      -3.442  11.945  18.983  0.00  0.00    +0.000 A 
ATOM     28  C   UNL     1      -3.003  11.388  17.774  0.00  0.00    +0.000 A 
ATOM     29  C   UNL     1      -3.861  11.323  16.676  0.00  0.00    +0.000 A 
ATOM     30  C   UNL     1      -5.159  11.817  16.784  0.00  0.00    +0.000 A 
ATOM     31  C   UNL     1      -5.585  12.387  17.986  0.00  0.00    +0.000 A 
BRANCH  29  32
ATOM     32  C   UNL     1      -3.409  10.767  15.437  0.00  0.00    +0.000 C 
ATOM     33  N   UNL     1      -3.048  10.309  14.430  0.00  0.00    +0.000 NA
ENDBRANCH  29  32
ENDBRANCH   7  26
TORSDOF 5
ENDMDL
MODEL 7
REMARK VINA RESULT:      -7.7      2.987      4.337
REMARK  Name = 
REMARK  6 active torsions:
REMARK  status: ('A' for Active; 'I' for Inactive)
REMARK    1  A    between atoms: C_1  and  C_2
REMARK    2  A    between atoms: C_4  and  N_5
REMARK    3  A    between atoms: N_11  and  C_12
REMARK    4  A    between atoms: C_15  and  C_16
REMARK    5  A    between atoms: C_23  and  C_24
REMARK    6  A    between atoms: C_27  and  C_28
REMARK                            x       y       z     vdW  Elec       q    Type
REMARK                         _______ _______ _______ _____ _____    ______ ____
ROOT
ATOM      1  N   UNL     1      -1.428  11.338  23.071  0.00  0.00    +0.000 N 
ATOM      2  C   UNL     1      -1.655  12.728  22.948  0.00  0.00    +0.000 A 
ATOM      3  C   UNL     1      -2.567  13.338  23.778  0.00  0.00    +0.000 A 
ATOM      4  C   UNL     1      -2.795  14.677  23.555  0.00  0.00    +0.000 A 
ATOM      5  N   UNL     1      -2.195  15.388  22.582  0.00  0.00    +0.000 NA
ATOM      6  C   UNL     1      -1.300  14.730  21.836  0.00  0.00    +0.000 A 
ATOM      7  N   UNL     1      -0.665  15.424  20.810  0.00  0.00    +0.000 N 
ATOM      8  N   UNL     1      -1.021  13.432  22.003  0.00  0.00    +0.000 NA
ATOM      9  H   UNL     1      -1.324  11.083  24.046  0.00  0.00    +0.000 HD
ATOM     10  H   UNL     1      -1.063  16.340  20.674  0.00  0.00    +0.000 HD
ENDROOT
BRANCH   1  14
ATOM     11  C   UNL     1      -0.207  10.151  18.471  0.00  0.00    +0.000 C 
ATOM     12  C   UNL     1       0.055   9.910  19.936  0.00  0.00    +0.000 A 
ATOM     13  C   UNL     1      -0.700  10.699  20.841  0.00  0.00    +0.000 A 
ATOM     14  C   UNL     1      -0.629  10.529  22.226  0.00  0.00    +0.000 A 
ATOM     15  C   UNL     1       0.301   9.612  22.704  0.00  0.00    +0.000 A 
ATOM     16  C   UNL     1       1.083   8.847  21.829  0.00  0.00    +0.000 A 
ATOM     17  C   UNL     1       0.984   8.958  20.426  0.00  0.00    +0.000 A 
BRANCH  17  18
ATOM     18  C   UNL     1       1.847   8.080  19.578  0.00  0.00    +0.000 A 
ATOM     19  C   UNL     1       2.184   6.771  19.989  0.00  0.00    +0.000 A 
ATOM     20  C   UNL     1       3.022   5.944  19.227  0.00  0.00    +0.000 A 
ATOM     21  C   UNL     1       3.518   6.388  18.005  0.00  0.00    +0.000 A 
ATOM     22  C   UNL     1       3.198   7.672  17.568  0.00  0.00    +0.000 A 
ATOM     23  C   UNL     1       2.404   8.509  18.363  0.00  0.00    +0.000 A 
BRANCH  21  24
ATOM     24  C   UNL     1       4.360   5.545  17.209  0.00  0.00    +0.000 C 
ATOM     25  N   UNL     1       5.038   4.865  16.554  0.00  0.00    +0.000 NA
ENDBRANCH  21  24
ENDBRANCH  17  18
ENDBRANCH   1  14
BRANCH   7  26
ATOM     26  C   UNL     1       0.583  15.162  20.229  0.00  0.00    +0.000 A 
ATOM     27  C   UNL     1       1.715  15.854  20.673  0.00  0.00    +0.000 A 
ATOM     28  C   UNL     1       2.957  15.670  20.048  0.00  0.00    +0.000 A 
ATOM     29  C   UNL     1       3.081  14.784  18.977  0.00  0.00    +0.000 A 
ATOM     30  C   UNL     1       1.965  14.081  18.529  0.00  0.00    +0.000 A 
ATOM     31  C   UNL     1       0.728  14.282  19.145  0.00  0.00    +0.000 A 
BRANCH  29  32
ATOM     32  C   UNL     1       4.345  14.606  18.329  0.00  0.00    +0.000 C 
ATOM     33  N   UNL     1       5.368  14.462  17.794  0.00  0.00    +0.000 NA
ENDBRANCH  29  32
ENDBRANCH   7  26
TORSDOF 5
ENDMDL
MODEL 8
REMARK VINA RESULT:      -7.6      3.862      5.115
REMARK  Name = 
REMARK  6 active torsions:
REMARK  status: ('A' for Active; 'I' for Inactive)
REMARK    1  A    between atoms: C_1  and  C_2
REMARK    2  A    between atoms: C_4  and  N_5
REMARK    3  A    between atoms: N_11  and  C_12
REMARK    4  A    between atoms: C_15  and  C_16
REMARK    5  A    between atoms: C_23  and  C_24
REMARK    6  A    between atoms: C_27  and  C_28
REMARK                            x       y       z     vdW  Elec       q    Type
REMARK                         _______ _______ _______ _____ _____    ______ ____
ROOT
ATOM      1  N   UNL     1      -2.285  13.602  21.204  0.00  0.00    +0.000 N 
ATOM      2  C   UNL     1      -2.216  14.966  20.837  0.00  0.00    +0.000 A 
ATOM      3  C   UNL     1      -3.191  15.832  21.276  0.00  0.00    +0.000 A 
ATOM      4  C   UNL     1      -3.105  17.128  20.820  0.00  0.00    +0.000 A 
ATOM      5  N   UNL     1      -2.149  17.566  19.979  0.00  0.00    +0.000 NA
ATOM      6  C   UNL     1      -1.222  16.670  19.622  0.00  0.00    +0.000 A 
ATOM      7  N   UNL     1      -0.222  17.077  18.744  0.00  0.00    +0.000 N 
ATOM      8  N   UNL     1      -1.237  15.397  20.034  0.00  0.00    +0.000 NA
ATOM      9  H   UNL     1      -2.493  13.513  22.192  0.00  0.00    +0.000 HD
ATOM     10  H   UNL     1      -0.396  17.999  18.377  0.00  0.00    +0.000 HD
ENDROOT
BRANCH   1  14
ATOM     11  C   UNL     1      -1.580  10.063  17.882  0.00  0.00    +0.000 C 
ATOM     12  C   UNL     1      -1.019  10.780  19.084  0.00  0.00    +0.000 A 
ATOM     13  C   UNL     1      -1.797  11.852  19.588  0.00  0.00    +0.000 A 
ATOM     14  C   UNL     1      -1.450  12.555  20.746  0.00  0.00    +0.000 A 
ATOM     15  C   UNL     1      -0.237  12.228  21.343  0.00  0.00    +0.000 A 
ATOM     16  C   UNL     1       0.565  11.194  20.842  0.00  0.00    +0.000 A 
ATOM     17  C   UNL     1       0.205  10.432  19.711  0.00  0.00    +0.000 A 
BRANCH  17  18
ATOM     18  C   UNL     1       1.119   9.336  19.268  0.00  0.00    +0.000 A 
ATOM     19  C   UNL     1       1.399   8.234  20.107  0.00  0.00    +0.000 A 
ATOM     20  C   UNL     1       2.282   7.214  19.726  0.00  0.00    +0.000 A 
ATOM     21  C   UNL     1       2.885   7.243  18.472  0.00  0.00    +0.000 A 
ATOM     22  C   UNL     1       2.624   8.313  17.619  0.00  0.00    +0.000 A 
ATOM     23  C   UNL     1       1.782   9.354  18.030  0.00  0.00    +0.000 A 
BRANCH  21  24
ATOM     24  C   UNL     1       3.774   6.197  18.065  0.00  0.00    +0.000 C 
ATOM     25  N   UNL     1       4.488   5.342  17.732  0.00  0.00    +0.000 NA
ENDBRANCH  21  24
ENDBRANCH  17  18
ENDBRANCH   1  14
BRANCH   7  26
ATOM     26  C   UNL     1       1.067  16.549  18.593  0.00  0.00    +0.000 A 
ATOM     27  C   UNL     1       2.007  17.225  17.806  0.00  0.00    +0.000 A 
ATOM     28  C   UNL     1       3.274  16.671  17.571  0.00  0.00    +0.000 A 
ATOM     29  C   UNL     1       3.619  15.440  18.131  0.00  0.00    +0.000 A 
ATOM     30  C   UNL     1       2.697  14.760  18.924  0.00  0.00    +0.000 A 
ATOM     31  C   UNL     1       1.431  15.308  19.139  0.00  0.00    +0.000 A 
BRANCH  29  32
ATOM     32  C   UNL     1       4.906  14.867  17.881  0.00  0.00    +0.000 C 
ATOM     33  N   UNL     1       5.949  14.395  17.675  0.00  0.00    +0.000 NA
ENDBRANCH  29  32
ENDBRANCH   7  26
TORSDOF 5
ENDMDL
MODEL 9
REMARK VINA RESULT:      -7.5      1.320      2.183
REMARK  Name = 
REMARK  6 active torsions:
REMARK  status: ('A' for Active; 'I' for Inactive)
REMARK    1  A    between atoms: C_1  and  C_2
REMARK    2  A    between atoms: C_4  and  N_5
REMARK    3  A    between atoms: N_11  and  C_12
REMARK    4  A    between atoms: C_15  and  C_16
REMARK    5  A    between atoms: C_23  and  C_24
REMARK    6  A    between atoms: C_27  and  C_28
REMARK                            x       y       z     vdW  Elec       q    Type
REMARK                         _______ _______ _______ _____ _____    ______ ____
ROOT
ATOM      1  N   UNL     1      -3.400  13.481  23.128  0.00  0.00    +0.000 N 
ATOM      2  C   UNL     1      -4.732  13.753  22.737  0.00  0.00    +0.000 A 
ATOM      3  C   UNL     1      -5.502  14.595  23.506  0.00  0.00    +0.000 A 
ATOM      4  C   UNL     1      -6.811  14.757  23.109  0.00  0.00    +0.000 A 
ATOM      5  N   UNL     1      -7.355  14.135  22.047  0.00  0.00    +0.000 NA
ATOM      6  C   UNL     1      -6.533  13.356  21.335  0.00  0.00    +0.000 A 
ATOM      7  N   UNL     1      -7.058  12.684  20.234  0.00  0.00    +0.000 N 
ATOM      8  N   UNL     1      -5.249  13.161  21.654  0.00  0.00    +0.000 NA
ATOM      9  H   UNL     1      -2.928  14.339  23.390  0.00  0.00    +0.000 HD
ATOM     10  H   UNL     1      -8.060  12.777  20.179  0.00  0.00    +0.000 HD
ENDROOT
BRANCH   1  14
ATOM     11  C   UNL     1      -1.466  11.714  18.982  0.00  0.00    +0.000 C 
ATOM     12  C   UNL     1      -1.477  11.640  20.487  0.00  0.00    +0.000 A 
ATOM     13  C   UNL     1      -2.332  12.557  21.150  0.00  0.00    +0.000 A 
ATOM     14  C   UNL     1      -2.514  12.550  22.536  0.00  0.00    +0.000 A 
ATOM     15  C   UNL     1      -1.734  11.663  23.271  0.00  0.00    +0.000 A 
ATOM     16  C   UNL     1      -0.856  10.772  22.640  0.00  0.00    +0.000 A 
ATOM     17  C   UNL     1      -0.702  10.720  21.239  0.00  0.00    +0.000 A 
BRANCH  17  18
ATOM     18  C   UNL     1       0.244   9.717  20.662  0.00  0.00    +0.000 A 
ATOM     19  C   UNL     1       0.798   9.892  19.374  0.00  0.00    +0.000 A 
ATOM     20  C   UNL     1       1.659   8.947  18.799  0.00  0.00    +0.000 A 
ATOM     21  C   UNL     1       2.026   7.810  19.514  0.00  0.00    +0.000 A 
ATOM     22  C   UNL     1       1.503   7.612  20.789  0.00  0.00    +0.000 A 
ATOM     23  C   UNL     1       0.602   8.537  21.333  0.00  0.00    +0.000 A 
BRANCH  21  24
ATOM     24  C   UNL     1       2.920   6.847  18.943  0.00  0.00    +0.000 C 
ATOM     25  N   UNL     1       3.652   6.069  18.485  0.00  0.00    +0.000 NA
ENDBRANCH  21  24
ENDBRANCH  17  18
ENDBRANCH   1  14
BRANCH   7  26
ATOM     26  C   UNL     1      -6.383  12.227  19.094  0.00  0.00    +0.000 A 
ATOM     27  C   UNL     1      -5.670  11.024  19.143  0.00  0.00    +0.000 A 
ATOM     28  C   UNL     1      -4.918  10.592  18.041  0.00  0.00    +0.000 A 
ATOM     29  C   UNL     1      -4.880  11.354  16.873  0.00  0.00    +0.000 A 
ATOM     30  C   UNL     1      -5.591  12.550  16.806  0.00  0.00    +0.000 A 
ATOM     31  C   UNL     1      -6.324  12.983  17.912  0.00  0.00    +0.000 A 
BRANCH  29  32
ATOM     32  C   UNL     1      -4.101  10.922  15.753  0.00  0.00    +0.000 C 
ATOM     33  N   UNL     1      -3.473  10.576  14.837  0.00  0.00    +0.000 NA
ENDBRANCH  29  32
ENDBRANCH   7  26
TORSDOF 5
ENDMDL
