MODEL 1
REMARK VINA RESULT:      -9.4      0.000      0.000
REMARK  Name = 
REMARK  7 active torsions:
REMARK  status: ('A' for Active; 'I' for Inactive)
REMARK    1  A    between atoms: C_1  and  C_2
REMARK    2  A    between atoms: N_4  and  C_5
REMARK    3  A    between atoms: C_5  and  C_6
REMARK    4  A    between atoms: N_9  and  C_10
REMARK    5  A    between atoms: C_10  and  C_11
REMARK    6  A    between atoms: N_21  and  C_22
REMARK    7  A    between atoms: C_26  and  C_27
REMARK                            x       y       z     vdW  Elec       q    Type
REMARK                         _______ _______ _______ _____ _____    ______ ____
ROOT
ATOM      1  C   UNL     1       7.769   6.938  18.043  0.00  0.00    +0.000 C 
ATOM      2  C   UNL     1       7.487   5.513  18.507  0.00  0.00    +0.000 C 
ATOM      3  C   UNL     1       6.110   5.355  19.145  0.00  0.00    +0.000 C 
ATOM      4  N   UNL     1       5.032   5.274  18.179  0.00  0.00    +0.000 N 
ATOM      5  C   UNL     1       5.207   4.464  17.035  0.00  0.00    +0.000 C 
ATOM      6  O   UNL     1       4.249   3.851  16.574  0.00  0.00    +0.000 OA
ATOM      7  N   UNL     1       6.481   4.615  16.433  0.00  0.00    +0.000 N 
ATOM      8  C   UNL     1       7.608   4.528  17.350  0.00  0.00    +0.000 C 
ENDROOT
BRANCH   7   9
ATOM      9  C   UNL     1       6.685   4.571  14.996  0.00  0.00    +0.000 A 
ATOM     10  C   UNL     1       7.719   5.303  14.392  0.00  0.00    +0.000 A 
ATOM     11  C   UNL     1       7.938   5.301  13.013  0.00  0.00    +0.000 A 
ATOM     12  C   UNL     1       7.154   4.505  12.185  0.00  0.00    +0.000 A 
ATOM     13  C   UNL     1       6.177   3.689  12.746  0.00  0.00    +0.000 A 
ATOM     14  C   UNL     1       5.933   3.736  14.140  0.00  0.00    +0.000 A 
BRANCH  13  15
ATOM     15  C   UNL     1       5.432   2.744  11.857  0.00  0.00    +0.000 C 
ATOM     16  N   UNL     1       4.273   3.012  11.341  0.00  0.00    +0.000 NA
ATOM     17  N   UNL     1       5.949   1.521  11.535  0.00  0.00    +0.000 N 
ATOM     18  H   UNL     1       3.960   3.957  11.577  0.00  0.00    +0.000 HD
ATOM     19  H   UNL     1       6.399   1.029  12.294  0.00  0.00    +0.000 HD
ATOM     20  H   UNL     1       5.229   0.956  11.094  0.00  0.00    +0.000 HD
ENDBRANCH  13  15
ENDBRANCH   7   9
BRANCH   4  21
ATOM     21  C   UNL     1       4.171   6.440  17.947  0.00  0.00    +0.000 C 
BRANCH  21  22
ATOM     22  C   UNL     1       2.639   6.214  17.855  0.00  0.00    +0.000 C 
ATOM     23  C   UNL     1       2.158   5.325  19.018  0.00  0.00    +0.000 C 
ATOM     24  C   UNL     1       2.342   6.009  20.379  0.00  0.00    +0.000 C 
ATOM     25  N   UNL     1       1.800   7.369  20.475  0.00  0.00    +0.000 NA
ATOM     26  C   UNL     1       1.999   8.206  19.284  0.00  0.00    +0.000 C 
ATOM     27  C   UNL     1       1.799   7.496  17.943  0.00  0.00    +0.000 C 
BRANCH  25  28
ATOM     28  C   UNL     1       0.442   7.437  21.023  0.00  0.00    +0.000 C 
BRANCH  28  29
ATOM     29  C   UNL     1       0.025   8.851  21.393  0.00  0.00    +0.000 A 
ATOM     30  C   UNL     1      -0.072   9.852  20.412  0.00  0.00    +0.000 A 
ATOM     31  C   UNL     1      -0.429  11.157  20.759  0.00  0.00    +0.000 A 
ATOM     32  C   UNL     1      -0.701  11.474  22.090  0.00  0.00    +0.000 A 
ATOM     33  C   UNL     1      -0.617  10.488  23.071  0.00  0.00    +0.000 A 
ATOM     34  C   UNL     1      -0.259   9.185  22.725  0.00  0.00    +0.000 A 
ENDBRANCH  28  29
ENDBRANCH  25  28
ENDBRANCH  21  22
ENDBRANCH   4  21
TORSDOF 6
ENDMDL
MODEL 2
REMARK VINA RESULT:      -9.2      0.720      1.055
REMARK  Name = 
REMARK  7 active torsions:
REMARK  status: ('A' for Active; 'I' for Inactive)
REMARK    1  A    between atoms: C_1  and  C_2
REMARK    2  A    between atoms: N_4  and  C_5
REMARK    3  A    between atoms: C_5  and  C_6
REMARK    4  A    between atoms: N_9  and  C_10
REMARK    5  A    between atoms: C_10  and  C_11
REMARK    6  A    between atoms: N_21  and  C_22
REMARK    7  A    between atoms: C_26  and  C_27
REMARK                            x       y       z     vdW  Elec       q    Type
REMARK                         _______ _______ _______ _____ _____    ______ ____
ROOT
ATOM      1  C   UNL     1       7.782   6.791  18.031  0.00  0.00    +0.000 C 
ATOM      2  C   UNL     1       7.429   5.377  18.479  0.00  0.00    +0.000 C 
ATOM      3  C   UNL     1       6.042   5.279  19.107  0.00  0.00    +0.000 C 
ATOM      4  N   UNL     1       4.967   5.259  18.134  0.00  0.00    +0.000 N 
ATOM      5  C   UNL     1       5.111   4.453  16.983  0.00  0.00    +0.000 C 
ATOM      6  O   UNL     1       4.127   3.891  16.510  0.00  0.00    +0.000 OA
ATOM      7  N   UNL     1       6.395   4.549  16.390  0.00  0.00    +0.000 N 
ATOM      8  C   UNL     1       7.510   4.398  17.312  0.00  0.00    +0.000 C 
ENDROOT
BRANCH   7   9
ATOM      9  C   UNL     1       6.606   4.509  14.954  0.00  0.00    +0.000 A 
ATOM     10  C   UNL     1       7.610   5.282  14.351  0.00  0.00    +0.000 A 
ATOM     11  C   UNL     1       7.835   5.285  12.973  0.00  0.00    +0.000 A 
ATOM     12  C   UNL     1       7.088   4.456  12.145  0.00  0.00    +0.000 A 
ATOM     13  C   UNL     1       6.143   3.601  12.704  0.00  0.00    +0.000 A 
ATOM     14  C   UNL     1       5.892   3.641  14.097  0.00  0.00    +0.000 A 
BRANCH  13  15
ATOM     15  C   UNL     1       5.442   2.623  11.815  0.00  0.00    +0.000 C 
ATOM     16  N   UNL     1       5.958   1.492  11.450  0.00  0.00    +0.000 NA
ATOM     17  N   UNL     1       4.190   2.880  11.331  0.00  0.00    +0.000 N 
ATOM     18  H   UNL     1       6.873   1.333  11.881  0.00  0.00    +0.000 HD
ATOM     19  H   UNL     1       4.031   3.830  11.026  0.00  0.00    +0.000 HD
ATOM     20  H   UNL     1       3.965   2.207  10.604  0.00  0.00    +0.000 HD
ENDBRANCH  13  15
ENDBRANCH   7   9
BRANCH   4  21
ATOM     21  C   UNL     1       4.165   6.467  17.908  0.00  0.00    +0.000 C 
BRANCH  21  22
ATOM     22  C   UNL     1       2.622   6.323  17.851  0.00  0.00    +0.000 C 
ATOM     23  C   UNL     1       2.093   5.698  19.157  0.00  0.00    +0.000 C 
ATOM     24  C   UNL     1       2.326   6.613  20.367  0.00  0.00    +0.000 C 
ATOM     25  N   UNL     1       1.870   7.997  20.203  0.00  0.00    +0.000 NA
ATOM     26  C   UNL     1       2.112   8.582  18.878  0.00  0.00    +0.000 C 
ATOM     27  C   UNL     1       1.863   7.648  17.692  0.00  0.00    +0.000 C 
BRANCH  25  28
ATOM     28  C   UNL     1       0.521   8.250  20.720  0.00  0.00    +0.000 C 
BRANCH  28  29
ATOM     29  C   UNL     1       0.072   9.688  20.520  0.00  0.00    +0.000 A 
ATOM     30  C   UNL     1      -0.829  10.024  19.495  0.00  0.00    +0.000 A 
ATOM     31  C   UNL     1      -1.218  11.350  19.297  0.00  0.00    +0.000 A 
ATOM     32  C   UNL     1      -0.718  12.355  20.125  0.00  0.00    +0.000 A 
ATOM     33  C   UNL     1       0.168  12.034  21.151  0.00  0.00    +0.000 A 
ATOM     34  C   UNL     1       0.560  10.709  21.349  0.00  0.00    +0.000 A 
ENDBRANCH  28  29
ENDBRANCH  25  28
ENDBRANCH  21  22
ENDBRANCH   4  21
TORSDOF 6
ENDMDL
MODEL 3
REMARK VINA RESULT:      -8.6      0.631      1.321
REMARK  Name = 
REMARK  7 active torsions:
REMARK  status: ('A' for Active; 'I' for Inactive)
REMARK    1  A    between atoms: C_1  and  C_2
REMARK    2  A    between atoms: N_4  and  C_5
REMARK    3  A    between atoms: C_5  and  C_6
REMARK    4  A    between atoms: N_9  and  C_10
REMARK    5  A    between atoms: C_10  and  C_11
REMARK    6  A    between atoms: N_21  and  C_22
REMARK    7  A    between atoms: C_26  and  C_27
REMARK                            x       y       z     vdW  Elec       q    Type
REMARK                         _______ _______ _______ _____ _____    ______ ____
ROOT
ATOM      1  C   UNL     1       7.871   6.832  18.321  0.00  0.00    +0.000 C 
ATOM      2  C   UNL     1       7.558   5.397  18.730  0.00  0.00    +0.000 C 
ATOM      3  C   UNL     1       6.184   5.246  19.375  0.00  0.00    +0.000 C 
ATOM      4  N   UNL     1       5.095   5.229  18.418  0.00  0.00    +0.000 N 
ATOM      5  C   UNL     1       5.240   4.463  17.240  0.00  0.00    +0.000 C 
ATOM      6  O   UNL     1       4.263   3.892  16.765  0.00  0.00    +0.000 OA
ATOM      7  N   UNL     1       6.512   4.608  16.632  0.00  0.00    +0.000 N 
ATOM      8  C   UNL     1       7.644   4.457  17.532  0.00  0.00    +0.000 C 
ENDROOT
BRANCH   7   9
ATOM      9  C   UNL     1       6.701   4.617  15.192  0.00  0.00    +0.000 A 
ATOM     10  C   UNL     1       7.713   5.391  14.603  0.00  0.00    +0.000 A 
ATOM     11  C   UNL     1       7.918   5.440  13.223  0.00  0.00    +0.000 A 
ATOM     12  C   UNL     1       7.142   4.658  12.376  0.00  0.00    +0.000 A 
ATOM     13  C   UNL     1       6.187   3.802  12.918  0.00  0.00    +0.000 A 
ATOM     14  C   UNL     1       5.957   3.797  14.315  0.00  0.00    +0.000 A 
BRANCH  13  15
ATOM     15  C   UNL     1       5.453   2.874  12.004  0.00  0.00    +0.000 C 
ATOM     16  N   UNL     1       5.908   1.713  11.649  0.00  0.00    +0.000 NA
ATOM     17  N   UNL     1       4.235   3.210  11.484  0.00  0.00    +0.000 N 
ATOM     18  H   UNL     1       6.798   1.496  12.105  0.00  0.00    +0.000 HD
ATOM     19  H   UNL     1       4.145   4.169  11.179  0.00  0.00    +0.000 HD
ATOM     20  H   UNL     1       3.990   2.555  10.748  0.00  0.00    +0.000 HD
ENDBRANCH  13  15
ENDBRANCH   7   9
BRANCH   4  21
ATOM     21  C   UNL     1       4.260   6.424  18.241  0.00  0.00    +0.000 C 
BRANCH  21  22
ATOM     22  C   UNL     1       2.730   6.232  18.081  0.00  0.00    +0.000 C 
ATOM     23  C   UNL     1       2.025   6.386  19.443  0.00  0.00    +0.000 C 
ATOM     24  C   UNL     1       2.155   7.809  20.001  0.00  0.00    +0.000 C 
ATOM     25  N   UNL     1       1.782   8.882  19.073  0.00  0.00    +0.000 NA
ATOM     26  C   UNL     1       2.204   8.678  17.680  0.00  0.00    +0.000 C 
ATOM     27  C   UNL     1       2.053   7.250  17.151  0.00  0.00    +0.000 C 
BRANCH  25  28
ATOM     28  C   UNL     1       0.394   9.337  19.206  0.00  0.00    +0.000 C 
BRANCH  28  29
ATOM     29  C   UNL     1       0.035   9.726  20.631  0.00  0.00    +0.000 A 
ATOM     30  C   UNL     1      -0.215   8.743  21.603  0.00  0.00    +0.000 A 
ATOM     31  C   UNL     1      -0.571   9.103  22.904  0.00  0.00    +0.000 A 
ATOM     32  C   UNL     1      -0.676  10.450  23.250  0.00  0.00    +0.000 A 
ATOM     33  C   UNL     1      -0.423  11.435  22.298  0.00  0.00    +0.000 A 
ATOM     34  C   UNL     1      -0.068  11.076  20.997  0.00  0.00    +0.000 A 
ENDBRANCH  28  29
ENDBRANCH  25  28
ENDBRANCH  21  22
ENDBRANCH   4  21
TORSDOF 6
ENDMDL
MODEL 4
REMARK VINA RESULT:      -8.5      3.245      9.617
REMARK  Name = 
REMARK  7 active torsions:
REMARK  status: ('A' for Active; 'I' for Inactive)
REMARK    1  A    between atoms: C_1  and  C_2
REMARK    2  A    between atoms: N_4  and  C_5
REMARK    3  A    between atoms: C_5  and  C_6
REMARK    4  A    between atoms: N_9  and  C_10
REMARK    5  A    between atoms: C_10  and  C_11
REMARK    6  A    between atoms: N_21  and  C_22
REMARK    7  A    between atoms: C_26  and  C_27
REMARK                            x       y       z     vdW  Elec       q    Type
REMARK                         _______ _______ _______ _____ _____    ______ ____
ROOT
ATOM      1  C   UNL     1      -0.615   8.911  22.501  0.00  0.00    +0.000 C 
ATOM      2  C   UNL     1       0.598   9.725  22.062  0.00  0.00    +0.000 C 
ATOM      3  C   UNL     1       1.772   8.856  21.619  0.00  0.00    +0.000 C 
ATOM      4  N   UNL     1       1.621   8.323  20.279  0.00  0.00    +0.000 N 
ATOM      5  C   UNL     1       1.152   9.180  19.259  0.00  0.00    +0.000 C 
ATOM      6  O   UNL     1       1.587   9.059  18.117  0.00  0.00    +0.000 OA
ATOM      7  N   UNL     1       0.055   9.982  19.663  0.00  0.00    +0.000 N 
ATOM      8  C   UNL     1       0.237  10.677  20.928  0.00  0.00    +0.000 C 
ENDROOT
BRANCH   7   9
ATOM      9  C   UNL     1      -1.041  10.326  18.775  0.00  0.00    +0.000 A 
ATOM     10  C   UNL     1      -1.178   9.703  17.525  0.00  0.00    +0.000 A 
ATOM     11  C   UNL     1      -2.208  10.016  16.635  0.00  0.00    +0.000 A 
ATOM     12  C   UNL     1      -3.185  10.936  16.998  0.00  0.00    +0.000 A 
ATOM     13  C   UNL     1      -3.146  11.512  18.264  0.00  0.00    +0.000 A 
ATOM     14  C   UNL     1      -2.071  11.222  19.139  0.00  0.00    +0.000 A 
BRANCH  13  15
ATOM     15  C   UNL     1      -4.275  12.398  18.686  0.00  0.00    +0.000 C 
ATOM     16  N   UNL     1      -5.329  12.606  17.960  0.00  0.00    +0.000 NA
ATOM     17  N   UNL     1      -4.253  13.049  19.887  0.00  0.00    +0.000 N 
ATOM     18  H   UNL     1      -5.313  12.057  17.097  0.00  0.00    +0.000 HD
ATOM     19  H   UNL     1      -3.361  13.446  20.146  0.00  0.00    +0.000 HD
ATOM     20  H   UNL     1      -4.995  13.741  19.909  0.00  0.00    +0.000 HD
ENDBRANCH  13  15
ENDBRANCH   7   9
BRANCH   4  21
ATOM     21  C   UNL     1       1.237   6.920  20.090  0.00  0.00    +0.000 C 
BRANCH  21  22
ATOM     22  C   UNL     1       2.291   5.823  20.394  0.00  0.00    +0.000 C 
ATOM     23  C   UNL     1       1.753   4.436  19.991  0.00  0.00    +0.000 C 
ATOM     24  C   UNL     1       1.538   4.321  18.477  0.00  0.00    +0.000 C 
ATOM     25  N   UNL     1       2.681   4.721  17.649  0.00  0.00    +0.000 NA
ATOM     26  C   UNL     1       3.411   5.904  18.123  0.00  0.00    +0.000 C 
ATOM     27  C   UNL     1       3.617   5.986  19.638  0.00  0.00    +0.000 C 
BRANCH  25  28
ATOM     28  C   UNL     1       3.553   3.611  17.252  0.00  0.00    +0.000 C 
BRANCH  28  29
ATOM     29  C   UNL     1       4.860   4.079  16.633  0.00  0.00    +0.000 A 
ATOM     30  C   UNL     1       4.938   4.383  15.264  0.00  0.00    +0.000 A 
ATOM     31  C   UNL     1       6.147   4.786  14.693  0.00  0.00    +0.000 A 
ATOM     32  C   UNL     1       7.289   4.898  15.485  0.00  0.00    +0.000 A 
ATOM     33  C   UNL     1       7.223   4.608  16.846  0.00  0.00    +0.000 A 
ATOM     34  C   UNL     1       6.016   4.203  17.418  0.00  0.00    +0.000 A 
ENDBRANCH  28  29
ENDBRANCH  25  28
ENDBRANCH  21  22
ENDBRANCH   4  21
TORSDOF 6
ENDMDL
MODEL 5
REMARK VINA RESULT:      -8.5      3.243      9.659
REMARK  Name = 
REMARK  7 active torsions:
REMARK  status: ('A' for Active; 'I' for Inactive)
REMARK    1  A    between atoms: C_1  and  C_2
REMARK    2  A    between atoms: N_4  and  C_5
REMARK    3  A    between atoms: C_5  and  C_6
REMARK    4  A    between atoms: N_9  and  C_10
REMARK    5  A    between atoms: C_10  and  C_11
REMARK    6  A    between atoms: N_21  and  C_22
REMARK    7  A    between atoms: C_26  and  C_27
REMARK                            x       y       z     vdW  Elec       q    Type
REMARK                         _______ _______ _______ _____ _____    ______ ____
ROOT
ATOM      1  C   UNL     1      -0.589   8.908  22.511  0.00  0.00    +0.000 C 
ATOM      2  C   UNL     1       0.623   9.714  22.056  0.00  0.00    +0.000 C 
ATOM      3  C   UNL     1       1.785   8.838  21.599  0.00  0.00    +0.000 C 
ATOM      4  N   UNL     1       1.614   8.305  20.261  0.00  0.00    +0.000 N 
ATOM      5  C   UNL     1       1.136   9.164  19.246  0.00  0.00    +0.000 C 
ATOM      6  O   UNL     1       1.557   9.040  18.100  0.00  0.00    +0.000 OA
ATOM      7  N   UNL     1       0.050   9.973  19.664  0.00  0.00    +0.000 N 
ATOM      8  C   UNL     1       0.252  10.668  20.926  0.00  0.00    +0.000 C 
ENDROOT
BRANCH   7   9
ATOM      9  C   UNL     1      -1.056  10.322  18.790  0.00  0.00    +0.000 A 
ATOM     10  C   UNL     1      -1.153   9.781  17.499  0.00  0.00    +0.000 A 
ATOM     11  C   UNL     1      -2.190  10.103  16.622  0.00  0.00    +0.000 A 
ATOM     12  C   UNL     1      -3.214  10.947  17.036  0.00  0.00    +0.000 A 
ATOM     13  C   UNL     1      -3.213  11.436  18.339  0.00  0.00    +0.000 A 
ATOM     14  C   UNL     1      -2.132  11.140  19.203  0.00  0.00    +0.000 A 
BRANCH  13  15
ATOM     15  C   UNL     1      -4.388  12.235  18.808  0.00  0.00    +0.000 C 
ATOM     16  N   UNL     1      -4.596  12.537  20.051  0.00  0.00    +0.000 NA
ATOM     17  N   UNL     1      -5.325  12.698  17.928  0.00  0.00    +0.000 N 
ATOM     18  H   UNL     1      -3.839  12.206  20.656  0.00  0.00    +0.000 HD
ATOM     19  H   UNL     1      -5.591  12.050  17.200  0.00  0.00    +0.000 HD
ATOM     20  H   UNL     1      -6.130  13.040  18.442  0.00  0.00    +0.000 HD
ENDBRANCH  13  15
ENDBRANCH   7   9
BRANCH   4  21
ATOM     21  C   UNL     1       1.219   6.904  20.078  0.00  0.00    +0.000 C 
BRANCH  21  22
ATOM     22  C   UNL     1       2.258   5.800  20.405  0.00  0.00    +0.000 C 
ATOM     23  C   UNL     1       1.722   4.417  19.986  0.00  0.00    +0.000 C 
ATOM     24  C   UNL     1       1.543   4.307  18.466  0.00  0.00    +0.000 C 
ATOM     25  N   UNL     1       2.708   4.702  17.667  0.00  0.00    +0.000 NA
ATOM     26  C   UNL     1       3.434   5.880  18.162  0.00  0.00    +0.000 C 
ATOM     27  C   UNL     1       3.603   5.956  19.681  0.00  0.00    +0.000 C 
BRANCH  25  28
ATOM     28  C   UNL     1       3.583   3.588  17.288  0.00  0.00    +0.000 C 
BRANCH  28  29
ATOM     29  C   UNL     1       4.884   4.048  16.652  0.00  0.00    +0.000 A 
ATOM     30  C   UNL     1       6.055   4.172  17.420  0.00  0.00    +0.000 A 
ATOM     31  C   UNL     1       7.242   4.621  16.839  0.00  0.00    +0.000 A 
ATOM     32  C   UNL     1       7.275   4.945  15.483  0.00  0.00    +0.000 A 
ATOM     33  C   UNL     1       6.124   4.819  14.709  0.00  0.00    +0.000 A 
ATOM     34  C   UNL     1       4.936   4.372  15.289  0.00  0.00    +0.000 A 
ENDBRANCH  28  29
ENDBRANCH  25  28
ENDBRANCH  21  22
ENDBRANCH   4  21
TORSDOF 6
ENDMDL
MODEL 6
REMARK VINA RESULT:      -8.5      4.509     11.001
REMARK  Name = 
REMARK  7 active torsions:
REMARK  status: ('A' for Active; 'I' for Inactive)
REMARK    1  A    between atoms: C_1  and  C_2
REMARK    2  A    between atoms: N_4  and  C_5
REMARK    3  A    between atoms: C_5  and  C_6
REMARK    4  A    between atoms: N_9  and  C_10
REMARK    5  A    between atoms: C_10  and  C_11
REMARK    6  A    between atoms: N_21  and  C_22
REMARK    7  A    between atoms: C_26  and  C_27
REMARK                            x       y       z     vdW  Elec       q    Type
REMARK                         _______ _______ _______ _____ _____    ______ ____
ROOT
ATOM      1  C   UNL     1      -1.180  11.365  22.669  0.00  0.00    +0.000 C 
ATOM      2  C   UNL     1      -0.999  12.811  22.221  0.00  0.00    +0.000 C 
ATOM      3  C   UNL     1       0.323  13.052  21.499  0.00  0.00    +0.000 C 
ATOM      4  N   UNL     1       0.317  12.606  20.119  0.00  0.00    +0.000 N 
ATOM      5  C   UNL     1      -0.810  12.895  19.319  0.00  0.00    +0.000 C 
ATOM      6  O   UNL     1      -0.658  13.150  18.128  0.00  0.00    +0.000 OA
ATOM      7  N   UNL     1      -2.041  12.664  19.983  0.00  0.00    +0.000 N 
ATOM      8  C   UNL     1      -2.142  13.248  21.311  0.00  0.00    +0.000 C 
ENDROOT
BRANCH   7   9
ATOM      9  C   UNL     1      -3.216  12.144  19.306  0.00  0.00    +0.000 A 
ATOM     10  C   UNL     1      -3.096  11.396  18.125  0.00  0.00    +0.000 A 
ATOM     11  C   UNL     1      -4.201  10.892  17.436  0.00  0.00    +0.000 A 
ATOM     12  C   UNL     1      -5.481  11.073  17.946  0.00  0.00    +0.000 A 
ATOM     13  C   UNL     1      -5.646  11.728  19.164  0.00  0.00    +0.000 A 
ATOM     14  C   UNL     1      -4.523  12.275  19.829  0.00  0.00    +0.000 A 
BRANCH  13  15
ATOM     15  C   UNL     1      -7.015  11.799  19.761  0.00  0.00    +0.000 C 
ATOM     16  N   UNL     1      -7.737  10.753  20.020  0.00  0.00    +0.000 NA
ATOM     17  N   UNL     1      -7.589  12.999  20.073  0.00  0.00    +0.000 N 
ATOM     18  H   UNL     1      -7.239   9.884  19.811  0.00  0.00    +0.000 HD
ATOM     19  H   UNL     1      -7.449  13.734  19.394  0.00  0.00    +0.000 HD
ATOM     20  H   UNL     1      -8.574  12.859  20.279  0.00  0.00    +0.000 HD
ENDBRANCH  13  15
ENDBRANCH   7   9
BRANCH   4  21
ATOM     21  C   UNL     1       0.990  11.353  19.754  0.00  0.00    +0.000 C 
BRANCH  21  22
ATOM     22  C   UNL     1       0.116  10.097  19.504  0.00  0.00    +0.000 C 
ATOM     23  C   UNL     1       0.342   9.562  18.076  0.00  0.00    +0.000 C 
ATOM     24  C   UNL     1       1.775   9.053  17.873  0.00  0.00    +0.000 C 
ATOM     25  N   UNL     1       2.254   8.108  18.888  0.00  0.00    +0.000 NA
ATOM     26  C   UNL     1       1.853   8.418  20.267  0.00  0.00    +0.000 C 
ATOM     27  C   UNL     1       0.416   8.915  20.438  0.00  0.00    +0.000 C 
BRANCH  25  28
ATOM     28  C   UNL     1       2.079   6.698  18.527  0.00  0.00    +0.000 C 
BRANCH  28  29
ATOM     29  C   UNL     1       3.270   6.128  17.775  0.00  0.00    +0.000 A 
ATOM     30  C   UNL     1       3.372   4.748  17.529  0.00  0.00    +0.000 A 
ATOM     31  C   UNL     1       4.481   4.224  16.862  0.00  0.00    +0.000 A 
ATOM     32  C   UNL     1       5.498   5.074  16.428  0.00  0.00    +0.000 A 
ATOM     33  C   UNL     1       5.406   6.445  16.658  0.00  0.00    +0.000 A 
ATOM     34  C   UNL     1       4.298   6.969  17.326  0.00  0.00    +0.000 A 
ENDBRANCH  28  29
ENDBRANCH  25  28
ENDBRANCH  21  22
ENDBRANCH   4  21
TORSDOF 6
ENDMDL
MODEL 7
REMARK VINA RESULT:      -8.2      4.249     10.110
REMARK  Name = 
REMARK  7 active torsions:
REMARK  status: ('A' for Active; 'I' for Inactive)
REMARK    1  A    between atoms: C_1  and  C_2
REMARK    2  A    between atoms: N_4  and  C_5
REMARK    3  A    between atoms: C_5  and  C_6
REMARK    4  A    between atoms: N_9  and  C_10
REMARK    5  A    between atoms: C_10  and  C_11
REMARK    6  A    between atoms: N_21  and  C_22
REMARK    7  A    between atoms: C_26  and  C_27
REMARK                            x       y       z     vdW  Elec       q    Type
REMARK                         _______ _______ _______ _____ _____    ______ ____
ROOT
ATOM      1  C   UNL     1      -1.543  11.256  22.582  0.00  0.00    +0.000 C 
ATOM      2  C   UNL     1      -1.277  12.710  22.207  0.00  0.00    +0.000 C 
ATOM      3  C   UNL     1       0.145  12.947  21.707  0.00  0.00    +0.000 C 
ATOM      4  N   UNL     1       0.350  12.535  20.332  0.00  0.00    +0.000 N 
ATOM      5  C   UNL     1      -0.634  12.863  19.374  0.00  0.00    +0.000 C 
ATOM      6  O   UNL     1      -0.295  13.145  18.228  0.00  0.00    +0.000 OA
ATOM      7  N   UNL     1      -1.957  12.635  19.830  0.00  0.00    +0.000 N 
ATOM      8  C   UNL     1      -2.258  13.188  21.141  0.00  0.00    +0.000 C 
ENDROOT
BRANCH   7   9
ATOM      9  C   UNL     1      -3.018  12.151  18.965  0.00  0.00    +0.000 A 
ATOM     10  C   UNL     1      -4.367  12.353  19.296  0.00  0.00    +0.000 A 
ATOM     11  C   UNL     1      -5.416  11.890  18.500  0.00  0.00    +0.000 A 
ATOM     12  C   UNL     1      -5.146  11.250  17.296  0.00  0.00    +0.000 A 
ATOM     13  C   UNL     1      -3.827  11.108  16.877  0.00  0.00    +0.000 A 
ATOM     14  C   UNL     1      -2.770  11.540  17.715  0.00  0.00    +0.000 A 
BRANCH  13  15
ATOM     15  C   UNL     1      -3.560  10.536  15.521  0.00  0.00    +0.000 C 
ATOM     16  N   UNL     1      -2.369  10.352  15.044  0.00  0.00    +0.000 NA
ATOM     17  N   UNL     1      -4.585  10.168  14.695  0.00  0.00    +0.000 N 
ATOM     18  H   UNL     1      -1.644  10.600  15.723  0.00  0.00    +0.000 HD
ATOM     19  H   UNL     1      -5.373  10.800  14.676  0.00  0.00    +0.000 HD
ATOM     20  H   UNL     1      -4.220   9.990  13.764  0.00  0.00    +0.000 HD
ENDBRANCH  13  15
ENDBRANCH   7   9
BRANCH   4  21
ATOM     21  C   UNL     1       1.056  11.281  20.043  0.00  0.00    +0.000 C 
BRANCH  21  22
ATOM     22  C   UNL     1       0.218  10.051  19.609  0.00  0.00    +0.000 C 
ATOM     23  C   UNL     1       0.526   9.682  18.144  0.00  0.00    +0.000 C 
ATOM     24  C   UNL     1       1.976   9.216  17.961  0.00  0.00    +0.000 C 
ATOM     25  N   UNL     1       2.419   8.169  18.888  0.00  0.00    +0.000 NA
ATOM     26  C   UNL     1       1.943   8.317  20.270  0.00  0.00    +0.000 C 
ATOM     27  C   UNL     1       0.491   8.775  20.419  0.00  0.00    +0.000 C 
BRANCH  25  28
ATOM     28  C   UNL     1       2.288   6.806  18.364  0.00  0.00    +0.000 C 
BRANCH  28  29
ATOM     29  C   UNL     1       3.618   6.075  18.279  0.00  0.00    +0.000 A 
ATOM     30  C   UNL     1       4.664   6.577  17.486  0.00  0.00    +0.000 A 
ATOM     31  C   UNL     1       5.875   5.889  17.388  0.00  0.00    +0.000 A 
ATOM     32  C   UNL     1       6.057   4.695  18.087  0.00  0.00    +0.000 A 
ATOM     33  C   UNL     1       5.030   4.192  18.883  0.00  0.00    +0.000 A 
ATOM     34  C   UNL     1       3.819   4.878  18.980  0.00  0.00    +0.000 A 
ENDBRANCH  28  29
ENDBRANCH  25  28
ENDBRANCH  21  22
ENDBRANCH   4  21
TORSDOF 6
ENDMDL
MODEL 8
REMARK VINA RESULT:      -8.1      3.392      9.567
REMARK  Name = 
REMARK  7 active torsions:
REMARK  status: ('A' for Active; 'I' for Inactive)
REMARK    1  A    between atoms: C_1  and  C_2
REMARK    2  A    between atoms: N_4  and  C_5
REMARK    3  A    between atoms: C_5  and  C_6
REMARK    4  A    between atoms: N_9  and  C_10
REMARK    5  A    between atoms: C_10  and  C_11
REMARK    6  A    between atoms: N_21  and  C_22
REMARK    7  A    between atoms: C_26  and  C_27
REMARK                            x       y       z     vdW  Elec       q    Type
REMARK                         _______ _______ _______ _____ _____    ______ ____
ROOT
ATOM      1  C   UNL     1      -0.574   8.674  22.105  0.00  0.00    +0.000 C 
ATOM      2  C   UNL     1       0.492   9.702  21.740  0.00  0.00    +0.000 C 
ATOM      3  C   UNL     1       1.779   9.068  21.221  0.00  0.00    +0.000 C 
ATOM      4  N   UNL     1       1.694   8.638  19.838  0.00  0.00    +0.000 N 
ATOM      5  C   UNL     1       1.082   9.497  18.899  0.00  0.00    +0.000 C 
ATOM      6  O   UNL     1       1.515   9.546  17.751  0.00  0.00    +0.000 OA
ATOM      7  N   UNL     1      -0.119  10.081  19.374  0.00  0.00    +0.000 N 
ATOM      8  C   UNL     1      -0.029  10.682  20.695  0.00  0.00    +0.000 C 
ENDROOT
BRANCH   7   9
ATOM      9  C   UNL     1      -1.268  10.326  18.521  0.00  0.00    +0.000 A 
ATOM     10  C   UNL     1      -1.370   9.723  17.257  0.00  0.00    +0.000 A 
ATOM     11  C   UNL     1      -2.450   9.946  16.400  0.00  0.00    +0.000 A 
ATOM     12  C   UNL     1      -3.509  10.746  16.810  0.00  0.00    +0.000 A 
ATOM     13  C   UNL     1      -3.500  11.292  18.090  0.00  0.00    +0.000 A 
ATOM     14  C   UNL     1      -2.378  11.098  18.932  0.00  0.00    +0.000 A 
BRANCH  13  15
ATOM     15  C   UNL     1      -4.706  12.042  18.561  0.00  0.00    +0.000 C 
ATOM     16  N   UNL     1      -5.913  11.765  18.177  0.00  0.00    +0.000 NA
ATOM     17  N   UNL     1      -4.593  13.081  19.440  0.00  0.00    +0.000 N 
ATOM     18  H   UNL     1      -5.940  10.950  17.559  0.00  0.00    +0.000 HD
ATOM     19  H   UNL     1      -3.817  13.706  19.274  0.00  0.00    +0.000 HD
ATOM     20  H   UNL     1      -5.477  13.580  19.488  0.00  0.00    +0.000 HD
ENDBRANCH  13  15
ENDBRANCH   7   9
BRANCH   4  21
ATOM     21  C   UNL     1       1.528   7.213  19.526  0.00  0.00    +0.000 C 
BRANCH  21  22
ATOM     22  C   UNL     1       2.215   6.657  18.252  0.00  0.00    +0.000 C 
ATOM     23  C   UNL     1       3.744   6.613  18.442  0.00  0.00    +0.000 C 
ATOM     24  C   UNL     1       4.158   5.624  19.539  0.00  0.00    +0.000 C 
ATOM     25  N   UNL     1       3.589   4.277  19.416  0.00  0.00    +0.000 NA
ATOM     26  C   UNL     1       2.186   4.231  18.981  0.00  0.00    +0.000 C 
ATOM     27  C   UNL     1       1.806   5.224  17.880  0.00  0.00    +0.000 C 
BRANCH  25  28
ATOM     28  C   UNL     1       4.453   3.320  18.718  0.00  0.00    +0.000 C 
BRANCH  28  29
ATOM     29  C   UNL     1       5.270   3.962  17.609  0.00  0.00    +0.000 A 
ATOM     30  C   UNL     1       4.770   4.032  16.297  0.00  0.00    +0.000 A 
ATOM     31  C   UNL     1       5.534   4.597  15.274  0.00  0.00    +0.000 A 
ATOM     32  C   UNL     1       6.803   5.105  15.551  0.00  0.00    +0.000 A 
ATOM     33  C   UNL     1       7.307   5.050  16.849  0.00  0.00    +0.000 A 
ATOM     34  C   UNL     1       6.545   4.483  17.872  0.00  0.00    +0.000 A 
ENDBRANCH  28  29
ENDBRANCH  25  28
ENDBRANCH  21  22
ENDBRANCH   4  21
TORSDOF 6
ENDMDL
MODEL 9
REMARK VINA RESULT:      -8.1      3.437      9.575
REMARK  Name = 
REMARK  7 active torsions:
REMARK  status: ('A' for Active; 'I' for Inactive)
REMARK    1  A    between atoms: C_1  and  C_2
REMARK    2  A    between atoms: N_4  and  C_5
REMARK    3  A    between atoms: C_5  and  C_6
REMARK    4  A    between atoms: N_9  and  C_10
REMARK    5  A    between atoms: C_10  and  C_11
REMARK    6  A    between atoms: N_21  and  C_22
REMARK    7  A    between atoms: C_26  and  C_27
REMARK                            x       y       z     vdW  Elec       q    Type
REMARK                         _______ _______ _______ _____ _____    ______ ____
ROOT
ATOM      1  C   UNL     1      -0.638   8.698  22.052  0.00  0.00    +0.000 C 
ATOM      2  C   UNL     1       0.417   9.739  21.691  0.00  0.00    +0.000 C 
ATOM      3  C   UNL     1       1.717   9.120  21.186  0.00  0.00    +0.000 C 
ATOM      4  N   UNL     1       1.649   8.683  19.804  0.00  0.00    +0.000 N 
ATOM      5  C   UNL     1       1.034   9.529  18.856  0.00  0.00    +0.000 C 
ATOM      6  O   UNL     1       1.475   9.578  17.711  0.00  0.00    +0.000 OA
ATOM      7  N   UNL     1      -0.180  10.098  19.317  0.00  0.00    +0.000 N 
ATOM      8  C   UNL     1      -0.109  10.707  20.637  0.00  0.00    +0.000 C 
ENDROOT
BRANCH   7   9
ATOM      9  C   UNL     1      -1.325  10.323  18.453  0.00  0.00    +0.000 A 
ATOM     10  C   UNL     1      -1.398   9.728  17.184  0.00  0.00    +0.000 A 
ATOM     11  C   UNL     1      -2.473   9.932  16.317  0.00  0.00    +0.000 A 
ATOM     12  C   UNL     1      -3.556  10.704  16.721  0.00  0.00    +0.000 A 
ATOM     13  C   UNL     1      -3.574  11.240  18.005  0.00  0.00    +0.000 A 
ATOM     14  C   UNL     1      -2.457  11.065  18.858  0.00  0.00    +0.000 A 
BRANCH  13  15
ATOM     15  C   UNL     1      -4.802  11.957  18.468  0.00  0.00    +0.000 C 
ATOM     16  N   UNL     1      -4.771  13.042  19.179  0.00  0.00    +0.000 NA
ATOM     17  N   UNL     1      -6.050  11.495  18.158  0.00  0.00    +0.000 N 
ATOM     18  H   UNL     1      -3.813  13.366  19.338  0.00  0.00    +0.000 HD
ATOM     19  H   UNL     1      -6.167  10.494  18.220  0.00  0.00    +0.000 HD
ATOM     20  H   UNL     1      -6.741  11.992  18.713  0.00  0.00    +0.000 HD
ENDBRANCH  13  15
ENDBRANCH   7   9
BRANCH   4  21
ATOM     21  C   UNL     1       1.506   7.255  19.498  0.00  0.00    +0.000 C 
BRANCH  21  22
ATOM     22  C   UNL     1       2.218   6.700  18.237  0.00  0.00    +0.000 C 
ATOM     23  C   UNL     1       3.741   6.631  18.467  0.00  0.00    +0.000 C 
ATOM     24  C   UNL     1       4.111   5.625  19.564  0.00  0.00    +0.000 C 
ATOM     25  N   UNL     1       3.524   4.289  19.412  0.00  0.00    +0.000 NA
ATOM     26  C   UNL     1       2.133   4.268  18.940  0.00  0.00    +0.000 C 
ATOM     27  C   UNL     1       1.798   5.278  17.840  0.00  0.00    +0.000 C 
BRANCH  25  28
ATOM     28  C   UNL     1       4.393   3.325  18.729  0.00  0.00    +0.000 C 
BRANCH  28  29
ATOM     29  C   UNL     1       5.241   3.963  17.641  0.00  0.00    +0.000 A 
ATOM     30  C   UNL     1       6.516   4.479  17.934  0.00  0.00    +0.000 A 
ATOM     31  C   UNL     1       7.282   5.088  16.938  0.00  0.00    +0.000 A 
ATOM     32  C   UNL     1       6.787   5.184  15.638  0.00  0.00    +0.000 A 
ATOM     33  C   UNL     1       5.528   4.670  15.333  0.00  0.00    +0.000 A 
ATOM     34  C   UNL     1       4.761   4.062  16.327  0.00  0.00    +0.000 A 
ENDBRANCH  28  29
ENDBRANCH  25  28
ENDBRANCH  21  22
ENDBRANCH   4  21
TORSDOF 6
ENDMDL
