MODEL 1
REMARK VINA RESULT:      -6.6      0.000      0.000
REMARK  Name = 
REMARK  9 active torsions:
REMARK  status: ('A' for Active; 'I' for Inactive)
REMARK    1  A    between atoms: C_1  and  C_2
REMARK    2  A    between atoms: C_2  and  C_3
REMARK    3  A    between atoms: C_2  and  C_4
REMARK    4  A    between atoms: C_2  and  C_5
REMARK    5  A    between atoms: N_7  and  C_8
REMARK    6  A    between atoms: C_11  and  C_12
REMARK    7  A    between atoms: C_12  and  O_14
REMARK    8  A    between atoms: C_17  and  C_18
REMARK    9  A    between atoms: C_21  and  C_22
REMARK                            x       y       z     vdW  Elec       q    Type
REMARK                         _______ _______ _______ _____ _____    ______ ____
ROOT
ATOM      1  C   UNL     1       1.457  14.241  19.275  0.00  0.00    +0.000 C 
ATOM      2  N   UNL     1       0.290  14.036  18.743  0.00  0.00    +0.000 NA
ATOM      3  N   UNL     1      -0.222  12.913  19.318  0.00  0.00    +0.000 N 
ATOM      4  C   UNL     1       0.705  12.242  20.231  0.00  0.00    +0.000 C 
ATOM      5  C   UNL     1       1.891  13.207  20.280  0.00  0.00    +0.000 C 
ENDROOT
BRANCH   3   6
ATOM      6  C   UNL     1      -1.494  12.457  18.978  0.00  0.00    +0.000 A 
ATOM      7  C   UNL     1      -2.574  12.626  19.859  0.00  0.00    +0.000 A 
ATOM      8  C   UNL     1      -3.866  12.204  19.527  0.00  0.00    +0.000 A 
ATOM      9  C   UNL     1      -4.102  11.557  18.312  0.00  0.00    +0.000 A 
ATOM     10  C   UNL     1      -3.043  11.372  17.420  0.00  0.00    +0.000 A 
ATOM     11  C   UNL     1      -1.758  11.825  17.753  0.00  0.00    +0.000 A 
BRANCH   9  12
ATOM     12  C   UNL     1      -5.494  11.141  18.002  0.00  0.00    +0.000 C 
ATOM     13  O   UNL     1      -6.113  10.339  18.682  0.00  0.00    +0.000 OA
BRANCH  12  14
ATOM     14  O   UNL     1      -6.004  11.696  16.883  0.00  0.00    +0.000 OA
ATOM     15  H   UNL     1      -6.380  12.588  16.997  0.00  0.00    +0.000 HD
ENDBRANCH  12  14
ENDBRANCH   9  12
ENDBRANCH   3   6
BRANCH   4  16
ATOM     16  C   UNL     1       1.125  10.863  19.737  0.00  0.00    +0.000 A 
ATOM     17  C   UNL     1       1.026   9.725  20.556  0.00  0.00    +0.000 A 
ATOM     18  C   UNL     1       1.453   8.475  20.103  0.00  0.00    +0.000 A 
ATOM     19  C   UNL     1       1.971   8.326  18.812  0.00  0.00    +0.000 A 
ATOM     20  C   UNL     1       2.037   9.449  17.977  0.00  0.00    +0.000 A 
ATOM     21  C   UNL     1       1.616  10.704  18.432  0.00  0.00    +0.000 A 
BRANCH  19  22
ATOM     22  C   UNL     1       2.459   6.983  18.325  0.00  0.00    +0.000 C 
ATOM     23  F   UNL     1       1.543   6.303  17.580  0.00  0.00    +0.000 F 
ATOM     24  F   UNL     1       3.569   7.087  17.544  0.00  0.00    +0.000 F 
ATOM     25  F   UNL     1       2.799   6.151  19.348  0.00  0.00    +0.000 F 
ENDBRANCH  19  22
ENDBRANCH   4  16
BRANCH   1  27
ATOM     26  C   UNL     1       1.433  16.667  18.595  0.00  0.00    +0.000 C 
ATOM     27  C   UNL     1       2.319  15.458  18.941  0.00  0.00    +0.000 C 
ATOM     28  C   UNL     1       3.216  15.138  17.739  0.00  0.00    +0.000 C 
ATOM     29  C   UNL     1       3.186  15.817  20.155  0.00  0.00    +0.000 C 
ENDBRANCH   1  27
TORSDOF 6
ENDMDL
MODEL 2
REMARK VINA RESULT:      -6.6      3.459      4.706
REMARK  Name = 
REMARK  9 active torsions:
REMARK  status: ('A' for Active; 'I' for Inactive)
REMARK    1  A    between atoms: C_1  and  C_2
REMARK    2  A    between atoms: C_2  and  C_3
REMARK    3  A    between atoms: C_2  and  C_4
REMARK    4  A    between atoms: C_2  and  C_5
REMARK    5  A    between atoms: N_7  and  C_8
REMARK    6  A    between atoms: C_11  and  C_12
REMARK    7  A    between atoms: C_12  and  O_14
REMARK    8  A    between atoms: C_17  and  C_18
REMARK    9  A    between atoms: C_21  and  C_22
REMARK                            x       y       z     vdW  Elec       q    Type
REMARK                         _______ _______ _______ _____ _____    ______ ____
ROOT
ATOM      1  C   UNL     1       1.901  14.113  20.296  0.00  0.00    +0.000 C 
ATOM      2  N   UNL     1       0.880  14.264  21.084  0.00  0.00    +0.000 NA
ATOM      3  N   UNL     1       0.247  13.061  21.157  0.00  0.00    +0.000 N 
ATOM      4  C   UNL     1       0.813  12.041  20.273  0.00  0.00    +0.000 C 
ATOM      5  C   UNL     1       2.046  12.740  19.696  0.00  0.00    +0.000 C 
ENDROOT
BRANCH   3   6
ATOM      6  C   UNL     1      -0.874  12.895  21.968  0.00  0.00    +0.000 A 
ATOM      7  C   UNL     1      -1.806  13.935  22.120  0.00  0.00    +0.000 A 
ATOM      8  C   UNL     1      -2.955  13.783  22.905  0.00  0.00    +0.000 A 
ATOM      9  C   UNL     1      -3.180  12.590  23.596  0.00  0.00    +0.000 A 
ATOM     10  C   UNL     1      -2.264  11.542  23.464  0.00  0.00    +0.000 A 
ATOM     11  C   UNL     1      -1.131  11.698  22.653  0.00  0.00    +0.000 A 
BRANCH   9  12
ATOM     12  C   UNL     1      -4.421  12.475  24.403  0.00  0.00    +0.000 C 
ATOM     13  O   UNL     1      -5.514  12.249  23.909  0.00  0.00    +0.000 OA
BRANCH  12  14
ATOM     14  O   UNL     1      -4.245  12.678  25.725  0.00  0.00    +0.000 OA
ATOM     15  H   UNL     1      -5.054  12.612  26.265  0.00  0.00    +0.000 HD
ENDBRANCH  12  14
ENDBRANCH   9  12
ENDBRANCH   3   6
BRANCH   4  16
ATOM     16  C   UNL     1      -0.151  11.610  19.176  0.00  0.00    +0.000 A 
ATOM     17  C   UNL     1      -1.070  12.507  18.607  0.00  0.00    +0.000 A 
ATOM     18  C   UNL     1      -1.975  12.086  17.630  0.00  0.00    +0.000 A 
ATOM     19  C   UNL     1      -1.970  10.761  17.181  0.00  0.00    +0.000 A 
ATOM     20  C   UNL     1      -1.032   9.870  17.717  0.00  0.00    +0.000 A 
ATOM     21  C   UNL     1      -0.129  10.289  18.701  0.00  0.00    +0.000 A 
BRANCH  19  22
ATOM     22  C   UNL     1      -2.963  10.293  16.145  0.00  0.00    +0.000 C 
ATOM     23  F   UNL     1      -4.051  11.103  16.021  0.00  0.00    +0.000 F 
ATOM     24  F   UNL     1      -2.415  10.213  14.901  0.00  0.00    +0.000 F 
ATOM     25  F   UNL     1      -3.452   9.051  16.417  0.00  0.00    +0.000 F 
ENDBRANCH  19  22
ENDBRANCH   4  16
BRANCH   1  27
ATOM     26  C   UNL     1       4.308  14.826  20.519  0.00  0.00    +0.000 C 
ATOM     27  C   UNL     1       2.909  15.229  20.021  0.00  0.00    +0.000 C 
ATOM     28  C   UNL     1       2.471  16.507  20.746  0.00  0.00    +0.000 C 
ATOM     29  C   UNL     1       2.982  15.488  18.510  0.00  0.00    +0.000 C 
ENDBRANCH   1  27
TORSDOF 6
ENDMDL
MODEL 3
REMARK VINA RESULT:      -6.6      3.526      4.797
REMARK  Name = 
REMARK  9 active torsions:
REMARK  status: ('A' for Active; 'I' for Inactive)
REMARK    1  A    between atoms: C_1  and  C_2
REMARK    2  A    between atoms: C_2  and  C_3
REMARK    3  A    between atoms: C_2  and  C_4
REMARK    4  A    between atoms: C_2  and  C_5
REMARK    5  A    between atoms: N_7  and  C_8
REMARK    6  A    between atoms: C_11  and  C_12
REMARK    7  A    between atoms: C_12  and  O_14
REMARK    8  A    between atoms: C_17  and  C_18
REMARK    9  A    between atoms: C_21  and  C_22
REMARK                            x       y       z     vdW  Elec       q    Type
REMARK                         _______ _______ _______ _____ _____    ______ ____
ROOT
ATOM      1  C   UNL     1       1.799  14.271  20.736  0.00  0.00    +0.000 C 
ATOM      2  N   UNL     1       0.723  14.428  21.446  0.00  0.00    +0.000 NA
ATOM      3  N   UNL     1       0.089  13.224  21.487  0.00  0.00    +0.000 N 
ATOM      4  C   UNL     1       0.720  12.196  20.659  0.00  0.00    +0.000 C 
ATOM      5  C   UNL     1       1.991  12.892  20.164  0.00  0.00    +0.000 C 
ENDROOT
BRANCH   3   6
ATOM      6  C   UNL     1      -1.087  13.064  22.216  0.00  0.00    +0.000 A 
ATOM      7  C   UNL     1      -1.378  11.844  22.847  0.00  0.00    +0.000 A 
ATOM      8  C   UNL     1      -2.538  11.669  23.610  0.00  0.00    +0.000 A 
ATOM      9  C   UNL     1      -3.465  12.707  23.725  0.00  0.00    +0.000 A 
ATOM     10  C   UNL     1      -3.202  13.930  23.102  0.00  0.00    +0.000 A 
ATOM     11  C   UNL     1      -2.022  14.101  22.363  0.00  0.00    +0.000 A 
BRANCH   9  12
ATOM     12  C   UNL     1      -4.673  12.475  24.556  0.00  0.00    +0.000 C 
ATOM     13  O   UNL     1      -5.785  12.315  24.080  0.00  0.00    +0.000 OA
BRANCH  12  14
ATOM     14  O   UNL     1      -4.445  12.494  25.886  0.00  0.00    +0.000 OA
ATOM     15  H   UNL     1      -5.168  12.137  26.435  0.00  0.00    +0.000 HD
ENDBRANCH  12  14
ENDBRANCH   9  12
ENDBRANCH   3   6
BRANCH   4  16
ATOM     16  C   UNL     1      -0.160  11.748  19.499  0.00  0.00    +0.000 A 
ATOM     17  C   UNL     1      -0.599  12.651  18.515  0.00  0.00    +0.000 A 
ATOM     18  C   UNL     1      -1.439  12.234  17.481  0.00  0.00    +0.000 A 
ATOM     19  C   UNL     1      -1.846  10.899  17.391  0.00  0.00    +0.000 A 
ATOM     20  C   UNL     1      -1.384   9.985  18.348  0.00  0.00    +0.000 A 
ATOM     21  C   UNL     1      -0.547  10.404  19.389  0.00  0.00    +0.000 A 
BRANCH  19  22
ATOM     22  C   UNL     1      -2.776  10.446  16.291  0.00  0.00    +0.000 C 
ATOM     23  F   UNL     1      -4.087  10.409  16.661  0.00  0.00    +0.000 F 
ATOM     24  F   UNL     1      -2.721  11.258  15.200  0.00  0.00    +0.000 F 
ATOM     25  F   UNL     1      -2.480   9.195  15.841  0.00  0.00    +0.000 F 
ENDBRANCH  19  22
ENDBRANCH   4  16
BRANCH   1  27
ATOM     26  C   UNL     1       4.241  14.802  20.411  0.00  0.00    +0.000 C 
ATOM     27  C   UNL     1       2.822  15.386  20.522  0.00  0.00    +0.000 C 
ATOM     28  C   UNL     1       2.775  16.361  21.705  0.00  0.00    +0.000 C 
ATOM     29  C   UNL     1       2.496  16.133  19.221  0.00  0.00    +0.000 C 
ENDBRANCH   1  27
TORSDOF 6
ENDMDL
MODEL 4
REMARK VINA RESULT:      -6.5      3.486      4.676
REMARK  Name = 
REMARK  9 active torsions:
REMARK  status: ('A' for Active; 'I' for Inactive)
REMARK    1  A    between atoms: C_1  and  C_2
REMARK    2  A    between atoms: C_2  and  C_3
REMARK    3  A    between atoms: C_2  and  C_4
REMARK    4  A    between atoms: C_2  and  C_5
REMARK    5  A    between atoms: N_7  and  C_8
REMARK    6  A    between atoms: C_11  and  C_12
REMARK    7  A    between atoms: C_12  and  O_14
REMARK    8  A    between atoms: C_17  and  C_18
REMARK    9  A    between atoms: C_21  and  C_22
REMARK                            x       y       z     vdW  Elec       q    Type
REMARK                         _______ _______ _______ _____ _____    ______ ____
ROOT
ATOM      1  C   UNL     1       2.133  14.081  19.754  0.00  0.00    +0.000 C 
ATOM      2  N   UNL     1       1.167  14.329  20.585  0.00  0.00    +0.000 NA
ATOM      3  N   UNL     1       0.507  13.157  20.797  0.00  0.00    +0.000 N 
ATOM      4  C   UNL     1       0.989  12.050  19.971  0.00  0.00    +0.000 C 
ATOM      5  C   UNL     1       2.203  12.658  19.264  0.00  0.00    +0.000 C 
ENDROOT
BRANCH   3   6
ATOM      6  C   UNL     1      -0.566  13.097  21.684  0.00  0.00    +0.000 A 
ATOM      7  C   UNL     1      -0.925  11.882  22.291  0.00  0.00    +0.000 A 
ATOM      8  C   UNL     1      -1.979  11.801  23.207  0.00  0.00    +0.000 A 
ATOM      9  C   UNL     1      -2.734  12.936  23.510  0.00  0.00    +0.000 A 
ATOM     10  C   UNL     1      -2.400  14.156  22.916  0.00  0.00    +0.000 A 
ATOM     11  C   UNL     1      -1.323  14.229  22.020  0.00  0.00    +0.000 A 
BRANCH   9  12
ATOM     12  C   UNL     1      -3.832  12.800  24.500  0.00  0.00    +0.000 C 
ATOM     13  O   UNL     1      -4.605  11.856  24.506  0.00  0.00    +0.000 OA
BRANCH  12  14
ATOM     14  O   UNL     1      -3.929  13.828  25.368  0.00  0.00    +0.000 OA
ATOM     15  H   UNL     1      -4.690  13.786  25.976  0.00  0.00    +0.000 HD
ENDBRANCH  12  14
ENDBRANCH   9  12
ENDBRANCH   3   6
BRANCH   4  16
ATOM     16  C   UNL     1      -0.053  11.561  18.973  0.00  0.00    +0.000 A 
ATOM     17  C   UNL     1      -0.047  10.242  18.488  0.00  0.00    +0.000 A 
ATOM     18  C   UNL     1      -0.984   9.820  17.543  0.00  0.00    +0.000 A 
ATOM     19  C   UNL     1      -1.965  10.700  17.073  0.00  0.00    +0.000 A 
ATOM     20  C   UNL     1      -2.000  12.006  17.580  0.00  0.00    +0.000 A 
ATOM     21  C   UNL     1      -1.057  12.432  18.522  0.00  0.00    +0.000 A 
BRANCH  19  22
ATOM     22  C   UNL     1      -2.965  10.259  16.032  0.00  0.00    +0.000 C 
ATOM     23  F   UNL     1      -2.475  10.270  14.761  0.00  0.00    +0.000 F 
ATOM     24  F   UNL     1      -3.412   8.991  16.246  0.00  0.00    +0.000 F 
ATOM     25  F   UNL     1      -4.076  11.047  16.010  0.00  0.00    +0.000 F 
ENDBRANCH  19  22
ENDBRANCH   4  16
BRANCH   1  27
ATOM     26  C   UNL     1       2.626  16.548  19.633  0.00  0.00    +0.000 C 
ATOM     27  C   UNL     1       3.152  15.136  19.326  0.00  0.00    +0.000 C 
ATOM     28  C   UNL     1       3.412  15.017  17.819  0.00  0.00    +0.000 C 
ATOM     29  C   UNL     1       4.462  14.922  20.098  0.00  0.00    +0.000 C 
ENDBRANCH   1  27
TORSDOF 6
ENDMDL
MODEL 5
REMARK VINA RESULT:      -6.5      3.908      6.050
REMARK  Name = 
REMARK  9 active torsions:
REMARK  status: ('A' for Active; 'I' for Inactive)
REMARK    1  A    between atoms: C_1  and  C_2
REMARK    2  A    between atoms: C_2  and  C_3
REMARK    3  A    between atoms: C_2  and  C_4
REMARK    4  A    between atoms: C_2  and  C_5
REMARK    5  A    between atoms: N_7  and  C_8
REMARK    6  A    between atoms: C_11  and  C_12
REMARK    7  A    between atoms: C_12  and  O_14
REMARK    8  A    between atoms: C_17  and  C_18
REMARK    9  A    between atoms: C_21  and  C_22
REMARK                            x       y       z     vdW  Elec       q    Type
REMARK                         _______ _______ _______ _____ _____    ______ ____
ROOT
ATOM      1  C   UNL     1      -0.993  12.440  21.343  0.00  0.00    +0.000 C 
ATOM      2  N   UNL     1       0.121  13.101  21.256  0.00  0.00    +0.000 NA
ATOM      3  N   UNL     1       0.678  12.796  20.052  0.00  0.00    +0.000 N 
ATOM      4  C   UNL     1      -0.054  11.771  19.306  0.00  0.00    +0.000 C 
ATOM      5  C   UNL     1      -1.297  11.547  20.169  0.00  0.00    +0.000 C 
ENDROOT
BRANCH   3   6
ATOM      6  C   UNL     1       1.873  13.389  19.650  0.00  0.00    +0.000 A 
ATOM      7  C   UNL     1       2.128  13.636  18.291  0.00  0.00    +0.000 A 
ATOM      8  C   UNL     1       3.307  14.257  17.866  0.00  0.00    +0.000 A 
ATOM      9  C   UNL     1       4.287  14.612  18.795  0.00  0.00    +0.000 A 
ATOM     10  C   UNL     1       4.060  14.374  20.153  0.00  0.00    +0.000 A 
ATOM     11  C   UNL     1       2.862  13.774  20.569  0.00  0.00    +0.000 A 
BRANCH   9  12
ATOM     12  C   UNL     1       5.514  15.282  18.293  0.00  0.00    +0.000 C 
ATOM     13  O   UNL     1       6.336  14.719  17.590  0.00  0.00    +0.000 OA
BRANCH  12  14
ATOM     14  O   UNL     1       5.663  16.556  18.712  0.00  0.00    +0.000 OA
ATOM     15  H   UNL     1       6.580  16.885  18.719  0.00  0.00    +0.000 HD
ENDBRANCH  12  14
ENDBRANCH   9  12
ENDBRANCH   3   6
BRANCH   4  16
ATOM     16  C   UNL     1       0.745  10.486  19.130  0.00  0.00    +0.000 A 
ATOM     17  C   UNL     1       1.388  10.177  17.919  0.00  0.00    +0.000 A 
ATOM     18  C   UNL     1       2.082   8.976  17.760  0.00  0.00    +0.000 A 
ATOM     19  C   UNL     1       2.170   8.061  18.815  0.00  0.00    +0.000 A 
ATOM     20  C   UNL     1       1.563   8.379  20.037  0.00  0.00    +0.000 A 
ATOM     21  C   UNL     1       0.861   9.579  20.195  0.00  0.00    +0.000 A 
BRANCH  19  22
ATOM     22  C   UNL     1       2.897   6.749  18.642  0.00  0.00    +0.000 C 
ATOM     23  F   UNL     1       2.154   5.788  18.024  0.00  0.00    +0.000 F 
ATOM     24  F   UNL     1       4.030   6.878  17.899  0.00  0.00    +0.000 F 
ATOM     25  F   UNL     1       3.289   6.211  19.830  0.00  0.00    +0.000 F 
ENDBRANCH  19  22
ENDBRANCH   4  16
BRANCH   1  27
ATOM     26  C   UNL     1      -1.548  13.773  23.408  0.00  0.00    +0.000 C 
ATOM     27  C   UNL     1      -1.951  12.578  22.526  0.00  0.00    +0.000 C 
ATOM     28  C   UNL     1      -1.912  11.299  23.371  0.00  0.00    +0.000 C 
ATOM     29  C   UNL     1      -3.375  12.812  22.003  0.00  0.00    +0.000 C 
ENDBRANCH   1  27
TORSDOF 6
ENDMDL
MODEL 6
REMARK VINA RESULT:      -6.5      0.122      1.143
REMARK  Name = 
REMARK  9 active torsions:
REMARK  status: ('A' for Active; 'I' for Inactive)
REMARK    1  A    between atoms: C_1  and  C_2
REMARK    2  A    between atoms: C_2  and  C_3
REMARK    3  A    between atoms: C_2  and  C_4
REMARK    4  A    between atoms: C_2  and  C_5
REMARK    5  A    between atoms: N_7  and  C_8
REMARK    6  A    between atoms: C_11  and  C_12
REMARK    7  A    between atoms: C_12  and  O_14
REMARK    8  A    between atoms: C_17  and  C_18
REMARK    9  A    between atoms: C_21  and  C_22
REMARK                            x       y       z     vdW  Elec       q    Type
REMARK                         _______ _______ _______ _____ _____    ______ ____
ROOT
ATOM      1  C   UNL     1       1.446  14.311  19.332  0.00  0.00    +0.000 C 
ATOM      2  N   UNL     1       0.268  14.112  18.822  0.00  0.00    +0.000 NA
ATOM      3  N   UNL     1      -0.232  12.981  19.393  0.00  0.00    +0.000 N 
ATOM      4  C   UNL     1       0.713  12.299  20.278  0.00  0.00    +0.000 C 
ATOM      5  C   UNL     1       1.900  13.264  20.315  0.00  0.00    +0.000 C 
ENDROOT
BRANCH   3   6
ATOM      6  C   UNL     1      -1.511  12.529  19.073  0.00  0.00    +0.000 A 
ATOM      7  C   UNL     1      -1.768  11.934  17.828  0.00  0.00    +0.000 A 
ATOM      8  C   UNL     1      -3.036  11.445  17.494  0.00  0.00    +0.000 A 
ATOM      9  C   UNL     1      -4.098  11.580  18.391  0.00  0.00    +0.000 A 
ATOM     10  C   UNL     1      -3.869  12.173  19.636  0.00  0.00    +0.000 A 
ATOM     11  C   UNL     1      -2.587  12.635  19.968  0.00  0.00    +0.000 A 
BRANCH   9  12
ATOM     12  C   UNL     1      -5.420  11.032  17.995  0.00  0.00    +0.000 C 
ATOM     13  O   UNL     1      -6.025  10.212  18.666  0.00  0.00    +0.000 OA
BRANCH  12  14
ATOM     14  O   UNL     1      -5.879  11.488  16.811  0.00  0.00    +0.000 OA
ATOM     15  H   UNL     1      -5.211  11.920  16.248  0.00  0.00    +0.000 HD
ENDBRANCH  12  14
ENDBRANCH   9  12
ENDBRANCH   3   6
BRANCH   4  16
ATOM     16  C   UNL     1       1.122  10.927  19.759  0.00  0.00    +0.000 A 
ATOM     17  C   UNL     1       0.979   9.769  20.542  0.00  0.00    +0.000 A 
ATOM     18  C   UNL     1       1.397   8.524  20.068  0.00  0.00    +0.000 A 
ATOM     19  C   UNL     1       1.950   8.401  18.788  0.00  0.00    +0.000 A 
ATOM     20  C   UNL     1       2.062   9.545  17.987  0.00  0.00    +0.000 A 
ATOM     21  C   UNL     1       1.650  10.795  18.465  0.00  0.00    +0.000 A 
BRANCH  19  22
ATOM     22  C   UNL     1       2.429   7.063  18.279  0.00  0.00    +0.000 C 
ATOM     23  F   UNL     1       3.435   7.152  17.364  0.00  0.00    +0.000 F 
ATOM     24  F   UNL     1       2.903   6.268  19.277  0.00  0.00    +0.000 F 
ATOM     25  F   UNL     1       1.437   6.351  17.674  0.00  0.00    +0.000 F 
ENDBRANCH  19  22
ENDBRANCH   4  16
BRANCH   1  27
ATOM     26  C   UNL     1       1.407  16.733  18.641  0.00  0.00    +0.000 C 
ATOM     27  C   UNL     1       2.300  15.532  18.996  0.00  0.00    +0.000 C 
ATOM     28  C   UNL     1       3.205  15.213  17.799  0.00  0.00    +0.000 C 
ATOM     29  C   UNL     1       3.160  15.903  20.212  0.00  0.00    +0.000 C 
ENDBRANCH   1  27
TORSDOF 6
ENDMDL
MODEL 7
REMARK VINA RESULT:      -6.4      3.464      4.709
REMARK  Name = 
REMARK  9 active torsions:
REMARK  status: ('A' for Active; 'I' for Inactive)
REMARK    1  A    between atoms: C_1  and  C_2
REMARK    2  A    between atoms: C_2  and  C_3
REMARK    3  A    between atoms: C_2  and  C_4
REMARK    4  A    between atoms: C_2  and  C_5
REMARK    5  A    between atoms: N_7  and  C_8
REMARK    6  A    between atoms: C_11  and  C_12
REMARK    7  A    between atoms: C_12  and  O_14
REMARK    8  A    between atoms: C_17  and  C_18
REMARK    9  A    between atoms: C_21  and  C_22
REMARK                            x       y       z     vdW  Elec       q    Type
REMARK                         _______ _______ _______ _____ _____    ______ ____
ROOT
ATOM      1  C   UNL     1       2.026  13.999  19.724  0.00  0.00    +0.000 C 
ATOM      2  N   UNL     1       1.056  14.229  20.557  0.00  0.00    +0.000 NA
ATOM      3  N   UNL     1       0.406  13.049  20.753  0.00  0.00    +0.000 N 
ATOM      4  C   UNL     1       0.899  11.957  19.914  0.00  0.00    +0.000 C 
ATOM      5  C   UNL     1       2.108  12.584  19.217  0.00  0.00    +0.000 C 
ENDROOT
BRANCH   3   6
ATOM      6  C   UNL     1      -0.668  12.968  21.638  0.00  0.00    +0.000 A 
ATOM      7  C   UNL     1      -0.860  11.821  22.425  0.00  0.00    +0.000 A 
ATOM      8  C   UNL     1      -1.913  11.728  23.342  0.00  0.00    +0.000 A 
ATOM      9  C   UNL     1      -2.832  12.772  23.464  0.00  0.00    +0.000 A 
ATOM     10  C   UNL     1      -2.665  13.922  22.687  0.00  0.00    +0.000 A 
ATOM     11  C   UNL     1      -1.590  14.015  21.792  0.00  0.00    +0.000 A 
BRANCH   9  12
ATOM     12  C   UNL     1      -3.923  12.629  24.461  0.00  0.00    +0.000 C 
ATOM     13  O   UNL     1      -4.874  11.881  24.301  0.00  0.00    +0.000 OA
BRANCH  12  14
ATOM     14  O   UNL     1      -3.795  13.425  25.543  0.00  0.00    +0.000 OA
ATOM     15  H   UNL     1      -3.439  14.314  25.363  0.00  0.00    +0.000 HD
ENDBRANCH  12  14
ENDBRANCH   9  12
ENDBRANCH   3   6
BRANCH   4  16
ATOM     16  C   UNL     1      -0.137  11.471  18.908  0.00  0.00    +0.000 A 
ATOM     17  C   UNL     1      -0.154  10.143  18.450  0.00  0.00    +0.000 A 
ATOM     18  C   UNL     1      -1.085   9.723  17.498  0.00  0.00    +0.000 A 
ATOM     19  C   UNL     1      -2.037  10.615  16.993  0.00  0.00    +0.000 A 
ATOM     20  C   UNL     1      -2.050  11.932  17.473  0.00  0.00    +0.000 A 
ATOM     21  C   UNL     1      -1.113  12.355  18.423  0.00  0.00    +0.000 A 
BRANCH  19  22
ATOM     22  C   UNL     1      -3.029  10.176  15.944  0.00  0.00    +0.000 C 
ATOM     23  F   UNL     1      -4.261   9.876  16.444  0.00  0.00    +0.000 F 
ATOM     24  F   UNL     1      -3.236  11.129  14.994  0.00  0.00    +0.000 F 
ATOM     25  F   UNL     1      -2.619   9.063  15.273  0.00  0.00    +0.000 F 
ENDBRANCH  19  22
ENDBRANCH   4  16
BRANCH   1  27
ATOM     26  C   UNL     1       4.355  14.891  20.084  0.00  0.00    +0.000 C 
ATOM     27  C   UNL     1       3.036  15.068  19.311  0.00  0.00    +0.000 C 
ATOM     28  C   UNL     1       2.465  16.459  19.613  0.00  0.00    +0.000 C 
ATOM     29  C   UNL     1       3.327  14.941  17.809  0.00  0.00    +0.000 C 
ENDBRANCH   1  27
TORSDOF 6
ENDMDL
MODEL 8
REMARK VINA RESULT:      -6.4      0.636      1.481
REMARK  Name = 
REMARK  9 active torsions:
REMARK  status: ('A' for Active; 'I' for Inactive)
REMARK    1  A    between atoms: C_1  and  C_2
REMARK    2  A    between atoms: C_2  and  C_3
REMARK    3  A    between atoms: C_2  and  C_4
REMARK    4  A    between atoms: C_2  and  C_5
REMARK    5  A    between atoms: N_7  and  C_8
REMARK    6  A    between atoms: C_11  and  C_12
REMARK    7  A    between atoms: C_12  and  O_14
REMARK    8  A    between atoms: C_17  and  C_18
REMARK    9  A    between atoms: C_21  and  C_22
REMARK                            x       y       z     vdW  Elec       q    Type
REMARK                         _______ _______ _______ _____ _____    ______ ____
ROOT
ATOM      1  C   UNL     1       1.605  14.011  19.439  0.00  0.00    +0.000 C 
ATOM      2  N   UNL     1       0.460  13.819  18.857  0.00  0.00    +0.000 NA
ATOM      3  N   UNL     1      -0.172  12.819  19.530  0.00  0.00    +0.000 N 
ATOM      4  C   UNL     1       0.642  12.211  20.583  0.00  0.00    +0.000 C 
ATOM      5  C   UNL     1       1.894  13.090  20.595  0.00  0.00    +0.000 C 
ENDROOT
BRANCH   3   6
ATOM      6  C   UNL     1      -1.452  12.411  19.161  0.00  0.00    +0.000 A 
ATOM      7  C   UNL     1      -1.676  11.796  17.918  0.00  0.00    +0.000 A 
ATOM      8  C   UNL     1      -2.946  11.351  17.536  0.00  0.00    +0.000 A 
ATOM      9  C   UNL     1      -4.041  11.550  18.380  0.00  0.00    +0.000 A 
ATOM     10  C   UNL     1      -3.846  12.163  19.620  0.00  0.00    +0.000 A 
ATOM     11  C   UNL     1      -2.562  12.581  20.002  0.00  0.00    +0.000 A 
BRANCH   9  12
ATOM     12  C   UNL     1      -5.365  11.046  17.934  0.00  0.00    +0.000 C 
ATOM     13  O   UNL     1      -6.031  10.262  18.590  0.00  0.00    +0.000 OA
BRANCH  12  14
ATOM     14  O   UNL     1      -5.755  11.500  16.724  0.00  0.00    +0.000 OA
ATOM     15  H   UNL     1      -5.669  10.858  15.995  0.00  0.00    +0.000 HD
ENDBRANCH  12  14
ENDBRANCH   9  12
ENDBRANCH   3   6
BRANCH   4  16
ATOM     16  C   UNL     1       0.983  10.754  20.299  0.00  0.00    +0.000 A 
ATOM     17  C   UNL     1       0.915   9.771  21.300  0.00  0.00    +0.000 A 
ATOM     18  C   UNL     1       1.270   8.447  21.034  0.00  0.00    +0.000 A 
ATOM     19  C   UNL     1       1.683   8.067  19.752  0.00  0.00    +0.000 A 
ATOM     20  C   UNL     1       1.719   9.034  18.739  0.00  0.00    +0.000 A 
ATOM     21  C   UNL     1       1.370  10.363  19.007  0.00  0.00    +0.000 A 
BRANCH  19  22
ATOM     22  C   UNL     1       2.095   6.643  19.463  0.00  0.00    +0.000 C 
ATOM     23  F   UNL     1       1.409   5.716  20.189  0.00  0.00    +0.000 F 
ATOM     24  F   UNL     1       1.909   6.305  18.158  0.00  0.00    +0.000 F 
ATOM     25  F   UNL     1       3.413   6.419  19.723  0.00  0.00    +0.000 F 
ENDBRANCH  19  22
ENDBRANCH   4  16
BRANCH   1  27
ATOM     26  C   UNL     1       3.573  15.415  20.149  0.00  0.00    +0.000 C 
ATOM     27  C   UNL     1       2.577  15.112  19.017  0.00  0.00    +0.000 C 
ATOM     28  C   UNL     1       1.795  16.389  18.686  0.00  0.00    +0.000 C 
ATOM     29  C   UNL     1       3.364  14.650  17.782  0.00  0.00    +0.000 C 
ENDBRANCH   1  27
TORSDOF 6
ENDMDL
MODEL 9
REMARK VINA RESULT:      -6.4      3.880      5.987
REMARK  Name = 
REMARK  9 active torsions:
REMARK  status: ('A' for Active; 'I' for Inactive)
REMARK    1  A    between atoms: C_1  and  C_2
REMARK    2  A    between atoms: C_2  and  C_3
REMARK    3  A    between atoms: C_2  and  C_4
REMARK    4  A    between atoms: C_2  and  C_5
REMARK    5  A    between atoms: N_7  and  C_8
REMARK    6  A    between atoms: C_11  and  C_12
REMARK    7  A    between atoms: C_12  and  O_14
REMARK    8  A    between atoms: C_17  and  C_18
REMARK    9  A    between atoms: C_21  and  C_22
REMARK                            x       y       z     vdW  Elec       q    Type
REMARK                         _______ _______ _______ _____ _____    ______ ____
ROOT
ATOM      1  C   UNL     1      -1.082  12.428  21.369  0.00  0.00    +0.000 C 
ATOM      2  N   UNL     1       0.037  13.079  21.273  0.00  0.00    +0.000 NA
ATOM      3  N   UNL     1       0.582  12.767  20.065  0.00  0.00    +0.000 N 
ATOM      4  C   UNL     1      -0.164  11.747  19.326  0.00  0.00    +0.000 C 
ATOM      5  C   UNL     1      -1.403  11.535  20.200  0.00  0.00    +0.000 C 
ENDROOT
BRANCH   3   6
ATOM      6  C   UNL     1       1.779  13.349  19.653  0.00  0.00    +0.000 A 
ATOM      7  C   UNL     1       2.010  13.625  18.296  0.00  0.00    +0.000 A 
ATOM      8  C   UNL     1       3.192  14.236  17.861  0.00  0.00    +0.000 A 
ATOM      9  C   UNL     1       4.197  14.550  18.778  0.00  0.00    +0.000 A 
ATOM     10  C   UNL     1       3.993  14.282  20.134  0.00  0.00    +0.000 A 
ATOM     11  C   UNL     1       2.793  13.693  20.560  0.00  0.00    +0.000 A 
BRANCH   9  12
ATOM     12  C   UNL     1       5.425  15.211  18.267  0.00  0.00    +0.000 C 
ATOM     13  O   UNL     1       6.287  14.615  17.641  0.00  0.00    +0.000 OA
BRANCH  12  14
ATOM     14  O   UNL     1       5.527  16.518  18.586  0.00  0.00    +0.000 OA
ATOM     15  H   UNL     1       5.856  17.094  17.871  0.00  0.00    +0.000 HD
ENDBRANCH  12  14
ENDBRANCH   9  12
ENDBRANCH   3   6
BRANCH   4  16
ATOM     16  C   UNL     1       0.621  10.455  19.146  0.00  0.00    +0.000 A 
ATOM     17  C   UNL     1       0.820   9.558  20.209  0.00  0.00    +0.000 A 
ATOM     18  C   UNL     1       1.577   8.397  20.039  0.00  0.00    +0.000 A 
ATOM     19  C   UNL     1       2.138   8.092  18.794  0.00  0.00    +0.000 A 
ATOM     20  C   UNL     1       1.914   8.963  17.720  0.00  0.00    +0.000 A 
ATOM     21  C   UNL     1       1.161  10.130  17.892  0.00  0.00    +0.000 A 
BRANCH  19  22
ATOM     22  C   UNL     1       2.980   6.853  18.609  0.00  0.00    +0.000 C 
ATOM     23  F   UNL     1       4.146   7.076  17.940  0.00  0.00    +0.000 F 
ATOM     24  F   UNL     1       3.334   6.284  19.794  0.00  0.00    +0.000 F 
ATOM     25  F   UNL     1       2.330   5.881  17.909  0.00  0.00    +0.000 F 
ENDBRANCH  19  22
ENDBRANCH   4  16
BRANCH   1  27
ATOM     26  C   UNL     1      -2.039  11.290  23.404  0.00  0.00    +0.000 C 
ATOM     27  C   UNL     1      -2.029  12.576  22.559  0.00  0.00    +0.000 C 
ATOM     28  C   UNL     1      -3.451  12.851  22.054  0.00  0.00    +0.000 C 
ATOM     29  C   UNL     1      -1.558  13.739  23.443  0.00  0.00    +0.000 C 
ENDBRANCH   1  27
TORSDOF 6
ENDMDL
