MODEL 1
REMARK VINA RESULT:      -8.5      0.000      0.000
REMARK  Name = 
REMARK  7 active torsions:
REMARK  status: ('A' for Active; 'I' for Inactive)
REMARK    1  A    between atoms: C_1  and  N_2
REMARK    2  A    between atoms: C_5  and  C_6
REMARK    3  A    between atoms: C_9  and  C_10
REMARK    4  A    between atoms: C_14  and  N_15
REMARK    5  A    between atoms: N_15  and  C_16
REMARK    6  A    between atoms: C_16  and  C_17
REMARK    7  A    between atoms: N_20  and  C_21
REMARK                            x       y       z     vdW  Elec       q    Type
REMARK                         _______ _______ _______ _____ _____    ______ ____
ROOT
ATOM      1  C   UNL     1       2.091   7.237  20.112  0.00  0.00    +0.000 A 
ATOM      2  C   UNL     1       3.016   6.817  19.176  0.00  0.00    +0.000 A 
ATOM      3  C   UNL     1       3.254   5.424  19.362  0.00  0.00    +0.000 A 
ATOM      4  C   UNL     1       4.070   4.436  18.759  0.00  0.00    +0.000 A 
ATOM      5  C   UNL     1       3.992   3.150  19.331  0.00  0.00    +0.000 A 
ATOM      6  C   UNL     1       3.149   2.912  20.409  0.00  0.00    +0.000 A 
ATOM      7  N   UNL     1       2.356   3.826  21.001  0.00  0.00    +0.000 NA
ATOM      8  C   UNL     1       2.455   5.044  20.439  0.00  0.00    +0.000 A 
ATOM      9  N   UNL     1       1.755   6.137  20.864  0.00  0.00    +0.000 N 
ATOM     10  H   UNL     1       1.101   6.110  21.632  0.00  0.00    +0.000 HD
ENDROOT
BRANCH   1  15
ATOM     11  C   UNL     1      -1.281  11.846  20.414  0.00  0.00    +0.000 C 
ATOM     12  N   UNL     1      -0.667  10.535  20.198  0.00  0.00    +0.000 NA
ATOM     13  C   UNL     1       0.499  10.656  19.312  0.00  0.00    +0.000 C 
ATOM     14  C   UNL     1       1.129   9.292  19.038  0.00  0.00    +0.000 C 
ATOM     15  C   UNL     1       1.506   8.597  20.349  0.00  0.00    +0.000 C 
ATOM     16  C   UNL     1       0.295   8.537  21.289  0.00  0.00    +0.000 C 
ATOM     17  C   UNL     1      -0.303   9.926  21.485  0.00  0.00    +0.000 C 
ENDBRANCH   1  15
BRANCH   4  18
ATOM     18  C   UNL     1       4.966   4.764  17.634  0.00  0.00    +0.000 A 
ATOM     19  C   UNL     1       4.896   4.071  16.426  0.00  0.00    +0.000 A 
ATOM     20  C   UNL     1       5.786   4.387  15.410  0.00  0.00    +0.000 A 
ATOM     21  C   UNL     1       6.729   5.381  15.629  0.00  0.00    +0.000 A 
ATOM     22  C   UNL     1       6.737   6.068  16.840  0.00  0.00    +0.000 A 
ATOM     23  N   UNL     1       5.865   5.769  17.826  0.00  0.00    +0.000 NA
BRANCH  22  24
ATOM     24  N   UNL     1       7.682   7.096  16.979  0.00  0.00    +0.000 N 
ATOM     25  H   UNL     1       8.549   6.707  17.335  0.00  0.00    +0.000 HD
BRANCH  24  26
ATOM     26  C   UNL     1       7.254   8.314  17.660  0.00  0.00    +0.000 C 
BRANCH  26  27
ATOM     27  C   UNL     1       8.456   9.257  17.807  0.00  0.00    +0.000 C 
ATOM     28  C   UNL     1       9.082   9.238  19.210  0.00  0.00    +0.000 C 
ATOM     29  C   UNL     1       9.252  10.703  19.595  0.00  0.00    +0.000 C 
ATOM     30  N   UNL     1       9.181  11.402  18.313  0.00  0.00    +0.000 NA
ATOM     31  C   UNL     1       8.958  12.831  18.468  0.00  0.00    +0.000 C 
ATOM     32  C   UNL     1       8.106  10.726  17.578  0.00  0.00    +0.000 C 
ENDBRANCH  26  27
ENDBRANCH  24  26
ENDBRANCH  22  24
ENDBRANCH   4  18
TORSDOF 5
ENDMDL
MODEL 2
REMARK VINA RESULT:      -8.3      3.158      5.385
REMARK  Name = 
REMARK  7 active torsions:
REMARK  status: ('A' for Active; 'I' for Inactive)
REMARK    1  A    between atoms: C_1  and  N_2
REMARK    2  A    between atoms: C_5  and  C_6
REMARK    3  A    between atoms: C_9  and  C_10
REMARK    4  A    between atoms: C_14  and  N_15
REMARK    5  A    between atoms: N_15  and  C_16
REMARK    6  A    between atoms: C_16  and  C_17
REMARK    7  A    between atoms: N_20  and  C_21
REMARK                            x       y       z     vdW  Elec       q    Type
REMARK                         _______ _______ _______ _____ _____    ______ ____
ROOT
ATOM      1  C   UNL     1       2.203   7.011  20.099  0.00  0.00    +0.000 A 
ATOM      2  C   UNL     1       3.241   6.482  19.355  0.00  0.00    +0.000 A 
ATOM      3  C   UNL     1       3.359   5.095  19.660  0.00  0.00    +0.000 A 
ATOM      4  C   UNL     1       4.200   4.028  19.260  0.00  0.00    +0.000 A 
ATOM      5  C   UNL     1       3.952   2.789  19.886  0.00  0.00    +0.000 A 
ATOM      6  C   UNL     1       2.932   2.668  20.821  0.00  0.00    +0.000 A 
ATOM      7  N   UNL     1       2.110   3.659  21.219  0.00  0.00    +0.000 NA
ATOM      8  C   UNL     1       2.374   4.829  20.609  0.00  0.00    +0.000 A 
ATOM      9  N   UNL     1       1.683   5.983  20.848  0.00  0.00    +0.000 N 
ATOM     10  H   UNL     1       0.913   6.042  21.497  0.00  0.00    +0.000 HD
ENDROOT
BRANCH   1  15
ATOM     11  C   UNL     1      -0.981  11.750  19.771  0.00  0.00    +0.000 C 
ATOM     12  N   UNL     1      -0.419  10.399  19.731  0.00  0.00    +0.000 NA
ATOM     13  C   UNL     1       0.759  10.362  18.853  0.00  0.00    +0.000 C 
ATOM     14  C   UNL     1       1.336   8.950  18.761  0.00  0.00    +0.000 C 
ATOM     15  C   UNL     1       1.672   8.412  20.155  0.00  0.00    +0.000 C 
ATOM     16  C   UNL     1       0.451   8.518  21.077  0.00  0.00    +0.000 C 
ATOM     17  C   UNL     1      -0.092   9.944  21.089  0.00  0.00    +0.000 C 
ENDBRANCH   1  15
BRANCH   4  18
ATOM     18  C   UNL     1       5.285   4.232  18.282  0.00  0.00    +0.000 A 
ATOM     19  C   UNL     1       6.522   4.747  18.668  0.00  0.00    +0.000 A 
ATOM     20  C   UNL     1       7.498   4.960  17.706  0.00  0.00    +0.000 A 
ATOM     21  C   UNL     1       7.212   4.661  16.382  0.00  0.00    +0.000 A 
ATOM     22  C   UNL     1       5.974   4.117  16.050  0.00  0.00    +0.000 A 
ATOM     23  N   UNL     1       5.026   3.900  16.986  0.00  0.00    +0.000 NA
BRANCH  22  24
ATOM     24  N   UNL     1       5.767   3.790  14.702  0.00  0.00    +0.000 N 
ATOM     25  H   UNL     1       5.826   2.783  14.588  0.00  0.00    +0.000 HD
BRANCH  24  26
ATOM     26  C   UNL     1       6.521   4.544  13.704  0.00  0.00    +0.000 C 
BRANCH  26  27
ATOM     27  C   UNL     1       6.318   3.900  12.327  0.00  0.00    +0.000 C 
ATOM     28  C   UNL     1       4.845   3.825  11.896  0.00  0.00    +0.000 C 
ATOM     29  C   UNL     1       4.641   2.397  11.403  0.00  0.00    +0.000 C 
ATOM     30  N   UNL     1       6.002   1.931  11.141  0.00  0.00    +0.000 NA
ATOM     31  C   UNL     1       6.079   0.484  11.006  0.00  0.00    +0.000 C 
ATOM     32  C   UNL     1       6.797   2.451  12.258  0.00  0.00    +0.000 C 
ENDBRANCH  26  27
ENDBRANCH  24  26
ENDBRANCH  22  24
ENDBRANCH   4  18
TORSDOF 5
ENDMDL
MODEL 3
REMARK VINA RESULT:      -8.2      0.791      1.198
REMARK  Name = 
REMARK  7 active torsions:
REMARK  status: ('A' for Active; 'I' for Inactive)
REMARK    1  A    between atoms: C_1  and  N_2
REMARK    2  A    between atoms: C_5  and  C_6
REMARK    3  A    between atoms: C_9  and  C_10
REMARK    4  A    between atoms: C_14  and  N_15
REMARK    5  A    between atoms: N_15  and  C_16
REMARK    6  A    between atoms: C_16  and  C_17
REMARK    7  A    between atoms: N_20  and  C_21
REMARK                            x       y       z     vdW  Elec       q    Type
REMARK                         _______ _______ _______ _____ _____    ______ ____
ROOT
ATOM      1  C   UNL     1       1.884   6.931  20.283  0.00  0.00    +0.000 A 
ATOM      2  C   UNL     1       2.954   6.706  19.438  0.00  0.00    +0.000 A 
ATOM      3  C   UNL     1       3.365   5.348  19.575  0.00  0.00    +0.000 A 
ATOM      4  C   UNL     1       4.373   4.523  19.017  0.00  0.00    +0.000 A 
ATOM      5  C   UNL     1       4.417   3.201  19.506  0.00  0.00    +0.000 A 
ATOM      6  C   UNL     1       3.506   2.778  20.465  0.00  0.00    +0.000 A 
ATOM      7  N   UNL     1       2.533   3.533  21.010  0.00  0.00    +0.000 NA
ATOM      8  C   UNL     1       2.518   4.789  20.530  0.00  0.00    +0.000 A 
ATOM      9  N   UNL     1       1.629   5.745  20.930  0.00  0.00    +0.000 N 
ATOM     10  H   UNL     1       0.908   5.578  21.615  0.00  0.00    +0.000 HD
ENDROOT
BRANCH   1  15
ATOM     11  C   UNL     1       0.135  12.265  21.374  0.00  0.00    +0.000 C 
ATOM     12  N   UNL     1       0.869  11.022  21.136  0.00  0.00    +0.000 NA
ATOM     13  C   UNL     1       0.510  10.015  22.145  0.00  0.00    +0.000 C 
ATOM     14  C   UNL     1       1.298   8.722  21.941  0.00  0.00    +0.000 C 
ATOM     15  C   UNL     1       1.090   8.179  20.524  0.00  0.00    +0.000 C 
ATOM     16  C   UNL     1       1.406   9.262  19.486  0.00  0.00    +0.000 C 
ATOM     17  C   UNL     1       0.613  10.533  19.774  0.00  0.00    +0.000 C 
ENDBRANCH   1  15
BRANCH   4  18
ATOM     18  C   UNL     1       5.328   5.046  18.022  0.00  0.00    +0.000 A 
ATOM     19  C   UNL     1       5.358   4.555  16.718  0.00  0.00    +0.000 A 
ATOM     20  C   UNL     1       6.301   5.049  15.828  0.00  0.00    +0.000 A 
ATOM     21  C   UNL     1       7.196   6.015  16.267  0.00  0.00    +0.000 A 
ATOM     22  C   UNL     1       7.105   6.498  17.569  0.00  0.00    +0.000 A 
ATOM     23  N   UNL     1       6.181   6.026  18.433  0.00  0.00    +0.000 NA
BRANCH  22  24
ATOM     24  N   UNL     1       8.006   7.509  17.934  0.00  0.00    +0.000 N 
ATOM     25  H   UNL     1       8.396   7.297  18.846  0.00  0.00    +0.000 HD
BRANCH  24  26
ATOM     26  C   UNL     1       7.559   8.892  17.787  0.00  0.00    +0.000 C 
BRANCH  26  27
ATOM     27  C   UNL     1       8.748   9.833  18.022  0.00  0.00    +0.000 C 
ATOM     28  C   UNL     1       9.252   9.833  19.474  0.00  0.00    +0.000 C 
ATOM     29  C   UNL     1       9.395  11.303  19.851  0.00  0.00    +0.000 C 
ATOM     30  N   UNL     1       9.437  11.982  18.557  0.00  0.00    +0.000 NA
ATOM     31  C   UNL     1       9.208  13.414  18.672  0.00  0.00    +0.000 C 
ATOM     32  C   UNL     1       8.426  11.299  17.743  0.00  0.00    +0.000 C 
ENDBRANCH  26  27
ENDBRANCH  24  26
ENDBRANCH  22  24
ENDBRANCH   4  18
TORSDOF 5
ENDMDL
MODEL 4
REMARK VINA RESULT:      -8.1      3.044      6.755
REMARK  Name = 
REMARK  7 active torsions:
REMARK  status: ('A' for Active; 'I' for Inactive)
REMARK    1  A    between atoms: C_1  and  N_2
REMARK    2  A    between atoms: C_5  and  C_6
REMARK    3  A    between atoms: C_9  and  C_10
REMARK    4  A    between atoms: C_14  and  N_15
REMARK    5  A    between atoms: N_15  and  C_16
REMARK    6  A    between atoms: C_16  and  C_17
REMARK    7  A    between atoms: N_20  and  C_21
REMARK                            x       y       z     vdW  Elec       q    Type
REMARK                         _______ _______ _______ _____ _____    ______ ____
ROOT
ATOM      1  C   UNL     1       0.492  13.490  20.714  0.00  0.00    +0.000 A 
ATOM      2  C   UNL     1       0.875  12.262  20.207  0.00  0.00    +0.000 A 
ATOM      3  C   UNL     1       0.365  11.238  21.058  0.00  0.00    +0.000 A 
ATOM      4  C   UNL     1       0.413   9.824  21.098  0.00  0.00    +0.000 A 
ATOM      5  C   UNL     1      -0.235   9.223  22.198  0.00  0.00    +0.000 A 
ATOM      6  C   UNL     1      -0.874  10.009  23.149  0.00  0.00    +0.000 A 
ATOM      7  N   UNL     1      -0.945  11.354  23.137  0.00  0.00    +0.000 NA
ATOM      8  C   UNL     1      -0.314  11.899  22.081  0.00  0.00    +0.000 A 
ATOM      9  N   UNL     1      -0.240  13.242  21.850  0.00  0.00    +0.000 N 
ATOM     10  H   UNL     1      -0.664  13.931  22.453  0.00  0.00    +0.000 HD
ENDROOT
BRANCH   1  15
ATOM     11  C   UNL     1       1.122  18.211  17.550  0.00  0.00    +0.000 C 
ATOM     12  N   UNL     1       0.869  16.874  18.088  0.00  0.00    +0.000 NA
ATOM     13  C   UNL     1       2.110  16.296  18.622  0.00  0.00    +0.000 C 
ATOM     14  C   UNL     1       1.878  14.881  19.150  0.00  0.00    +0.000 C 
ATOM     15  C   UNL     1       0.769  14.872  20.206  0.00  0.00    +0.000 C 
ATOM     16  C   UNL     1      -0.498  15.538  19.655  0.00  0.00    +0.000 C 
ATOM     17  C   UNL     1      -0.183  16.928  19.112  0.00  0.00    +0.000 C 
ENDBRANCH   1  15
BRANCH   4  18
ATOM     18  C   UNL     1       1.136   9.052  20.070  0.00  0.00    +0.000 A 
ATOM     19  C   UNL     1       1.168   9.469  18.740  0.00  0.00    +0.000 A 
ATOM     20  C   UNL     1       1.826   8.689  17.800  0.00  0.00    +0.000 A 
ATOM     21  C   UNL     1       2.428   7.508  18.211  0.00  0.00    +0.000 A 
ATOM     22  C   UNL     1       2.398   7.151  19.556  0.00  0.00    +0.000 A 
ATOM     23  N   UNL     1       1.766   7.913  20.474  0.00  0.00    +0.000 NA
BRANCH  22  24
ATOM     24  N   UNL     1       3.068   5.972  19.914  0.00  0.00    +0.000 N 
ATOM     25  H   UNL     1       3.991   6.205  20.266  0.00  0.00    +0.000 HD
BRANCH  24  26
ATOM     26  C   UNL     1       3.061   4.876  18.948  0.00  0.00    +0.000 C 
BRANCH  26  27
ATOM     27  C   UNL     1       4.504   4.415  18.700  0.00  0.00    +0.000 C 
ATOM     28  C   UNL     1       5.559   5.342  19.323  0.00  0.00    +0.000 C 
ATOM     29  C   UNL     1       6.585   5.583  18.222  0.00  0.00    +0.000 C 
ATOM     30  N   UNL     1       6.341   4.487  17.285  0.00  0.00    +0.000 NA
ATOM     31  C   UNL     1       6.955   4.717  15.987  0.00  0.00    +0.000 C 
ATOM     32  C   UNL     1       4.880   4.369  17.221  0.00  0.00    +0.000 C 
ENDBRANCH  26  27
ENDBRANCH  24  26
ENDBRANCH  22  24
ENDBRANCH   4  18
TORSDOF 5
ENDMDL
MODEL 5
REMARK VINA RESULT:      -8.0      3.243      8.136
REMARK  Name = 
REMARK  7 active torsions:
REMARK  status: ('A' for Active; 'I' for Inactive)
REMARK    1  A    between atoms: C_1  and  N_2
REMARK    2  A    between atoms: C_5  and  C_6
REMARK    3  A    between atoms: C_9  and  C_10
REMARK    4  A    between atoms: C_14  and  N_15
REMARK    5  A    between atoms: N_15  and  C_16
REMARK    6  A    between atoms: C_16  and  C_17
REMARK    7  A    between atoms: N_20  and  C_21
REMARK                            x       y       z     vdW  Elec       q    Type
REMARK                         _______ _______ _______ _____ _____    ______ ____
ROOT
ATOM      1  C   UNL     1       4.855   4.299  17.506  0.00  0.00    +0.000 A 
ATOM      2  C   UNL     1       4.094   5.376  17.919  0.00  0.00    +0.000 A 
ATOM      3  C   UNL     1       3.358   4.997  19.080  0.00  0.00    +0.000 A 
ATOM      4  C   UNL     1       2.423   5.615  19.945  0.00  0.00    +0.000 A 
ATOM      5  C   UNL     1       1.917   4.800  20.978  0.00  0.00    +0.000 A 
ATOM      6  C   UNL     1       2.345   3.484  21.105  0.00  0.00    +0.000 A 
ATOM      7  N   UNL     1       3.236   2.868  20.305  0.00  0.00    +0.000 NA
ATOM      8  C   UNL     1       3.697   3.668  19.327  0.00  0.00    +0.000 A 
ATOM      9  N   UNL     1       4.604   3.273  18.386  0.00  0.00    +0.000 N 
ATOM     10  H   UNL     1       5.006   2.347  18.360  0.00  0.00    +0.000 HD
ENDROOT
BRANCH   1  15
ATOM     11  C   UNL     1       7.898   5.056  12.725  0.00  0.00    +0.000 C 
ATOM     12  N   UNL     1       6.993   5.139  13.872  0.00  0.00    +0.000 NA
ATOM     13  C   UNL     1       6.031   4.028  13.845  0.00  0.00    +0.000 C 
ATOM     14  C   UNL     1       5.048   4.120  15.010  0.00  0.00    +0.000 C 
ATOM     15  C   UNL     1       5.794   4.168  16.346  0.00  0.00    +0.000 C 
ATOM     16  C   UNL     1       6.840   5.291  16.334  0.00  0.00    +0.000 C 
ATOM     17  C   UNL     1       7.760   5.156  15.125  0.00  0.00    +0.000 C 
ENDBRANCH   1  15
BRANCH   4  18
ATOM     18  C   UNL     1       1.990   7.009  19.735  0.00  0.00    +0.000 A 
ATOM     19  C   UNL     1       2.114   7.628  18.491  0.00  0.00    +0.000 A 
ATOM     20  C   UNL     1       1.731   8.954  18.352  0.00  0.00    +0.000 A 
ATOM     21  C   UNL     1       1.240   9.631  19.459  0.00  0.00    +0.000 A 
ATOM     22  C   UNL     1       1.102   8.960  20.672  0.00  0.00    +0.000 A 
ATOM     23  N   UNL     1       1.466   7.667  20.807  0.00  0.00    +0.000 NA
BRANCH  22  24
ATOM     24  N   UNL     1       0.553   9.687  21.738  0.00  0.00    +0.000 N 
ATOM     25  H   UNL     1       0.382   9.059  22.518  0.00  0.00    +0.000 HD
BRANCH  24  26
ATOM     26  C   UNL     1      -0.564  10.579  21.439  0.00  0.00    +0.000 C 
BRANCH  26  27
ATOM     27  C   UNL     1      -0.699  11.611  22.566  0.00  0.00    +0.000 C 
ATOM     28  C   UNL     1      -2.128  11.732  23.119  0.00  0.00    +0.000 C 
ATOM     29  C   UNL     1      -2.414  13.229  23.170  0.00  0.00    +0.000 C 
ATOM     30  N   UNL     1      -1.083  13.831  23.119  0.00  0.00    +0.000 NA
ATOM     31  C   UNL     1      -1.125  15.248  22.794  0.00  0.00    +0.000 C 
ATOM     32  C   UNL     1      -0.349  13.033  22.132  0.00  0.00    +0.000 C 
ENDBRANCH  26  27
ENDBRANCH  24  26
ENDBRANCH  22  24
ENDBRANCH   4  18
TORSDOF 5
ENDMDL
MODEL 6
REMARK VINA RESULT:      -8.0      3.045      6.610
REMARK  Name = 
REMARK  7 active torsions:
REMARK  status: ('A' for Active; 'I' for Inactive)
REMARK    1  A    between atoms: C_1  and  N_2
REMARK    2  A    between atoms: C_5  and  C_6
REMARK    3  A    between atoms: C_9  and  C_10
REMARK    4  A    between atoms: C_14  and  N_15
REMARK    5  A    between atoms: N_15  and  C_16
REMARK    6  A    between atoms: C_16  and  C_17
REMARK    7  A    between atoms: N_20  and  C_21
REMARK                            x       y       z     vdW  Elec       q    Type
REMARK                         _______ _______ _______ _____ _____    ______ ____
ROOT
ATOM      1  C   UNL     1       0.313  13.119  20.007  0.00  0.00    +0.000 A 
ATOM      2  C   UNL     1       0.784  11.870  19.652  0.00  0.00    +0.000 A 
ATOM      3  C   UNL     1       0.496  10.956  20.707  0.00  0.00    +0.000 A 
ATOM      4  C   UNL     1       0.718   9.580  20.957  0.00  0.00    +0.000 A 
ATOM      5  C   UNL     1       0.270   9.108  22.208  0.00  0.00    +0.000 A 
ATOM      6  C   UNL     1      -0.353   9.972  23.100  0.00  0.00    +0.000 A 
ATOM      7  N   UNL     1      -0.587  11.282  22.891  0.00  0.00    +0.000 NA
ATOM      8  C   UNL     1      -0.144  11.705  21.693  0.00  0.00    +0.000 A 
ATOM      9  N   UNL     1      -0.258  12.991  21.251  0.00  0.00    +0.000 N 
ATOM     10  H   UNL     1      -0.694  13.724  21.790  0.00  0.00    +0.000 HD
ENDROOT
BRANCH   1  15
ATOM     11  C   UNL     1       0.822  18.595  18.442  0.00  0.00    +0.000 C 
ATOM     12  N   UNL     1       0.757  17.305  19.129  0.00  0.00    +0.000 NA
ATOM     13  C   UNL     1      -0.592  16.733  19.015  0.00  0.00    +0.000 C 
ATOM     14  C   UNL     1      -0.695  15.405  19.763  0.00  0.00    +0.000 C 
ATOM     15  C   UNL     1       0.364  14.419  19.263  0.00  0.00    +0.000 C 
ATOM     16  C   UNL     1       1.759  15.054  19.326  0.00  0.00    +0.000 C 
ATOM     17  C   UNL     1       1.775  16.391  18.592  0.00  0.00    +0.000 C 
ENDBRANCH   1  15
BRANCH   4  18
ATOM     18  C   UNL     1       1.414   8.725  19.977  0.00  0.00    +0.000 A 
ATOM     19  C   UNL     1       1.455   9.059  18.624  0.00  0.00    +0.000 A 
ATOM     20  C   UNL     1       2.086   8.203  17.733  0.00  0.00    +0.000 A 
ATOM     21  C   UNL     1       2.653   7.031  18.215  0.00  0.00    +0.000 A 
ATOM     22  C   UNL     1       2.615   6.758  19.579  0.00  0.00    +0.000 A 
ATOM     23  N   UNL     1       2.010   7.594  20.450  0.00  0.00    +0.000 NA
BRANCH  22  24
ATOM     24  N   UNL     1       3.249   5.582  20.007  0.00  0.00    +0.000 N 
ATOM     25  H   UNL     1       4.163   5.813  20.383  0.00  0.00    +0.000 HD
BRANCH  24  26
ATOM     26  C   UNL     1       3.256   4.449  19.086  0.00  0.00    +0.000 C 
BRANCH  26  27
ATOM     27  C   UNL     1       4.705   4.125  18.699  0.00  0.00    +0.000 C 
ATOM     28  C   UNL     1       5.735   5.082  19.318  0.00  0.00    +0.000 C 
ATOM     29  C   UNL     1       6.651   5.487  18.169  0.00  0.00    +0.000 C 
ATOM     30  N   UNL     1       6.416   4.450  17.166  0.00  0.00    +0.000 NA
ATOM     31  C   UNL     1       6.909   4.825  15.850  0.00  0.00    +0.000 C 
ATOM     32  C   UNL     1       4.968   4.221  17.197  0.00  0.00    +0.000 C 
ENDBRANCH  26  27
ENDBRANCH  24  26
ENDBRANCH  22  24
ENDBRANCH   4  18
TORSDOF 5
ENDMDL
MODEL 7
REMARK VINA RESULT:      -8.0      2.674      5.049
REMARK  Name = 
REMARK  7 active torsions:
REMARK  status: ('A' for Active; 'I' for Inactive)
REMARK    1  A    between atoms: C_1  and  N_2
REMARK    2  A    between atoms: C_5  and  C_6
REMARK    3  A    between atoms: C_9  and  C_10
REMARK    4  A    between atoms: C_14  and  N_15
REMARK    5  A    between atoms: N_15  and  C_16
REMARK    6  A    between atoms: C_16  and  C_17
REMARK    7  A    between atoms: N_20  and  C_21
REMARK                            x       y       z     vdW  Elec       q    Type
REMARK                         _______ _______ _______ _____ _____    ______ ____
ROOT
ATOM      1  C   UNL     1       1.696   6.960  20.426  0.00  0.00    +0.000 A 
ATOM      2  C   UNL     1       2.858   6.731  19.714  0.00  0.00    +0.000 A 
ATOM      3  C   UNL     1       3.182   5.345  19.803  0.00  0.00    +0.000 A 
ATOM      4  C   UNL     1       4.214   4.503  19.323  0.00  0.00    +0.000 A 
ATOM      5  C   UNL     1       4.129   3.151  19.715  0.00  0.00    +0.000 A 
ATOM      6  C   UNL     1       3.077   2.718  20.512  0.00  0.00    +0.000 A 
ATOM      7  N   UNL     1       2.077   3.489  20.979  0.00  0.00    +0.000 NA
ATOM      8  C   UNL     1       2.187   4.774  20.595  0.00  0.00    +0.000 A 
ATOM      9  N   UNL     1       1.300   5.751  20.944  0.00  0.00    +0.000 N 
ATOM     10  H   UNL     1       0.485   5.579  21.515  0.00  0.00    +0.000 HD
ENDROOT
BRANCH   1  15
ATOM     11  C   UNL     1       0.099  12.362  21.409  0.00  0.00    +0.000 C 
ATOM     12  N   UNL     1       0.798  11.096  21.187  0.00  0.00    +0.000 NA
ATOM     13  C   UNL     1       0.444  10.127  22.234  0.00  0.00    +0.000 C 
ATOM     14  C   UNL     1       1.196   8.811  22.046  0.00  0.00    +0.000 C 
ATOM     15  C   UNL     1       0.938   8.233  20.652  0.00  0.00    +0.000 C 
ATOM     16  C   UNL     1       1.250   9.279  19.574  0.00  0.00    +0.000 C 
ATOM     17  C   UNL     1       0.494  10.575  19.847  0.00  0.00    +0.000 C 
ENDBRANCH   1  15
BRANCH   4  18
ATOM     18  C   UNL     1       5.319   5.036  18.503  0.00  0.00    +0.000 A 
ATOM     19  C   UNL     1       6.506   5.478  19.086  0.00  0.00    +0.000 A 
ATOM     20  C   UNL     1       7.501   6.009  18.278  0.00  0.00    +0.000 A 
ATOM     21  C   UNL     1       7.283   6.091  16.910  0.00  0.00    +0.000 A 
ATOM     22  C   UNL     1       6.095   5.605  16.371  0.00  0.00    +0.000 A 
ATOM     23  N   UNL     1       5.128   5.079  17.154  0.00  0.00    +0.000 NA
BRANCH  22  24
ATOM     24  N   UNL     1       5.957   5.671  14.977  0.00  0.00    +0.000 N 
ATOM     25  H   UNL     1       4.998   5.458  14.725  0.00  0.00    +0.000 HD
BRANCH  24  26
ATOM     26  C   UNL     1       6.953   4.971  14.170  0.00  0.00    +0.000 C 
BRANCH  26  27
ATOM     27  C   UNL     1       6.297   3.751  13.511  0.00  0.00    +0.000 C 
ATOM     28  C   UNL     1       7.109   3.177  12.339  0.00  0.00    +0.000 C 
ATOM     29  C   UNL     1       6.104   2.982  11.210  0.00  0.00    +0.000 C 
ATOM     30  N   UNL     1       4.815   2.987  11.898  0.00  0.00    +0.000 NA
ATOM     31  C   UNL     1       3.697   3.176  10.987  0.00  0.00    +0.000 C 
ATOM     32  C   UNL     1       4.930   4.052  12.900  0.00  0.00    +0.000 C 
ENDBRANCH  26  27
ENDBRANCH  24  26
ENDBRANCH  22  24
ENDBRANCH   4  18
TORSDOF 5
ENDMDL
MODEL 8
REMARK VINA RESULT:      -7.9      2.053      7.827
REMARK  Name = 
REMARK  7 active torsions:
REMARK  status: ('A' for Active; 'I' for Inactive)
REMARK    1  A    between atoms: C_1  and  N_2
REMARK    2  A    between atoms: C_5  and  C_6
REMARK    3  A    between atoms: C_9  and  C_10
REMARK    4  A    between atoms: C_14  and  N_15
REMARK    5  A    between atoms: N_15  and  C_16
REMARK    6  A    between atoms: C_16  and  C_17
REMARK    7  A    between atoms: N_20  and  C_21
REMARK                            x       y       z     vdW  Elec       q    Type
REMARK                         _______ _______ _______ _____ _____    ______ ____
ROOT
ATOM      1  C   UNL     1       7.908   8.634  17.591  0.00  0.00    +0.000 A 
ATOM      2  C   UNL     1       6.605   8.355  17.958  0.00  0.00    +0.000 A 
ATOM      3  C   UNL     1       6.213   7.127  17.349  0.00  0.00    +0.000 A 
ATOM      4  C   UNL     1       5.044   6.329  17.319  0.00  0.00    +0.000 A 
ATOM      5  C   UNL     1       5.118   5.171  16.517  0.00  0.00    +0.000 A 
ATOM      6  C   UNL     1       6.285   4.870  15.827  0.00  0.00    +0.000 A 
ATOM      7  N   UNL     1       7.415   5.603  15.839  0.00  0.00    +0.000 NA
ATOM      8  C   UNL     1       7.314   6.703  16.608  0.00  0.00    +0.000 A 
ATOM      9  N   UNL     1       8.322   7.607  16.776  0.00  0.00    +0.000 N 
ATOM     10  H   UNL     1       9.228   7.514  16.342  0.00  0.00    +0.000 HD
ENDROOT
BRANCH   1  15
ATOM     11  C   UNL     1      10.156  13.415  19.779  0.00  0.00    +0.000 C 
ATOM     12  N   UNL     1       9.333  12.267  19.397  0.00  0.00    +0.000 NA
ATOM     13  C   UNL     1       9.054  12.298  17.954  0.00  0.00    +0.000 C 
ATOM     14  C   UNL     1       8.158  11.131  17.539  0.00  0.00    +0.000 C 
ATOM     15  C   UNL     1       8.784   9.796  17.950  0.00  0.00    +0.000 C 
ATOM     16  C   UNL     1       9.130   9.805  19.444  0.00  0.00    +0.000 C 
ATOM     17  C   UNL     1       9.992  11.015  19.790  0.00  0.00    +0.000 C 
ENDBRANCH   1  15
BRANCH   4  18
ATOM     18  C   UNL     1       3.827   6.723  18.053  0.00  0.00    +0.000 A 
ATOM     19  C   UNL     1       3.113   7.870  17.710  0.00  0.00    +0.000 A 
ATOM     20  C   UNL     1       1.997   8.223  18.455  0.00  0.00    +0.000 A 
ATOM     21  C   UNL     1       1.627   7.425  19.529  0.00  0.00    +0.000 A 
ATOM     22  C   UNL     1       2.352   6.271  19.811  0.00  0.00    +0.000 A 
ATOM     23  N   UNL     1       3.433   5.920  19.082  0.00  0.00    +0.000 NA
BRANCH  22  24
ATOM     24  N   UNL     1       1.896   5.482  20.878  0.00  0.00    +0.000 N 
ATOM     25  H   UNL     1       2.694   5.105  21.380  0.00  0.00    +0.000 HD
BRANCH  24  26
ATOM     26  C   UNL     1       0.857   4.497  20.589  0.00  0.00    +0.000 C 
BRANCH  26  27
ATOM     27  C   UNL     1       1.506   3.117  20.419  0.00  0.00    +0.000 C 
ATOM     28  C   UNL     1       2.825   2.960  21.192  0.00  0.00    +0.000 C 
ATOM     29  C   UNL     1       3.807   2.355  20.196  0.00  0.00    +0.000 C 
ATOM     30  N   UNL     1       2.939   1.795  19.161  0.00  0.00    +0.000 NA
ATOM     31  C   UNL     1       3.660   1.486  17.936  0.00  0.00    +0.000 C 
ATOM     32  C   UNL     1       1.885   2.798  18.974  0.00  0.00    +0.000 C 
ENDBRANCH  26  27
ENDBRANCH  24  26
ENDBRANCH  22  24
ENDBRANCH   4  18
TORSDOF 5
ENDMDL
MODEL 9
REMARK VINA RESULT:      -7.7      4.012      9.467
REMARK  Name = 
REMARK  7 active torsions:
REMARK  status: ('A' for Active; 'I' for Inactive)
REMARK    1  A    between atoms: C_1  and  N_2
REMARK    2  A    between atoms: C_5  and  C_6
REMARK    3  A    between atoms: C_9  and  C_10
REMARK    4  A    between atoms: C_14  and  N_15
REMARK    5  A    between atoms: N_15  and  C_16
REMARK    6  A    between atoms: C_16  and  C_17
REMARK    7  A    between atoms: N_20  and  C_21
REMARK                            x       y       z     vdW  Elec       q    Type
REMARK                         _______ _______ _______ _____ _____    ______ ____
ROOT
ATOM      1  C   UNL     1       1.760   7.854  20.468  0.00  0.00    +0.000 A 
ATOM      2  C   UNL     1       1.305   9.061  19.973  0.00  0.00    +0.000 A 
ATOM      3  C   UNL     1       0.575   9.729  20.999  0.00  0.00    +0.000 A 
ATOM      4  C   UNL     1      -0.129  10.951  21.123  0.00  0.00    +0.000 A 
ATOM      5  C   UNL     1      -0.748  11.174  22.371  0.00  0.00    +0.000 A 
ATOM      6  C   UNL     1      -0.638  10.231  23.385  0.00  0.00    +0.000 A 
ATOM      7  N   UNL     1       0.029   9.064  23.303  0.00  0.00    +0.000 NA
ATOM      8  C   UNL     1       0.604   8.876  22.101  0.00  0.00    +0.000 A 
ATOM      9  N   UNL     1       1.329   7.768  21.771  0.00  0.00    +0.000 N 
ATOM     10  H   UNL     1       1.497   7.006  22.410  0.00  0.00    +0.000 HD
ENDROOT
BRANCH   1  15
ATOM     11  C   UNL     1       3.619   3.499  17.262  0.00  0.00    +0.000 C 
ATOM     12  N   UNL     1       2.870   4.558  17.939  0.00  0.00    +0.000 NA
ATOM     13  C   UNL     1       2.835   4.312  19.388  0.00  0.00    +0.000 C 
ATOM     14  C   UNL     1       2.020   5.383  20.111  0.00  0.00    +0.000 C 
ATOM     15  C   UNL     1       2.567   6.779  19.803  0.00  0.00    +0.000 C 
ATOM     16  C   UNL     1       2.658   6.995  18.287  0.00  0.00    +0.000 C 
ATOM     17  C   UNL     1       3.452   5.870  17.631  0.00  0.00    +0.000 C 
ENDBRANCH   1  15
BRANCH   4  18
ATOM     18  C   UNL     1      -0.231  11.895  19.994  0.00  0.00    +0.000 A 
ATOM     19  C   UNL     1       0.430  13.122  20.014  0.00  0.00    +0.000 A 
ATOM     20  C   UNL     1       0.272  13.995  18.947  0.00  0.00    +0.000 A 
ATOM     21  C   UNL     1      -0.549  13.623  17.892  0.00  0.00    +0.000 A 
ATOM     22  C   UNL     1      -1.162  12.373  17.903  0.00  0.00    +0.000 A 
ATOM     23  N   UNL     1      -1.001  11.518  18.935  0.00  0.00    +0.000 NA
BRANCH  22  24
ATOM     24  N   UNL     1      -1.938  12.039  16.783  0.00  0.00    +0.000 N 
ATOM     25  H   UNL     1      -2.702  12.702  16.695  0.00  0.00    +0.000 HD
BRANCH  24  26
ATOM     26  C   UNL     1      -2.345  10.644  16.641  0.00  0.00    +0.000 C 
BRANCH  26  27
ATOM     27  C   UNL     1      -3.873  10.552  16.753  0.00  0.00    +0.000 C 
ATOM     28  C   UNL     1      -4.600  11.824  16.288  0.00  0.00    +0.000 C 
ATOM     29  C   UNL     1      -5.612  12.133  17.385  0.00  0.00    +0.000 C 
ATOM     30  N   UNL     1      -5.735  10.864  18.100  0.00  0.00    +0.000 NA
ATOM     31  C   UNL     1      -6.371  11.017  19.400  0.00  0.00    +0.000 C 
ATOM     32  C   UNL     1      -4.365  10.348  18.184  0.00  0.00    +0.000 C 
ENDBRANCH  26  27
ENDBRANCH  24  26
ENDBRANCH  22  24
ENDBRANCH   4  18
TORSDOF 5
ENDMDL
