MODEL 1
REMARK VINA RESULT:      -7.4      0.000      0.000
REMARK  Name = 
REMARK  7 active torsions:
REMARK  status: ('A' for Active; 'I' for Inactive)
REMARK    1  A    between atoms: C_1  and  N_2
REMARK    2  A    between atoms: N_2  and  C_3
REMARK    3  A    between atoms: N_2  and  S_13
REMARK    4  A    between atoms: C_3  and  C_4
REMARK    5  A    between atoms: N_6  and  C_7
REMARK    6  A    between atoms: C_7  and  C_8
REMARK    7  A    between atoms: S_13  and  C_16
REMARK                            x       y       z     vdW  Elec       q    Type
REMARK                         _______ _______ _______ _____ _____    ______ ____
ROOT
ATOM      1  C   UNL     1       1.649   2.915  20.686  0.00  0.00    +0.000 C 
ATOM      2  N   UNL     1       2.585   3.633  19.781  0.00  0.00    +0.000 NA
ENDROOT
BRANCH   2   3
ATOM      3  S   UNL     1       3.922   2.667  19.283  0.00  0.00    +0.000 S 
ATOM      4  O   UNL     1       4.839   2.512  20.387  0.00  0.00    +0.000 OA
ATOM      5  O   UNL     1       3.362   1.502  18.618  0.00  0.00    +0.000 OA
BRANCH   3   6
ATOM      6  C   UNL     1       4.709   3.651  18.061  0.00  0.00    +0.000 A 
ATOM      7  C   UNL     1       4.255   3.643  16.723  0.00  0.00    +0.000 A 
ATOM      8  C   UNL     1       4.824   4.453  15.715  0.00  0.00    +0.000 A 
ATOM      9  C   UNL     1       5.894   5.332  15.955  0.00  0.00    +0.000 A 
ATOM     10  C   UNL     1       6.393   5.366  17.280  0.00  0.00    +0.000 A 
ATOM     11  N   UNL     1       7.405   6.137  17.710  0.00  0.00    +0.000 NA
ATOM     12  S   UNL     1       7.595   5.808  19.325  0.00  0.00    +0.000 S 
ATOM     13  N   UNL     1       6.385   4.698  19.557  0.00  0.00    +0.000 NA
ATOM     14  C   UNL     1       5.790   4.508  18.368  0.00  0.00    +0.000 A 
ENDBRANCH   3   6
ENDBRANCH   2   3
BRANCH   2  15
ATOM     15  C   UNL     1       3.046   4.935  20.360  0.00  0.00    +0.000 C 
BRANCH  15  16
ATOM     16  C   UNL     1       2.505   6.177  19.666  0.00  0.00    +0.000 C 
ATOM     17  O   UNL     1       2.317   6.201  18.450  0.00  0.00    +0.000 OA
ATOM     18  N   UNL     1       2.223   7.254  20.480  0.00  0.00    +0.000 N 
ATOM     19  H   UNL     1       2.204   7.098  21.483  0.00  0.00    +0.000 HD
BRANCH  18  20
ATOM     20  C   UNL     1       1.638   8.453  19.926  0.00  0.00    +0.000 C 
BRANCH  20  21
ATOM     21  C   UNL     1       0.772   9.128  20.942  0.00  0.00    +0.000 A 
ATOM     22  C   UNL     1       0.718   8.894  22.304  0.00  0.00    +0.000 A 
ATOM     23  C   UNL     1      -0.132   9.816  22.983  0.00  0.00    +0.000 A 
ATOM     24  C   UNL     1      -0.715  10.710  22.115  0.00  0.00    +0.000 A 
ATOM     25  S   UNL     1      -0.254  10.424  20.492  0.00  0.00    +0.000 S 
ENDBRANCH  20  21
ENDBRANCH  18  20
ENDBRANCH  15  16
ENDBRANCH   2  15
TORSDOF 6
ENDMDL
MODEL 2
REMARK VINA RESULT:      -7.4      1.763      2.171
REMARK  Name = 
REMARK  7 active torsions:
REMARK  status: ('A' for Active; 'I' for Inactive)
REMARK    1  A    between atoms: C_1  and  N_2
REMARK    2  A    between atoms: N_2  and  C_3
REMARK    3  A    between atoms: N_2  and  S_13
REMARK    4  A    between atoms: C_3  and  C_4
REMARK    5  A    between atoms: N_6  and  C_7
REMARK    6  A    between atoms: C_7  and  C_8
REMARK    7  A    between atoms: S_13  and  C_16
REMARK                            x       y       z     vdW  Elec       q    Type
REMARK                         _______ _______ _______ _____ _____    ______ ____
ROOT
ATOM      1  C   UNL     1       1.330   4.045  18.224  0.00  0.00    +0.000 C 
ATOM      2  N   UNL     1       2.651   4.686  18.455  0.00  0.00    +0.000 NA
ENDROOT
BRANCH   2   3
ATOM      3  S   UNL     1       3.934   3.551  18.637  0.00  0.00    +0.000 S 
ATOM      4  O   UNL     1       3.992   3.107  20.009  0.00  0.00    +0.000 OA
ATOM      5  O   UNL     1       3.789   2.590  17.555  0.00  0.00    +0.000 OA
BRANCH   3   6
ATOM      6  C   UNL     1       5.374   4.502  18.316  0.00  0.00    +0.000 A 
ATOM      7  C   UNL     1       6.127   5.055  19.376  0.00  0.00    +0.000 A 
ATOM      8  C   UNL     1       7.319   5.786  19.171  0.00  0.00    +0.000 A 
ATOM      9  C   UNL     1       7.855   6.029  17.895  0.00  0.00    +0.000 A 
ATOM     10  C   UNL     1       7.128   5.505  16.798  0.00  0.00    +0.000 A 
ATOM     11  N   UNL     1       7.474   5.628  15.506  0.00  0.00    +0.000 NA
ATOM     12  S   UNL     1       6.305   4.844  14.629  0.00  0.00    +0.000 S 
ATOM     13  N   UNL     1       5.326   4.288  15.847  0.00  0.00    +0.000 NA
ATOM     14  C   UNL     1       5.855   4.718  17.005  0.00  0.00    +0.000 A 
ENDBRANCH   3   6
ENDBRANCH   2   3
BRANCH   2  15
ATOM     15  C   UNL     1       2.619   5.652  19.599  0.00  0.00    +0.000 C 
BRANCH  15  16
ATOM     16  C   UNL     1       2.262   7.083  19.226  0.00  0.00    +0.000 C 
ATOM     17  O   UNL     1       2.538   7.545  18.118  0.00  0.00    +0.000 OA
ATOM     18  N   UNL     1       1.599   7.816  20.187  0.00  0.00    +0.000 N 
ATOM     19  H   UNL     1       1.222   7.316  20.988  0.00  0.00    +0.000 HD
BRANCH  18  20
ATOM     20  C   UNL     1       1.153   9.160  19.902  0.00  0.00    +0.000 C 
BRANCH  20  21
ATOM     21  C   UNL     1       0.375   9.707  21.057  0.00  0.00    +0.000 A 
ATOM     22  C   UNL     1       0.096   9.091  22.264  0.00  0.00    +0.000 A 
ATOM     23  C   UNL     1      -0.561   9.962  23.182  0.00  0.00    +0.000 A 
ATOM     24  C   UNL     1      -0.781  11.207  22.639  0.00  0.00    +0.000 A 
ATOM     25  S   UNL     1      -0.216  11.315  21.027  0.00  0.00    +0.000 S 
ENDBRANCH  20  21
ENDBRANCH  18  20
ENDBRANCH  15  16
ENDBRANCH   2  15
TORSDOF 6
ENDMDL
MODEL 3
REMARK VINA RESULT:      -7.2      0.841      1.024
REMARK  Name = 
REMARK  7 active torsions:
REMARK  status: ('A' for Active; 'I' for Inactive)
REMARK    1  A    between atoms: C_1  and  N_2
REMARK    2  A    between atoms: N_2  and  C_3
REMARK    3  A    between atoms: N_2  and  S_13
REMARK    4  A    between atoms: C_3  and  C_4
REMARK    5  A    between atoms: N_6  and  C_7
REMARK    6  A    between atoms: C_7  and  C_8
REMARK    7  A    between atoms: S_13  and  C_16
REMARK                            x       y       z     vdW  Elec       q    Type
REMARK                         _______ _______ _______ _____ _____    ______ ____
ROOT
ATOM      1  C   UNL     1       1.370   2.466  19.293  0.00  0.00    +0.000 C 
ATOM      2  N   UNL     1       2.454   3.428  18.961  0.00  0.00    +0.000 NA
ENDROOT
BRANCH   2   3
ATOM      3  S   UNL     1       4.007   2.689  18.854  0.00  0.00    +0.000 S 
ATOM      4  O   UNL     1       4.681   2.801  20.125  0.00  0.00    +0.000 OA
ATOM      5  O   UNL     1       3.801   1.388  18.239  0.00  0.00    +0.000 OA
BRANCH   3   6
ATOM      6  C   UNL     1       4.863   3.695  17.698  0.00  0.00    +0.000 A 
ATOM      7  C   UNL     1       4.471   3.732  16.340  0.00  0.00    +0.000 A 
ATOM      8  C   UNL     1       5.097   4.561  15.383  0.00  0.00    +0.000 A 
ATOM      9  C   UNL     1       6.167   5.417  15.698  0.00  0.00    +0.000 A 
ATOM     10  C   UNL     1       6.605   5.406  17.045  0.00  0.00    +0.000 A 
ATOM     11  N   UNL     1       7.606   6.149  17.543  0.00  0.00    +0.000 NA
ATOM     12  S   UNL     1       7.717   5.771  19.154  0.00  0.00    +0.000 S 
ATOM     13  N   UNL     1       6.483   4.674  19.299  0.00  0.00    +0.000 NA
ATOM     14  C   UNL     1       5.940   4.527  18.078  0.00  0.00    +0.000 A 
ENDBRANCH   3   6
ENDBRANCH   2   3
BRANCH   2  15
ATOM     15  C   UNL     1       2.477   4.599  19.894  0.00  0.00    +0.000 C 
BRANCH  15  16
ATOM     16  C   UNL     1       2.358   5.960  19.224  0.00  0.00    +0.000 C 
ATOM     17  O   UNL     1       2.422   6.080  18.001  0.00  0.00    +0.000 OA
ATOM     18  N   UNL     1       2.155   7.036  20.063  0.00  0.00    +0.000 N 
ATOM     19  H   UNL     1       1.906   6.843  21.029  0.00  0.00    +0.000 HD
BRANCH  18  20
ATOM     20  C   UNL     1       1.957   8.358  19.518  0.00  0.00    +0.000 C 
BRANCH  20  21
ATOM     21  C   UNL     1       1.062   9.160  20.409  0.00  0.00    +0.000 A 
ATOM     22  C   UNL     1       0.029  10.003  20.042  0.00  0.00    +0.000 A 
ATOM     23  C   UNL     1      -0.695  10.502  21.164  0.00  0.00    +0.000 A 
ATOM     24  C   UNL     1      -0.177  10.040  22.353  0.00  0.00    +0.000 A 
ATOM     25  S   UNL     1       1.183   9.029  22.113  0.00  0.00    +0.000 S 
ENDBRANCH  20  21
ENDBRANCH  18  20
ENDBRANCH  15  16
ENDBRANCH   2  15
TORSDOF 6
ENDMDL
MODEL 4
REMARK VINA RESULT:      -7.1      1.435      1.856
REMARK  Name = 
REMARK  7 active torsions:
REMARK  status: ('A' for Active; 'I' for Inactive)
REMARK    1  A    between atoms: C_1  and  N_2
REMARK    2  A    between atoms: N_2  and  C_3
REMARK    3  A    between atoms: N_2  and  S_13
REMARK    4  A    between atoms: C_3  and  C_4
REMARK    5  A    between atoms: N_6  and  C_7
REMARK    6  A    between atoms: C_7  and  C_8
REMARK    7  A    between atoms: S_13  and  C_16
REMARK                            x       y       z     vdW  Elec       q    Type
REMARK                         _______ _______ _______ _____ _____    ______ ____
ROOT
ATOM      1  C   UNL     1       1.452   2.768  18.882  0.00  0.00    +0.000 C 
ATOM      2  N   UNL     1       2.696   3.577  18.970  0.00  0.00    +0.000 NA
ENDROOT
BRANCH   2   3
ATOM      3  S   UNL     1       4.120   2.672  18.625  0.00  0.00    +0.000 S 
ATOM      4  O   UNL     1       4.900   2.525  19.830  0.00  0.00    +0.000 OA
ATOM      5  O   UNL     1       3.691   1.502  17.875  0.00  0.00    +0.000 OA
BRANCH   3   6
ATOM      6  C   UNL     1       5.013   3.711  17.527  0.00  0.00    +0.000 A 
ATOM      7  C   UNL     1       4.696   3.751  16.150  0.00  0.00    +0.000 A 
ATOM      8  C   UNL     1       5.353   4.605  15.236  0.00  0.00    +0.000 A 
ATOM      9  C   UNL     1       6.381   5.485  15.617  0.00  0.00    +0.000 A 
ATOM     10  C   UNL     1       6.743   5.472  16.986  0.00  0.00    +0.000 A 
ATOM     11  N   UNL     1       7.695   6.235  17.546  0.00  0.00    +0.000 NA
ATOM     12  S   UNL     1       7.726   5.845  19.157  0.00  0.00    +0.000 S 
ATOM     13  N   UNL     1       6.515   4.715  19.224  0.00  0.00    +0.000 NA
ATOM     14  C   UNL     1       6.045   4.566  17.974  0.00  0.00    +0.000 A 
ENDBRANCH   3   6
ENDBRANCH   2   3
BRANCH   2  15
ATOM     15  C   UNL     1       2.815   4.291  20.281  0.00  0.00    +0.000 C 
BRANCH  15  16
ATOM     16  C   UNL     1       1.747   5.344  20.542  0.00  0.00    +0.000 C 
ATOM     17  O   UNL     1       0.562   5.038  20.665  0.00  0.00    +0.000 OA
ATOM     18  N   UNL     1       2.190   6.646  20.651  0.00  0.00    +0.000 N 
ATOM     19  H   UNL     1       3.190   6.800  20.747  0.00  0.00    +0.000 HD
BRANCH  18  20
ATOM     20  C   UNL     1       1.264   7.707  20.970  0.00  0.00    +0.000 C 
BRANCH  20  21
ATOM     21  C   UNL     1       1.346   8.795  19.947  0.00  0.00    +0.000 A 
ATOM     22  C   UNL     1       1.825   8.712  18.652  0.00  0.00    +0.000 A 
ATOM     23  C   UNL     1       1.629   9.919  17.919  0.00  0.00    +0.000 A 
ATOM     24  C   UNL     1       1.028  10.892  18.685  0.00  0.00    +0.000 A 
ATOM     25  S   UNL     1       0.721  10.355  20.281  0.00  0.00    +0.000 S 
ENDBRANCH  20  21
ENDBRANCH  18  20
ENDBRANCH  15  16
ENDBRANCH   2  15
TORSDOF 6
ENDMDL
MODEL 5
REMARK VINA RESULT:      -7.1      1.997      2.534
REMARK  Name = 
REMARK  7 active torsions:
REMARK  status: ('A' for Active; 'I' for Inactive)
REMARK    1  A    between atoms: C_1  and  N_2
REMARK    2  A    between atoms: N_2  and  C_3
REMARK    3  A    between atoms: N_2  and  S_13
REMARK    4  A    between atoms: C_3  and  C_4
REMARK    5  A    between atoms: N_6  and  C_7
REMARK    6  A    between atoms: C_7  and  C_8
REMARK    7  A    between atoms: S_13  and  C_16
REMARK                            x       y       z     vdW  Elec       q    Type
REMARK                         _______ _______ _______ _____ _____    ______ ____
ROOT
ATOM      1  C   UNL     1       1.400   3.933  17.581  0.00  0.00    +0.000 C 
ATOM      2  N   UNL     1       2.484   4.521  18.413  0.00  0.00    +0.000 NA
ENDROOT
BRANCH   2   3
ATOM      3  S   UNL     1       3.789   3.432  18.693  0.00  0.00    +0.000 S 
ATOM      4  O   UNL     1       3.827   3.078  20.092  0.00  0.00    +0.000 OA
ATOM      5  O   UNL     1       3.691   2.401  17.672  0.00  0.00    +0.000 OA
BRANCH   3   6
ATOM      6  C   UNL     1       5.213   4.397  18.342  0.00  0.00    +0.000 A 
ATOM      7  C   UNL     1       5.959   4.992  19.384  0.00  0.00    +0.000 A 
ATOM      8  C   UNL     1       7.138   5.736  19.155  0.00  0.00    +0.000 A 
ATOM      9  C   UNL     1       7.667   5.952  17.871  0.00  0.00    +0.000 A 
ATOM     10  C   UNL     1       6.947   5.385  16.791  0.00  0.00    +0.000 A 
ATOM     11  N   UNL     1       7.288   5.477  15.496  0.00  0.00    +0.000 NA
ATOM     12  S   UNL     1       6.130   4.649  14.644  0.00  0.00    +0.000 S 
ATOM     13  N   UNL     1       5.163   4.113  15.880  0.00  0.00    +0.000 NA
ATOM     14  C   UNL     1       5.687   4.583  17.024  0.00  0.00    +0.000 A 
ENDBRANCH   3   6
ENDBRANCH   2   3
BRANCH   2  15
ATOM     15  C   UNL     1       1.967   5.087  19.699  0.00  0.00    +0.000 C 
BRANCH  15  16
ATOM     16  C   UNL     1       2.305   6.550  19.942  0.00  0.00    +0.000 C 
ATOM     17  O   UNL     1       3.239   7.098  19.357  0.00  0.00    +0.000 OA
ATOM     18  N   UNL     1       1.495   7.222  20.834  0.00  0.00    +0.000 N 
ATOM     19  H   UNL     1       0.629   6.774  21.118  0.00  0.00    +0.000 HD
BRANCH  18  20
ATOM     20  C   UNL     1       1.691   8.632  21.077  0.00  0.00    +0.000 C 
BRANCH  20  21
ATOM     21  C   UNL     1       0.780   9.441  20.209  0.00  0.00    +0.000 A 
ATOM     22  C   UNL     1       0.755   9.505  18.828  0.00  0.00    +0.000 A 
ATOM     23  C   UNL     1      -0.335  10.282  18.337  0.00  0.00    +0.000 A 
ATOM     24  C   UNL     1      -1.094  10.804  19.360  0.00  0.00    +0.000 A 
ATOM     25  S   UNL     1      -0.481  10.374  20.899  0.00  0.00    +0.000 S 
ENDBRANCH  20  21
ENDBRANCH  18  20
ENDBRANCH  15  16
ENDBRANCH   2  15
TORSDOF 6
ENDMDL
MODEL 6
REMARK VINA RESULT:      -7.0      1.297      1.526
REMARK  Name = 
REMARK  7 active torsions:
REMARK  status: ('A' for Active; 'I' for Inactive)
REMARK    1  A    between atoms: C_1  and  N_2
REMARK    2  A    between atoms: N_2  and  C_3
REMARK    3  A    between atoms: N_2  and  S_13
REMARK    4  A    between atoms: C_3  and  C_4
REMARK    5  A    between atoms: N_6  and  C_7
REMARK    6  A    between atoms: C_7  and  C_8
REMARK    7  A    between atoms: S_13  and  C_16
REMARK                            x       y       z     vdW  Elec       q    Type
REMARK                         _______ _______ _______ _____ _____    ______ ____
ROOT
ATOM      1  C   UNL     1       1.114   3.016  18.277  0.00  0.00    +0.000 C 
ATOM      2  N   UNL     1       2.263   3.861  18.699  0.00  0.00    +0.000 NA
ENDROOT
BRANCH   2   3
ATOM      3  S   UNL     1       3.748   2.993  18.785  0.00  0.00    +0.000 S 
ATOM      4  O   UNL     1       4.323   3.153  20.099  0.00  0.00    +0.000 OA
ATOM      5  O   UNL     1       3.481   1.667  18.251  0.00  0.00    +0.000 OA
BRANCH   3   6
ATOM      6  C   UNL     1       4.781   3.830  17.639  0.00  0.00    +0.000 A 
ATOM      7  C   UNL     1       4.511   3.783  16.253  0.00  0.00    +0.000 A 
ATOM      8  C   UNL     1       5.284   4.480  15.297  0.00  0.00    +0.000 A 
ATOM      9  C   UNL     1       6.391   5.274  15.642  0.00  0.00    +0.000 A 
ATOM     10  C   UNL     1       6.710   5.343  17.020  0.00  0.00    +0.000 A 
ATOM     11  N   UNL     1       7.723   6.045  17.549  0.00  0.00    +0.000 NA
ATOM     12  S   UNL     1       7.664   5.796  19.188  0.00  0.00    +0.000 S 
ATOM     13  N   UNL     1       6.335   4.812  19.302  0.00  0.00    +0.000 NA
ATOM     14  C   UNL     1       5.888   4.606  18.052  0.00  0.00    +0.000 A 
ENDBRANCH   3   6
ENDBRANCH   2   3
BRANCH   2  15
ATOM     15  C   UNL     1       1.989   4.590  19.978  0.00  0.00    +0.000 C 
BRANCH  15  16
ATOM     16  C   UNL     1       2.391   6.058  19.983  0.00  0.00    +0.000 C 
ATOM     17  O   UNL     1       3.255   6.488  19.220  0.00  0.00    +0.000 OA
ATOM     18  N   UNL     1       1.719   6.870  20.872  0.00  0.00    +0.000 N 
ATOM     19  H   UNL     1       0.885   6.497  21.318  0.00  0.00    +0.000 HD
BRANCH  18  20
ATOM     20  C   UNL     1       1.977   8.290  20.902  0.00  0.00    +0.000 C 
BRANCH  20  21
ATOM     21  C   UNL     1       0.958   9.023  20.088  0.00  0.00    +0.000 A 
ATOM     22  C   UNL     1      -0.277   9.495  20.494  0.00  0.00    +0.000 A 
ATOM     23  C   UNL     1      -0.928  10.261  19.483  0.00  0.00    +0.000 A 
ATOM     24  C   UNL     1      -0.179  10.330  18.331  0.00  0.00    +0.000 A 
ATOM     25  S   UNL     1       1.289   9.461  18.465  0.00  0.00    +0.000 S 
ENDBRANCH  20  21
ENDBRANCH  18  20
ENDBRANCH  15  16
ENDBRANCH   2  15
TORSDOF 6
ENDMDL
MODEL 7
REMARK VINA RESULT:      -7.0      1.456      1.703
REMARK  Name = 
REMARK  7 active torsions:
REMARK  status: ('A' for Active; 'I' for Inactive)
REMARK    1  A    between atoms: C_1  and  N_2
REMARK    2  A    between atoms: N_2  and  C_3
REMARK    3  A    between atoms: N_2  and  S_13
REMARK    4  A    between atoms: C_3  and  C_4
REMARK    5  A    between atoms: N_6  and  C_7
REMARK    6  A    between atoms: C_7  and  C_8
REMARK    7  A    between atoms: S_13  and  C_16
REMARK                            x       y       z     vdW  Elec       q    Type
REMARK                         _______ _______ _______ _____ _____    ______ ____
ROOT
ATOM      1  C   UNL     1       1.190   3.072  18.836  0.00  0.00    +0.000 C 
ATOM      2  N   UNL     1       2.408   3.856  18.498  0.00  0.00    +0.000 NA
ENDROOT
BRANCH   2   3
ATOM      3  S   UNL     1       3.853   2.920  18.549  0.00  0.00    +0.000 S 
ATOM      4  O   UNL     1       4.412   2.973  19.878  0.00  0.00    +0.000 OA
ATOM      5  O   UNL     1       3.538   1.643  17.929  0.00  0.00    +0.000 OA
BRANCH   3   6
ATOM      6  C   UNL     1       4.940   3.781  17.472  0.00  0.00    +0.000 A 
ATOM      7  C   UNL     1       4.767   3.722  16.071  0.00  0.00    +0.000 A 
ATOM      8  C   UNL     1       5.585   4.435  15.166  0.00  0.00    +0.000 A 
ATOM      9  C   UNL     1       6.644   5.260  15.582  0.00  0.00    +0.000 A 
ATOM     10  C   UNL     1       6.865   5.342  16.978  0.00  0.00    +0.000 A 
ATOM     11  N   UNL     1       7.821   6.074  17.573  0.00  0.00    +0.000 NA
ATOM     12  S   UNL     1       7.656   5.829  19.205  0.00  0.00    +0.000 S 
ATOM     13  N   UNL     1       6.348   4.810  19.233  0.00  0.00    +0.000 NA
ATOM     14  C   UNL     1       5.994   4.588  17.956  0.00  0.00    +0.000 A 
ENDBRANCH   3   6
ENDBRANCH   2   3
BRANCH   2  15
ATOM     15  C   UNL     1       2.535   5.092  19.333  0.00  0.00    +0.000 C 
BRANCH  15  16
ATOM     16  C   UNL     1       2.665   6.390  18.549  0.00  0.00    +0.000 C 
ATOM     17  O   UNL     1       3.176   6.414  17.429  0.00  0.00    +0.000 OA
ATOM     18  N   UNL     1       2.162   7.521  19.157  0.00  0.00    +0.000 N 
ATOM     19  H   UNL     1       1.575   7.398  19.977  0.00  0.00    +0.000 HD
BRANCH  18  20
ATOM     20  C   UNL     1       2.173   8.788  18.463  0.00  0.00    +0.000 C 
BRANCH  20  21
ATOM     21  C   UNL     1       0.954   9.582  18.811  0.00  0.00    +0.000 A 
ATOM     22  C   UNL     1      -0.146   9.846  18.015  0.00  0.00    +0.000 A 
ATOM     23  C   UNL     1      -1.180  10.528  18.720  0.00  0.00    +0.000 A 
ATOM     24  C   UNL     1      -0.827  10.783  20.026  0.00  0.00    +0.000 A 
ATOM     25  S   UNL     1       0.748  10.219  20.388  0.00  0.00    +0.000 S 
ENDBRANCH  20  21
ENDBRANCH  18  20
ENDBRANCH  15  16
ENDBRANCH   2  15
TORSDOF 6
ENDMDL
MODEL 8
REMARK VINA RESULT:      -7.0      2.422      2.865
REMARK  Name = 
REMARK  7 active torsions:
REMARK  status: ('A' for Active; 'I' for Inactive)
REMARK    1  A    between atoms: C_1  and  N_2
REMARK    2  A    between atoms: N_2  and  C_3
REMARK    3  A    between atoms: N_2  and  S_13
REMARK    4  A    between atoms: C_3  and  C_4
REMARK    5  A    between atoms: N_6  and  C_7
REMARK    6  A    between atoms: C_7  and  C_8
REMARK    7  A    between atoms: S_13  and  C_16
REMARK                            x       y       z     vdW  Elec       q    Type
REMARK                         _______ _______ _______ _____ _____    ______ ____
ROOT
ATOM      1  C   UNL     1       1.361   4.003  17.531  0.00  0.00    +0.000 C 
ATOM      2  N   UNL     1       2.476   4.662  18.263  0.00  0.00    +0.000 NA
ENDROOT
BRANCH   2   3
ATOM      3  S   UNL     1       3.745   3.576  18.684  0.00  0.00    +0.000 S 
ATOM      4  O   UNL     1       3.708   3.321  20.104  0.00  0.00    +0.000 OA
ATOM      5  O   UNL     1       3.679   2.477  17.734  0.00  0.00    +0.000 OA
BRANCH   3   6
ATOM      6  C   UNL     1       5.202   4.492  18.338  0.00  0.00    +0.000 A 
ATOM      7  C   UNL     1       5.955   5.075  19.382  0.00  0.00    +0.000 A 
ATOM      8  C   UNL     1       7.160   5.779  19.157  0.00  0.00    +0.000 A 
ATOM      9  C   UNL     1       7.709   5.965  17.877  0.00  0.00    +0.000 A 
ATOM     10  C   UNL     1       6.983   5.409  16.796  0.00  0.00    +0.000 A 
ATOM     11  N   UNL     1       7.339   5.476  15.503  0.00  0.00    +0.000 NA
ATOM     12  S   UNL     1       6.165   4.676  14.648  0.00  0.00    +0.000 S 
ATOM     13  N   UNL     1       5.169   4.184  15.878  0.00  0.00    +0.000 NA
ATOM     14  C   UNL     1       5.696   4.650  17.023  0.00  0.00    +0.000 A 
ENDBRANCH   3   6
ENDBRANCH   2   3
BRANCH   2  15
ATOM     15  C   UNL     1       1.996   5.422  19.460  0.00  0.00    +0.000 C 
BRANCH  15  16
ATOM     16  C   UNL     1       2.182   6.931  19.383  0.00  0.00    +0.000 C 
ATOM     17  O   UNL     1       2.318   7.612  20.399  0.00  0.00    +0.000 OA
ATOM     18  N   UNL     1       2.209   7.477  18.117  0.00  0.00    +0.000 N 
ATOM     19  H   UNL     1       2.300   6.842  17.329  0.00  0.00    +0.000 HD
BRANCH  18  20
ATOM     20  C   UNL     1       2.454   8.889  17.937  0.00  0.00    +0.000 C 
BRANCH  20  21
ATOM     21  C   UNL     1       1.186   9.664  18.115  0.00  0.00    +0.000 A 
ATOM     22  C   UNL     1      -0.082   9.337  17.669  0.00  0.00    +0.000 A 
ATOM     23  C   UNL     1      -1.075  10.247  18.135  0.00  0.00    +0.000 A 
ATOM     24  C   UNL     1      -0.531  11.251  18.904  0.00  0.00    +0.000 A 
ATOM     25  S   UNL     1       1.168  11.104  19.043  0.00  0.00    +0.000 S 
ENDBRANCH  20  21
ENDBRANCH  18  20
ENDBRANCH  15  16
ENDBRANCH   2  15
TORSDOF 6
ENDMDL
MODEL 9
REMARK VINA RESULT:      -7.0      1.685      2.118
REMARK  Name = 
REMARK  7 active torsions:
REMARK  status: ('A' for Active; 'I' for Inactive)
REMARK    1  A    between atoms: C_1  and  N_2
REMARK    2  A    between atoms: N_2  and  C_3
REMARK    3  A    between atoms: N_2  and  S_13
REMARK    4  A    between atoms: C_3  and  C_4
REMARK    5  A    between atoms: N_6  and  C_7
REMARK    6  A    between atoms: C_7  and  C_8
REMARK    7  A    between atoms: S_13  and  C_16
REMARK                            x       y       z     vdW  Elec       q    Type
REMARK                         _______ _______ _______ _____ _____    ______ ____
ROOT
ATOM      1  C   UNL     1       2.267   4.951  17.839  0.00  0.00    +0.000 C 
ATOM      2  N   UNL     1       3.361   4.725  18.820  0.00  0.00    +0.000 NA
ENDROOT
BRANCH   2   3
ATOM      3  S   UNL     1       4.363   3.382  18.420  0.00  0.00    +0.000 S 
ATOM      4  O   UNL     1       5.223   3.075  19.538  0.00  0.00    +0.000 OA
ATOM      5  O   UNL     1       3.486   2.366  17.863  0.00  0.00    +0.000 OA
BRANCH   3   6
ATOM      6  C   UNL     1       5.369   3.991  17.117  0.00  0.00    +0.000 A 
ATOM      7  C   UNL     1       5.324   3.403  15.833  0.00  0.00    +0.000 A 
ATOM      8  C   UNL     1       6.077   3.887  14.740  0.00  0.00    +0.000 A 
ATOM      9  C   UNL     1       6.940   4.993  14.838  0.00  0.00    +0.000 A 
ATOM     10  C   UNL     1       7.028   5.610  16.109  0.00  0.00    +0.000 A 
ATOM     11  N   UNL     1       7.791   6.674  16.406  0.00  0.00    +0.000 NA
ATOM     12  S   UNL     1       7.538   7.003  18.012  0.00  0.00    +0.000 S 
ATOM     13  N   UNL     1       6.429   5.831  18.395  0.00  0.00    +0.000 NA
ATOM     14  C   UNL     1       6.224   5.103  17.284  0.00  0.00    +0.000 A 
ENDBRANCH   3   6
ENDBRANCH   2   3
BRANCH   2  15
ATOM     15  C   UNL     1       2.850   4.619  20.223  0.00  0.00    +0.000 C 
BRANCH  15  16
ATOM     16  C   UNL     1       1.756   5.611  20.588  0.00  0.00    +0.000 C 
ATOM     17  O   UNL     1       0.592   5.249  20.757  0.00  0.00    +0.000 OA
ATOM     18  N   UNL     1       2.150   6.925  20.736  0.00  0.00    +0.000 N 
ATOM     19  H   UNL     1       3.146   7.118  20.787  0.00  0.00    +0.000 HD
BRANCH  18  20
ATOM     20  C   UNL     1       1.199   7.929  21.152  0.00  0.00    +0.000 C 
BRANCH  20  21
ATOM     21  C   UNL     1       1.143   9.040  20.151  0.00  0.00    +0.000 A 
ATOM     22  C   UNL     1       0.657  10.322  20.329  0.00  0.00    +0.000 A 
ATOM     23  C   UNL     1       0.883  11.154  19.194  0.00  0.00    +0.000 A 
ATOM     24  C   UNL     1       1.515  10.473  18.177  0.00  0.00    +0.000 A 
ATOM     25  S   UNL     1       1.813   8.839  18.587  0.00  0.00    +0.000 S 
ENDBRANCH  20  21
ENDBRANCH  18  20
ENDBRANCH  15  16
ENDBRANCH   2  15
TORSDOF 6
ENDMDL
