MODEL 1
REMARK VINA RESULT:      -6.9      0.000      0.000
REMARK  Name = 
REMARK  7 active torsions:
REMARK  status: ('A' for Active; 'I' for Inactive)
REMARK    1  A    between atoms: C_1  and  S_2
REMARK    2  A    between atoms: S_2  and  C_5
REMARK    3  A    between atoms: C_5  and  C_6
REMARK    4  A    between atoms: C_6  and  C_7
REMARK    5  A    between atoms: C_7  and  N_8
REMARK    6  A    between atoms: N_8  and  C_9
REMARK    7  A    between atoms: C_9  and  C_10
REMARK                            x       y       z     vdW  Elec       q    Type
REMARK                         _______ _______ _______ _____ _____    ______ ____
ROOT
ATOM      1  C   UNL     1       2.639   4.470  19.686  0.00  0.00    +0.000 C 
ATOM      2  C   UNL     1       1.695   3.414  19.001  0.00  0.00    +0.000 C 
ATOM      3  C   UNL     1       0.969   3.285  20.354  0.00  0.00    +0.000 C 
ATOM      4  C   UNL     1       2.282   3.728  21.017  0.00  0.00    +0.000 C 
ENDROOT
BRANCH   1   5
ATOM      5  C   UNL     1       2.300   6.012  19.464  0.00  0.00    +0.000 A 
ATOM      6  C   UNL     1       2.448   6.618  18.195  0.00  0.00    +0.000 A 
ATOM      7  C   UNL     1       2.159   7.967  17.970  0.00  0.00    +0.000 A 
ATOM      8  C   UNL     1       1.706   8.756  19.020  0.00  0.00    +0.000 A 
ATOM      9 BR   UNL     1       1.286  10.574  18.723  0.00  0.00    +0.000 Br
ATOM     10  C   UNL     1       1.558   8.210  20.288  0.00  0.00    +0.000 A 
ATOM     11  C   UNL     1       1.856   6.859  20.501  0.00  0.00    +0.000 A 
ENDBRANCH   1   5
BRANCH   1  12
ATOM     12  N   UNL     1       4.010   4.126  19.249  0.00  0.00    +0.000 NA
ATOM     13  H   UNL     1       4.638   4.921  19.144  0.00  0.00    +0.000 HD
BRANCH  12  14
ATOM     14  C   UNL     1       4.074   3.281  18.054  0.00  0.00    +0.000 C 
BRANCH  14  15
ATOM     15  C   UNL     1       4.778   3.946  16.879  0.00  0.00    +0.000 C 
BRANCH  15  16
ATOM     16  C   UNL     1       5.592   5.154  17.307  0.00  0.00    +0.000 C 
BRANCH  16  18
ATOM     17  C   UNL     1       6.742   4.473  14.875  0.00  0.00    +0.000 C 
ATOM     18  S   UNL     1       7.164   5.156  16.458  0.00  0.00    +0.000 S 
ATOM     19  O   UNL     1       8.040   4.217  17.129  0.00  0.00    +0.000 OA
ATOM     20  O   UNL     1       7.561   6.534  16.244  0.00  0.00    +0.000 OA
ENDBRANCH  16  18
ENDBRANCH  15  16
ENDBRANCH  14  15
ENDBRANCH  12  14
ENDBRANCH   1  12
TORSDOF 6
ENDMDL
MODEL 2
REMARK VINA RESULT:      -6.8      0.946      1.007
REMARK  Name = 
REMARK  7 active torsions:
REMARK  status: ('A' for Active; 'I' for Inactive)
REMARK    1  A    between atoms: C_1  and  S_2
REMARK    2  A    between atoms: S_2  and  C_5
REMARK    3  A    between atoms: C_5  and  C_6
REMARK    4  A    between atoms: C_6  and  C_7
REMARK    5  A    between atoms: C_7  and  N_8
REMARK    6  A    between atoms: N_8  and  C_9
REMARK    7  A    between atoms: C_9  and  C_10
REMARK                            x       y       z     vdW  Elec       q    Type
REMARK                         _______ _______ _______ _____ _____    ______ ____
ROOT
ATOM      1  C   UNL     1       2.643   5.469  19.908  0.00  0.00    +0.000 C 
ATOM      2  C   UNL     1       1.950   4.325  19.079  0.00  0.00    +0.000 C 
ATOM      3  C   UNL     1       1.085   4.040  20.321  0.00  0.00    +0.000 C 
ATOM      4  C   UNL     1       2.228   4.629  21.162  0.00  0.00    +0.000 C 
ENDROOT
BRANCH   1   5
ATOM      5  C   UNL     1       2.122   6.959  19.683  0.00  0.00    +0.000 A 
ATOM      6  C   UNL     1       2.294   7.614  18.442  0.00  0.00    +0.000 A 
ATOM      7  C   UNL     1       1.848   8.920  18.215  0.00  0.00    +0.000 A 
ATOM      8  C   UNL     1       1.207   9.612  19.234  0.00  0.00    +0.000 A 
ATOM      9 BR   UNL     1       0.576  11.367  18.932  0.00  0.00    +0.000 Br
ATOM     10  C   UNL     1       1.027   9.016  20.475  0.00  0.00    +0.000 A 
ATOM     11  C   UNL     1       1.483   7.711  20.691  0.00  0.00    +0.000 A 
ENDBRANCH   1   5
BRANCH   1  12
ATOM     12  N   UNL     1       4.093   5.334  19.646  0.00  0.00    +0.000 NA
ATOM     13  H   UNL     1       4.593   6.215  19.540  0.00  0.00    +0.000 HD
BRANCH  12  14
ATOM     14  C   UNL     1       4.430   4.434  18.541  0.00  0.00    +0.000 C 
BRANCH  14  15
ATOM     15  C   UNL     1       4.620   5.154  17.212  0.00  0.00    +0.000 C 
BRANCH  15  16
ATOM     16  C   UNL     1       5.949   5.884  17.139  0.00  0.00    +0.000 C 
BRANCH  16  18
ATOM     17  C   UNL     1       6.066   3.746  15.375  0.00  0.00    +0.000 C 
ATOM     18  S   UNL     1       7.115   4.925  16.185  0.00  0.00    +0.000 S 
ATOM     19  O   UNL     1       7.967   4.203  17.109  0.00  0.00    +0.000 OA
ATOM     20  O   UNL     1       7.676   5.784  15.160  0.00  0.00    +0.000 OA
ENDBRANCH  16  18
ENDBRANCH  15  16
ENDBRANCH  14  15
ENDBRANCH  12  14
ENDBRANCH   1  12
TORSDOF 6
ENDMDL
MODEL 3
REMARK VINA RESULT:      -6.7      0.772      1.414
REMARK  Name = 
REMARK  7 active torsions:
REMARK  status: ('A' for Active; 'I' for Inactive)
REMARK    1  A    between atoms: C_1  and  S_2
REMARK    2  A    between atoms: S_2  and  C_5
REMARK    3  A    between atoms: C_5  and  C_6
REMARK    4  A    between atoms: C_6  and  C_7
REMARK    5  A    between atoms: C_7  and  N_8
REMARK    6  A    between atoms: N_8  and  C_9
REMARK    7  A    between atoms: C_9  and  C_10
REMARK                            x       y       z     vdW  Elec       q    Type
REMARK                         _______ _______ _______ _____ _____    ______ ____
ROOT
ATOM      1  C   UNL     1       2.688   4.564  19.822  0.00  0.00    +0.000 C 
ATOM      2  C   UNL     1       1.755   3.467  19.189  0.00  0.00    +0.000 C 
ATOM      3  C   UNL     1       1.015   3.411  20.539  0.00  0.00    +0.000 C 
ATOM      4  C   UNL     1       2.320   3.897  21.190  0.00  0.00    +0.000 C 
ENDROOT
BRANCH   1   5
ATOM      5  C   UNL     1       2.346   6.090  19.511  0.00  0.00    +0.000 A 
ATOM      6  C   UNL     1       1.826   6.942  20.511  0.00  0.00    +0.000 A 
ATOM      7  C   UNL     1       1.516   8.284  20.268  0.00  0.00    +0.000 A 
ATOM      8  C   UNL     1       1.726   8.817  19.002  0.00  0.00    +0.000 A 
ATOM      9 BR   UNL     1       1.338  10.635  18.668  0.00  0.00    +0.000 Br
ATOM     10  C   UNL     1       2.222   8.016  17.982  0.00  0.00    +0.000 A 
ATOM     11  C   UNL     1       2.521   6.673  18.238  0.00  0.00    +0.000 A 
ENDBRANCH   1   5
BRANCH   1  12
ATOM     12  N   UNL     1       4.065   4.202  19.419  0.00  0.00    +0.000 NA
ATOM     13  H   UNL     1       4.678   4.993  19.230  0.00  0.00    +0.000 HD
BRANCH  12  14
ATOM     14  C   UNL     1       4.143   3.238  18.319  0.00  0.00    +0.000 C 
BRANCH  14  15
ATOM     15  C   UNL     1       4.546   3.867  16.992  0.00  0.00    +0.000 C 
BRANCH  15  16
ATOM     16  C   UNL     1       5.863   4.617  17.088  0.00  0.00    +0.000 C 
BRANCH  16  18
ATOM     17  C   UNL     1       5.918   4.075  14.367  0.00  0.00    +0.000 C 
ATOM     18  S   UNL     1       6.237   5.386  15.520  0.00  0.00    +0.000 S 
ATOM     19  O   UNL     1       7.657   5.672  15.486  0.00  0.00    +0.000 OA
ATOM     20  O   UNL     1       5.254   6.424  15.278  0.00  0.00    +0.000 OA
ENDBRANCH  16  18
ENDBRANCH  15  16
ENDBRANCH  14  15
ENDBRANCH  12  14
ENDBRANCH   1  12
TORSDOF 6
ENDMDL
MODEL 4
REMARK VINA RESULT:      -6.7      0.998      1.268
REMARK  Name = 
REMARK  7 active torsions:
REMARK  status: ('A' for Active; 'I' for Inactive)
REMARK    1  A    between atoms: C_1  and  S_2
REMARK    2  A    between atoms: S_2  and  C_5
REMARK    3  A    between atoms: C_5  and  C_6
REMARK    4  A    between atoms: C_6  and  C_7
REMARK    5  A    between atoms: C_7  and  N_8
REMARK    6  A    between atoms: N_8  and  C_9
REMARK    7  A    between atoms: C_9  and  C_10
REMARK                            x       y       z     vdW  Elec       q    Type
REMARK                         _______ _______ _______ _____ _____    ______ ____
ROOT
ATOM      1  C   UNL     1       2.595   5.144  19.674  0.00  0.00    +0.000 C 
ATOM      2  C   UNL     1       1.654   4.058  19.035  0.00  0.00    +0.000 C 
ATOM      3  C   UNL     1       1.003   3.902  20.423  0.00  0.00    +0.000 C 
ATOM      4  C   UNL     1       2.333   4.389  21.020  0.00  0.00    +0.000 C 
ENDROOT
BRANCH   1   5
ATOM      5  C   UNL     1       2.194   6.675  19.476  0.00  0.00    +0.000 A 
ATOM      6  C   UNL     1       2.414   7.335  18.245  0.00  0.00    +0.000 A 
ATOM      7  C   UNL     1       2.073   8.675  18.041  0.00  0.00    +0.000 A 
ATOM      8  C   UNL     1       1.492   9.400  19.074  0.00  0.00    +0.000 A 
ATOM      9 BR   UNL     1       1.001  11.203  18.804  0.00  0.00    +0.000 Br
ATOM     10  C   UNL     1       1.269   8.799  20.307  0.00  0.00    +0.000 A 
ATOM     11  C   UNL     1       1.621   7.459  20.499  0.00  0.00    +0.000 A 
ENDBRANCH   1   5
BRANCH   1  12
ATOM     12  N   UNL     1       3.954   4.848  19.166  0.00  0.00    +0.000 NA
ATOM     13  H   UNL     1       4.481   5.661  18.854  0.00  0.00    +0.000 HD
BRANCH  12  14
ATOM     14  C   UNL     1       4.005   3.799  18.145  0.00  0.00    +0.000 C 
BRANCH  14  15
ATOM     15  C   UNL     1       4.184   4.339  16.733  0.00  0.00    +0.000 C 
BRANCH  15  16
ATOM     16  C   UNL     1       5.573   4.068  16.185  0.00  0.00    +0.000 C 
BRANCH  16  18
ATOM     17  C   UNL     1       7.649   4.769  17.889  0.00  0.00    +0.000 C 
ATOM     18  S   UNL     1       6.655   5.434  16.578  0.00  0.00    +0.000 S 
ATOM     19  O   UNL     1       5.849   6.504  17.129  0.00  0.00    +0.000 OA
ATOM     20  O   UNL     1       7.530   5.660  15.443  0.00  0.00    +0.000 OA
ENDBRANCH  16  18
ENDBRANCH  15  16
ENDBRANCH  14  15
ENDBRANCH  12  14
ENDBRANCH   1  12
TORSDOF 6
ENDMDL
MODEL 5
REMARK VINA RESULT:      -6.7      0.752      1.635
REMARK  Name = 
REMARK  7 active torsions:
REMARK  status: ('A' for Active; 'I' for Inactive)
REMARK    1  A    between atoms: C_1  and  S_2
REMARK    2  A    between atoms: S_2  and  C_5
REMARK    3  A    between atoms: C_5  and  C_6
REMARK    4  A    between atoms: C_6  and  C_7
REMARK    5  A    between atoms: C_7  and  N_8
REMARK    6  A    between atoms: N_8  and  C_9
REMARK    7  A    between atoms: C_9  and  C_10
REMARK                            x       y       z     vdW  Elec       q    Type
REMARK                         _______ _______ _______ _____ _____    ______ ____
ROOT
ATOM      1  C   UNL     1       2.654   4.783  19.576  0.00  0.00    +0.000 C 
ATOM      2  C   UNL     1       1.722   3.712  18.897  0.00  0.00    +0.000 C 
ATOM      3  C   UNL     1       1.016   3.561  20.257  0.00  0.00    +0.000 C 
ATOM      4  C   UNL     1       2.328   4.027  20.907  0.00  0.00    +0.000 C 
ENDROOT
BRANCH   1   5
ATOM      5  C   UNL     1       2.282   6.319  19.367  0.00  0.00    +0.000 A 
ATOM      6  C   UNL     1       1.798   7.106  20.436  0.00  0.00    +0.000 A 
ATOM      7  C   UNL     1       1.464   8.456  20.284  0.00  0.00    +0.000 A 
ATOM      8  C   UNL     1       1.611   9.062  19.043  0.00  0.00    +0.000 A 
ATOM      9 BR   UNL     1       1.190  10.891  18.829  0.00  0.00    +0.000 Br
ATOM     10  C   UNL     1       2.070   8.326  17.958  0.00  0.00    +0.000 A 
ATOM     11  C   UNL     1       2.394   6.975  18.123  0.00  0.00    +0.000 A 
ENDBRANCH   1   5
BRANCH   1  12
ATOM     12  N   UNL     1       4.026   4.468  19.120  0.00  0.00    +0.000 NA
ATOM     13  H   UNL     1       4.582   5.276  18.845  0.00  0.00    +0.000 HD
BRANCH  12  14
ATOM     14  C   UNL     1       4.101   3.437  18.082  0.00  0.00    +0.000 C 
BRANCH  14  15
ATOM     15  C   UNL     1       4.921   3.858  16.870  0.00  0.00    +0.000 C 
BRANCH  15  16
ATOM     16  C   UNL     1       5.305   5.326  16.918  0.00  0.00    +0.000 C 
BRANCH  16  18
ATOM     17  C   UNL     1       7.377   7.048  17.581  0.00  0.00    +0.000 C 
ATOM     18  S   UNL     1       7.078   5.491  16.783  0.00  0.00    +0.000 S 
ATOM     19  O   UNL     1       7.412   5.639  15.381  0.00  0.00    +0.000 OA
ATOM     20  O   UNL     1       7.693   4.461  17.598  0.00  0.00    +0.000 OA
ENDBRANCH  16  18
ENDBRANCH  15  16
ENDBRANCH  14  15
ENDBRANCH  12  14
ENDBRANCH   1  12
TORSDOF 6
ENDMDL
MODEL 6
REMARK VINA RESULT:      -6.7      1.056      1.374
REMARK  Name = 
REMARK  7 active torsions:
REMARK  status: ('A' for Active; 'I' for Inactive)
REMARK    1  A    between atoms: C_1  and  S_2
REMARK    2  A    between atoms: S_2  and  C_5
REMARK    3  A    between atoms: C_5  and  C_6
REMARK    4  A    between atoms: C_6  and  C_7
REMARK    5  A    between atoms: C_7  and  N_8
REMARK    6  A    between atoms: N_8  and  C_9
REMARK    7  A    between atoms: C_9  and  C_10
REMARK                            x       y       z     vdW  Elec       q    Type
REMARK                         _______ _______ _______ _____ _____    ______ ____
ROOT
ATOM      1  C   UNL     1       2.524   5.242  19.509  0.00  0.00    +0.000 C 
ATOM      2  C   UNL     1       1.464   4.184  19.029  0.00  0.00    +0.000 C 
ATOM      3  C   UNL     1       1.032   4.047  20.501  0.00  0.00    +0.000 C 
ATOM      4  C   UNL     1       2.452   4.495  20.882  0.00  0.00    +0.000 C 
ENDROOT
BRANCH   1   5
ATOM      5  C   UNL     1       2.141   6.783  19.368  0.00  0.00    +0.000 A 
ATOM      6  C   UNL     1       2.331   7.476  18.150  0.00  0.00    +0.000 A 
ATOM      7  C   UNL     1       2.005   8.827  17.996  0.00  0.00    +0.000 A 
ATOM      8  C   UNL     1       1.470   9.529  19.069  0.00  0.00    +0.000 A 
ATOM      9 BR   UNL     1       1.000  11.347  18.866  0.00  0.00    +0.000 Br
ATOM     10  C   UNL     1       1.278   8.897  20.290  0.00  0.00    +0.000 A 
ATOM     11  C   UNL     1       1.615   7.546  20.432  0.00  0.00    +0.000 A 
ENDBRANCH   1   5
BRANCH   1  12
ATOM     12  N   UNL     1       3.778   4.907  18.798  0.00  0.00    +0.000 NA
ATOM     13  H   UNL     1       4.298   5.707  18.444  0.00  0.00    +0.000 HD
BRANCH  12  14
ATOM     14  C   UNL     1       3.628   3.904  17.741  0.00  0.00    +0.000 C 
BRANCH  14  15
ATOM     15  C   UNL     1       4.753   3.935  16.715  0.00  0.00    +0.000 C 
BRANCH  15  16
ATOM     16  C   UNL     1       5.477   5.269  16.695  0.00  0.00    +0.000 C 
BRANCH  16  18
ATOM     17  C   UNL     1       7.549   6.801  17.724  0.00  0.00    +0.000 C 
ATOM     18  S   UNL     1       7.063   5.109  17.500  0.00  0.00    +0.000 S 
ATOM     19  O   UNL     1       7.985   4.501  16.561  0.00  0.00    +0.000 OA
ATOM     20  O   UNL     1       6.848   4.541  18.817  0.00  0.00    +0.000 OA
ENDBRANCH  16  18
ENDBRANCH  15  16
ENDBRANCH  14  15
ENDBRANCH  12  14
ENDBRANCH   1  12
TORSDOF 6
ENDMDL
MODEL 7
REMARK VINA RESULT:      -6.7      1.443      2.071
REMARK  Name = 
REMARK  7 active torsions:
REMARK  status: ('A' for Active; 'I' for Inactive)
REMARK    1  A    between atoms: C_1  and  S_2
REMARK    2  A    between atoms: S_2  and  C_5
REMARK    3  A    between atoms: C_5  and  C_6
REMARK    4  A    between atoms: C_6  and  C_7
REMARK    5  A    between atoms: C_7  and  N_8
REMARK    6  A    between atoms: N_8  and  C_9
REMARK    7  A    between atoms: C_9  and  C_10
REMARK                            x       y       z     vdW  Elec       q    Type
REMARK                         _______ _______ _______ _____ _____    ______ ____
ROOT
ATOM      1  C   UNL     1       3.090   5.926  18.783  0.00  0.00    +0.000 C 
ATOM      2  C   UNL     1       2.411   4.838  17.872  0.00  0.00    +0.000 C 
ATOM      3  C   UNL     1       1.859   4.200  19.161  0.00  0.00    +0.000 C 
ATOM      4  C   UNL     1       3.054   4.826  19.895  0.00  0.00    +0.000 C 
ENDROOT
BRANCH   1   5
ATOM      5  C   UNL     1       2.333   7.319  18.952  0.00  0.00    +0.000 A 
ATOM      6  C   UNL     1       1.813   7.722  20.204  0.00  0.00    +0.000 A 
ATOM      7  C   UNL     1       1.146   8.937  20.383  0.00  0.00    +0.000 A 
ATOM      8  C   UNL     1       0.981   9.795  19.303  0.00  0.00    +0.000 A 
ATOM      9 BR   UNL     1       0.105  11.452  19.538  0.00  0.00    +0.000 Br
ATOM     10  C   UNL     1       1.462   9.438  18.050  0.00  0.00    +0.000 A 
ATOM     11  C   UNL     1       2.123   8.216  17.883  0.00  0.00    +0.000 A 
ENDBRANCH   1   5
BRANCH   1  12
ATOM     12  N   UNL     1       4.463   6.092  18.256  0.00  0.00    +0.000 NA
ATOM     13  H   UNL     1       4.541   6.051  17.242  0.00  0.00    +0.000 HD
BRANCH  12  14
ATOM     14  C   UNL     1       5.459   5.210  18.868  0.00  0.00    +0.000 C 
BRANCH  14  15
ATOM     15  C   UNL     1       6.513   4.715  17.886  0.00  0.00    +0.000 C 
BRANCH  15  16
ATOM     16  C   UNL     1       5.895   4.104  16.641  0.00  0.00    +0.000 C 
BRANCH  16  18
ATOM     17  C   UNL     1       5.910   4.022  13.867  0.00  0.00    +0.000 C 
ATOM     18  S   UNL     1       6.277   5.113  15.218  0.00  0.00    +0.000 S 
ATOM     19  O   UNL     1       7.705   5.363  15.212  0.00  0.00    +0.000 OA
ATOM     20  O   UNL     1       5.323   6.203  15.166  0.00  0.00    +0.000 OA
ENDBRANCH  16  18
ENDBRANCH  15  16
ENDBRANCH  14  15
ENDBRANCH  12  14
ENDBRANCH   1  12
TORSDOF 6
ENDMDL
MODEL 8
REMARK VINA RESULT:      -6.7      1.366      1.840
REMARK  Name = 
REMARK  7 active torsions:
REMARK  status: ('A' for Active; 'I' for Inactive)
REMARK    1  A    between atoms: C_1  and  S_2
REMARK    2  A    between atoms: S_2  and  C_5
REMARK    3  A    between atoms: C_5  and  C_6
REMARK    4  A    between atoms: C_6  and  C_7
REMARK    5  A    between atoms: C_7  and  N_8
REMARK    6  A    between atoms: N_8  and  C_9
REMARK    7  A    between atoms: C_9  and  C_10
REMARK                            x       y       z     vdW  Elec       q    Type
REMARK                         _______ _______ _______ _____ _____    ______ ____
ROOT
ATOM      1  C   UNL     1       2.812   5.494  19.874  0.00  0.00    +0.000 C 
ATOM      2  C   UNL     1       2.402   4.365  18.858  0.00  0.00    +0.000 C 
ATOM      3  C   UNL     1       1.293   3.967  19.851  0.00  0.00    +0.000 C 
ATOM      4  C   UNL     1       2.173   4.565  20.959  0.00  0.00    +0.000 C 
ENDROOT
BRANCH   1   5
ATOM      5  C   UNL     1       2.265   6.966  19.598  0.00  0.00    +0.000 A 
ATOM      6  C   UNL     1       1.575   7.689  20.597  0.00  0.00    +0.000 A 
ATOM      7  C   UNL     1       1.084   8.981  20.384  0.00  0.00    +0.000 A 
ATOM      8  C   UNL     1       1.276   9.593  19.152  0.00  0.00    +0.000 A 
ATOM      9 BR   UNL     1       0.642  11.349  18.861  0.00  0.00    +0.000 Br
ATOM     10  C   UNL     1       1.937   8.918  18.134  0.00  0.00    +0.000 A 
ATOM     11  C   UNL     1       2.417   7.623  18.358  0.00  0.00    +0.000 A 
ENDBRANCH   1   5
BRANCH   1  12
ATOM     12  N   UNL     1       4.289   5.448  19.951  0.00  0.00    +0.000 NA
ATOM     13  H   UNL     1       4.738   6.344  20.130  0.00  0.00    +0.000 HD
BRANCH  12  14
ATOM     14  C   UNL     1       4.937   4.785  18.817  0.00  0.00    +0.000 C 
BRANCH  14  15
ATOM     15  C   UNL     1       5.995   5.645  18.138  0.00  0.00    +0.000 C 
BRANCH  15  16
ATOM     16  C   UNL     1       7.012   4.812  17.380  0.00  0.00    +0.000 C 
BRANCH  16  18
ATOM     17  C   UNL     1       5.343   6.047  15.539  0.00  0.00    +0.000 C 
ATOM     18  S   UNL     1       6.628   4.827  15.635  0.00  0.00    +0.000 S 
ATOM     19  O   UNL     1       6.051   3.544  15.290  0.00  0.00    +0.000 OA
ATOM     20  O   UNL     1       7.778   5.351  14.923  0.00  0.00    +0.000 OA
ENDBRANCH  16  18
ENDBRANCH  15  16
ENDBRANCH  14  15
ENDBRANCH  12  14
ENDBRANCH   1  12
TORSDOF 6
ENDMDL
MODEL 9
REMARK VINA RESULT:      -6.5      1.131      1.826
REMARK  Name = 
REMARK  7 active torsions:
REMARK  status: ('A' for Active; 'I' for Inactive)
REMARK    1  A    between atoms: C_1  and  S_2
REMARK    2  A    between atoms: S_2  and  C_5
REMARK    3  A    between atoms: C_5  and  C_6
REMARK    4  A    between atoms: C_6  and  C_7
REMARK    5  A    between atoms: C_7  and  N_8
REMARK    6  A    between atoms: N_8  and  C_9
REMARK    7  A    between atoms: C_9  and  C_10
REMARK                            x       y       z     vdW  Elec       q    Type
REMARK                         _______ _______ _______ _____ _____    ______ ____
ROOT
ATOM      1  C   UNL     1       2.656   5.393  19.495  0.00  0.00    +0.000 C 
ATOM      2  C   UNL     1       1.719   4.287  18.883  0.00  0.00    +0.000 C 
ATOM      3  C   UNL     1       1.125   4.106  20.293  0.00  0.00    +0.000 C 
ATOM      4  C   UNL     1       2.462   4.623  20.844  0.00  0.00    +0.000 C 
ENDROOT
BRANCH   1   5
ATOM      5  C   UNL     1       2.209   6.914  19.321  0.00  0.00    +0.000 A 
ATOM      6  C   UNL     1       1.654   7.641  20.399  0.00  0.00    +0.000 A 
ATOM      7  C   UNL     1       1.253   8.975  20.278  0.00  0.00    +0.000 A 
ATOM      8  C   UNL     1       1.402   9.627  19.060  0.00  0.00    +0.000 A 
ATOM      9 BR   UNL     1       0.889  11.437  18.890  0.00  0.00    +0.000 Br
ATOM     10  C   UNL     1       1.929   8.951  17.968  0.00  0.00    +0.000 A 
ATOM     11  C   UNL     1       2.320   7.614  18.101  0.00  0.00    +0.000 A 
ENDBRANCH   1   5
BRANCH   1  12
ATOM     12  N   UNL     1       4.002   5.135  18.935  0.00  0.00    +0.000 NA
ATOM     13  H   UNL     1       4.412   5.916  18.427  0.00  0.00    +0.000 HD
BRANCH  12  14
ATOM     14  C   UNL     1       4.103   3.913  18.134  0.00  0.00    +0.000 C 
BRANCH  14  15
ATOM     15  C   UNL     1       4.387   4.177  16.661  0.00  0.00    +0.000 C 
BRANCH  15  16
ATOM     16  C   UNL     1       5.857   4.014  16.322  0.00  0.00    +0.000 C 
BRANCH  16  18
ATOM     17  C   UNL     1       7.329   6.009  17.567  0.00  0.00    +0.000 C 
ATOM     18  S   UNL     1       6.587   5.613  16.005  0.00  0.00    +0.000 S 
ATOM     19  O   UNL     1       5.514   6.559  15.769  0.00  0.00    +0.000 OA
ATOM     20  O   UNL     1       7.661   5.439  15.046  0.00  0.00    +0.000 OA
ENDBRANCH  16  18
ENDBRANCH  15  16
ENDBRANCH  14  15
ENDBRANCH  12  14
ENDBRANCH   1  12
TORSDOF 6
ENDMDL
