MODEL 1
REMARK VINA RESULT:      -7.4      0.000      0.000
REMARK  Name = 
REMARK  7 active torsions:
REMARK  status: ('A' for Active; 'I' for Inactive)
REMARK    1  A    between atoms: C_1  and  O_2
REMARK    2  A    between atoms: O_2  and  C_3
REMARK    3  A    between atoms: C_8  and  N_9
REMARK    4  A    between atoms: N_12  and  C_13
REMARK    5  A    between atoms: N_12  and  C_20
REMARK    6  A    between atoms: C_13  and  C_14
REMARK    7  A    between atoms: C_17  and  C_18
REMARK                            x       y       z     vdW  Elec       q    Type
REMARK                         _______ _______ _______ _____ _____    ______ ____
ROOT
ATOM      1  N   UNL     1       3.810   3.858  17.624  0.00  0.00    +0.000 N 
ATOM      2  C   UNL     1       4.238   5.158  17.432  0.00  0.00    +0.000 C 
ATOM      3  O   UNL     1       3.830   6.124  18.069  0.00  0.00    +0.000 OA
ATOM      4  N   UNL     1       5.193   5.321  16.412  0.00  0.00    +0.000 N 
ATOM      5  H   UNL     1       4.236   3.134  17.062  0.00  0.00    +0.000 HD
ENDROOT
BRANCH   1  11
ATOM      6  C   UNL     1       3.286   2.954  19.835  0.00  0.00    +0.000 A 
ATOM      7  N   UNL     1       2.456   2.585  20.841  0.00  0.00    +0.000 NA
ATOM      8  C   UNL     1       1.139   2.565  20.560  0.00  0.00    +0.000 A 
ATOM      9  C   UNL     1       0.618   2.885  19.320  0.00  0.00    +0.000 A 
ATOM     10  C   UNL     1       1.492   3.306  18.316  0.00  0.00    +0.000 A 
ATOM     11  C   UNL     1       2.860   3.383  18.565  0.00  0.00    +0.000 A 
BRANCH   6  13
ATOM     12  C   UNL     1       5.046   1.600  20.575  0.00  0.00    +0.000 C 
ATOM     13  O   UNL     1       4.657   2.872  20.057  0.00  0.00    +0.000 OA
ENDBRANCH   6  13
ENDBRANCH   1  11
BRANCH   4  14
ATOM     14  C   UNL     1       5.792   4.236  15.671  0.00  0.00    +0.000 C 
ATOM     15  C   UNL     1       5.458   4.031  14.212  0.00  0.00    +0.000 C 
ATOM     16  C   UNL     1       6.840   4.440  14.603  0.00  0.00    +0.000 C 
ENDBRANCH   4  14
BRANCH   4  17
ATOM     17  C   UNL     1       5.705   6.676  16.167  0.00  0.00    +0.000 C 
BRANCH  17  18
ATOM     18  C   UNL     1       6.799   7.039  17.112  0.00  0.00    +0.000 A 
ATOM     19  C   UNL     1       7.484   6.339  18.084  0.00  0.00    +0.000 A 
ATOM     20  C   UNL     1       8.348   7.265  18.717  0.00  0.00    +0.000 A 
ATOM     21  C   UNL     1       8.147   8.474  18.092  0.00  0.00    +0.000 A 
ATOM     22  C   UNL     1       8.733   9.817  18.282  0.00  0.00    +0.000 C 
ATOM     23  O   UNL     1       7.202   8.346  17.117  0.00  0.00    +0.000 OA
ENDBRANCH  17  18
ENDBRANCH   4  17
TORSDOF 5
ENDMDL
MODEL 2
REMARK VINA RESULT:      -7.1      1.345      1.566
REMARK  Name = 
REMARK  7 active torsions:
REMARK  status: ('A' for Active; 'I' for Inactive)
REMARK    1  A    between atoms: C_1  and  O_2
REMARK    2  A    between atoms: O_2  and  C_3
REMARK    3  A    between atoms: C_8  and  N_9
REMARK    4  A    between atoms: N_12  and  C_13
REMARK    5  A    between atoms: N_12  and  C_20
REMARK    6  A    between atoms: C_13  and  C_14
REMARK    7  A    between atoms: C_17  and  C_18
REMARK                            x       y       z     vdW  Elec       q    Type
REMARK                         _______ _______ _______ _____ _____    ______ ____
ROOT
ATOM      1  N   UNL     1       4.246   4.101  18.338  0.00  0.00    +0.000 N 
ATOM      2  C   UNL     1       5.450   4.684  18.691  0.00  0.00    +0.000 C 
ATOM      3  O   UNL     1       5.720   5.087  19.818  0.00  0.00    +0.000 OA
ATOM      4  N   UNL     1       6.376   4.809  17.641  0.00  0.00    +0.000 N 
ATOM      5  H   UNL     1       4.142   3.777  17.386  0.00  0.00    +0.000 HD
ENDROOT
BRANCH   1  11
ATOM      6  C   UNL     1       3.046   2.642  19.890  0.00  0.00    +0.000 A 
ATOM      7  N   UNL     1       2.076   2.346  20.789  0.00  0.00    +0.000 NA
ATOM      8  C   UNL     1       1.089   3.250  20.931  0.00  0.00    +0.000 A 
ATOM      9  C   UNL     1       1.022   4.428  20.210  0.00  0.00    +0.000 A 
ATOM     10  C   UNL     1       2.058   4.728  19.324  0.00  0.00    +0.000 A 
ATOM     11  C   UNL     1       3.124   3.846  19.167  0.00  0.00    +0.000 A 
BRANCH   6  13
ATOM     12  C   UNL     1       4.940   1.542  20.712  0.00  0.00    +0.000 C 
ATOM     13  O   UNL     1       4.015   1.678  19.634  0.00  0.00    +0.000 OA
ENDBRANCH   6  13
ENDBRANCH   1  11
BRANCH   4  14
ATOM     14  C   UNL     1       6.179   4.287  16.309  0.00  0.00    +0.000 C 
ATOM     15  C   UNL     1       5.594   5.162  15.225  0.00  0.00    +0.000 C 
ATOM     16  C   UNL     1       7.013   4.706  15.122  0.00  0.00    +0.000 C 
ENDBRANCH   4  14
BRANCH   4  17
ATOM     17  C   UNL     1       7.684   5.403  17.952  0.00  0.00    +0.000 C 
BRANCH  17  18
ATOM     18  C   UNL     1       7.647   6.892  17.895  0.00  0.00    +0.000 A 
ATOM     19  C   UNL     1       6.933   7.795  17.134  0.00  0.00    +0.000 A 
ATOM     20  C   UNL     1       7.414   9.082  17.476  0.00  0.00    +0.000 A 
ATOM     21  C   UNL     1       8.388   8.892  18.429  0.00  0.00    +0.000 A 
ATOM     22  C   UNL     1       9.260   9.821  19.179  0.00  0.00    +0.000 C 
ATOM     23  O   UNL     1       8.540   7.562  18.686  0.00  0.00    +0.000 OA
ENDBRANCH  17  18
ENDBRANCH   4  17
TORSDOF 5
ENDMDL
MODEL 3
REMARK VINA RESULT:      -7.0      1.591      2.347
REMARK  Name = 
REMARK  7 active torsions:
REMARK  status: ('A' for Active; 'I' for Inactive)
REMARK    1  A    between atoms: C_1  and  O_2
REMARK    2  A    between atoms: O_2  and  C_3
REMARK    3  A    between atoms: C_8  and  N_9
REMARK    4  A    between atoms: N_12  and  C_13
REMARK    5  A    between atoms: N_12  and  C_20
REMARK    6  A    between atoms: C_13  and  C_14
REMARK    7  A    between atoms: C_17  and  C_18
REMARK                            x       y       z     vdW  Elec       q    Type
REMARK                         _______ _______ _______ _____ _____    ______ ____
ROOT
ATOM      1  N   UNL     1       4.344   4.040  18.421  0.00  0.00    +0.000 N 
ATOM      2  C   UNL     1       5.551   4.633  18.745  0.00  0.00    +0.000 C 
ATOM      3  O   UNL     1       5.841   5.046  19.863  0.00  0.00    +0.000 OA
ATOM      4  N   UNL     1       6.455   4.757  17.676  0.00  0.00    +0.000 N 
ATOM      5  H   UNL     1       4.223   3.708  17.474  0.00  0.00    +0.000 HD
ENDROOT
BRANCH   1  11
ATOM      6  C   UNL     1       2.353   4.822  19.604  0.00  0.00    +0.000 A 
ATOM      7  N   UNL     1       1.213   4.663  20.320  0.00  0.00    +0.000 NA
ATOM      8  C   UNL     1       0.972   3.430  20.803  0.00  0.00    +0.000 A 
ATOM      9  C   UNL     1       1.821   2.355  20.612  0.00  0.00    +0.000 A 
ATOM     10  C   UNL     1       2.964   2.537  19.832  0.00  0.00    +0.000 A 
ATOM     11  C   UNL     1       3.241   3.783  19.275  0.00  0.00    +0.000 A 
BRANCH   6  13
ATOM     12  C   UNL     1       2.061   7.113  19.986  0.00  0.00    +0.000 C 
ATOM     13  O   UNL     1       2.690   6.107  19.191  0.00  0.00    +0.000 OA
ENDBRANCH   6  13
ENDBRANCH   1  11
BRANCH   4  14
ATOM     14  C   UNL     1       6.234   4.224  16.352  0.00  0.00    +0.000 C 
ATOM     15  C   UNL     1       5.568   5.069  15.290  0.00  0.00    +0.000 C 
ATOM     16  C   UNL     1       7.003   4.682  15.135  0.00  0.00    +0.000 C 
ENDBRANCH   4  14
BRANCH   4  17
ATOM     17  C   UNL     1       7.764   5.363  17.956  0.00  0.00    +0.000 C 
BRANCH  17  18
ATOM     18  C   UNL     1       7.711   6.852  17.908  0.00  0.00    +0.000 A 
ATOM     19  C   UNL     1       7.003   7.752  17.138  0.00  0.00    +0.000 A 
ATOM     20  C   UNL     1       7.461   9.042  17.500  0.00  0.00    +0.000 A 
ATOM     21  C   UNL     1       8.416   8.857  18.473  0.00  0.00    +0.000 A 
ATOM     22  C   UNL     1       9.260   9.790  19.249  0.00  0.00    +0.000 C 
ATOM     23  O   UNL     1       8.578   7.526  18.724  0.00  0.00    +0.000 OA
ENDBRANCH  17  18
ENDBRANCH   4  17
TORSDOF 5
ENDMDL
MODEL 4
REMARK VINA RESULT:      -6.8      2.250      6.629
REMARK  Name = 
REMARK  7 active torsions:
REMARK  status: ('A' for Active; 'I' for Inactive)
REMARK    1  A    between atoms: C_1  and  O_2
REMARK    2  A    between atoms: O_2  and  C_3
REMARK    3  A    between atoms: C_8  and  N_9
REMARK    4  A    between atoms: N_12  and  C_13
REMARK    5  A    between atoms: N_12  and  C_20
REMARK    6  A    between atoms: C_13  and  C_14
REMARK    7  A    between atoms: C_17  and  C_18
REMARK                            x       y       z     vdW  Elec       q    Type
REMARK                         _______ _______ _______ _____ _____    ______ ____
ROOT
ATOM      1  N   UNL     1       4.165   6.116  17.014  0.00  0.00    +0.000 N 
ATOM      2  C   UNL     1       3.918   5.813  18.341  0.00  0.00    +0.000 C 
ATOM      3  O   UNL     1       4.583   5.025  19.006  0.00  0.00    +0.000 OA
ATOM      4  N   UNL     1       2.809   6.470  18.901  0.00  0.00    +0.000 N 
ATOM      5  H   UNL     1       3.571   6.804  16.571  0.00  0.00    +0.000 HD
ENDROOT
BRANCH   1  11
ATOM      6  C   UNL     1       6.464   6.229  16.190  0.00  0.00    +0.000 A 
ATOM      7  N   UNL     1       7.547   5.767  15.519  0.00  0.00    +0.000 NA
ATOM      8  C   UNL     1       7.358   4.687  14.738  0.00  0.00    +0.000 A 
ATOM      9  C   UNL     1       6.137   4.056  14.591  0.00  0.00    +0.000 A 
ATOM     10  C   UNL     1       5.049   4.524  15.329  0.00  0.00    +0.000 A 
ATOM     11  C   UNL     1       5.199   5.615  16.183  0.00  0.00    +0.000 A 
BRANCH   6  13
ATOM     12  C   UNL     1       7.693   7.364  17.827  0.00  0.00    +0.000 C 
ATOM     13  O   UNL     1       6.598   7.410  16.912  0.00  0.00    +0.000 OA
ENDBRANCH   6  13
ENDBRANCH   1  11
BRANCH   4  14
ATOM     14  C   UNL     1       2.023   7.474  18.222  0.00  0.00    +0.000 C 
ATOM     15  C   UNL     1       1.636   8.749  18.933  0.00  0.00    +0.000 C 
ATOM     16  C   UNL     1       2.582   8.805  17.779  0.00  0.00    +0.000 C 
ENDBRANCH   4  14
BRANCH   4  17
ATOM     17  C   UNL     1       2.501   6.206  20.313  0.00  0.00    +0.000 C 
BRANCH  17  18
ATOM     18  C   UNL     1       2.025   4.809  20.529  0.00  0.00    +0.000 A 
ATOM     19  C   UNL     1       2.128   3.925  21.583  0.00  0.00    +0.000 A 
ATOM     20  C   UNL     1       1.554   2.706  21.146  0.00  0.00    +0.000 A 
ATOM     21  C   UNL     1       1.128   2.919  19.854  0.00  0.00    +0.000 A 
ATOM     22  C   UNL     1       0.458   2.056  18.859  0.00  0.00    +0.000 C 
ATOM     23  O   UNL     1       1.415   4.195  19.470  0.00  0.00    +0.000 OA
ENDBRANCH  17  18
ENDBRANCH   4  17
TORSDOF 5
ENDMDL
MODEL 5
REMARK VINA RESULT:      -6.7      4.812      6.038
REMARK  Name = 
REMARK  7 active torsions:
REMARK  status: ('A' for Active; 'I' for Inactive)
REMARK    1  A    between atoms: C_1  and  O_2
REMARK    2  A    between atoms: O_2  and  C_3
REMARK    3  A    between atoms: C_8  and  N_9
REMARK    4  A    between atoms: N_12  and  C_13
REMARK    5  A    between atoms: N_12  and  C_20
REMARK    6  A    between atoms: C_13  and  C_14
REMARK    7  A    between atoms: C_17  and  C_18
REMARK                            x       y       z     vdW  Elec       q    Type
REMARK                         _______ _______ _______ _____ _____    ______ ____
ROOT
ATOM      1  N   UNL     1       1.569   8.130  19.932  0.00  0.00    +0.000 N 
ATOM      2  C   UNL     1       2.289   7.525  18.918  0.00  0.00    +0.000 C 
ATOM      3  O   UNL     1       2.615   8.079  17.873  0.00  0.00    +0.000 OA
ATOM      4  N   UNL     1       2.623   6.179  19.152  0.00  0.00    +0.000 N 
ATOM      5  H   UNL     1       1.380   7.587  20.763  0.00  0.00    +0.000 HD
ENDROOT
BRANCH   1  11
ATOM      6  C   UNL     1       1.027  10.138  21.217  0.00  0.00    +0.000 A 
ATOM      7  N   UNL     1       0.688  11.442  21.364  0.00  0.00    +0.000 NA
ATOM      8  C   UNL     1       0.316  12.098  20.249  0.00  0.00    +0.000 A 
ATOM      9  C   UNL     1       0.259  11.509  19.000  0.00  0.00    +0.000 A 
ATOM     10  C   UNL     1       0.658  10.178  18.870  0.00  0.00    +0.000 A 
ATOM     11  C   UNL     1       1.089   9.463  19.984  0.00  0.00    +0.000 A 
BRANCH   6  13
ATOM     12  C   UNL     1       0.211   9.407  23.285  0.00  0.00    +0.000 C 
ATOM     13  O   UNL     1       1.302   9.402  22.364  0.00  0.00    +0.000 OA
ENDBRANCH   6  13
ENDBRANCH   1  11
BRANCH   4  14
ATOM     14  C   UNL     1       2.356   5.472  20.383  0.00  0.00    +0.000 C 
ATOM     15  C   UNL     1       1.156   4.560  20.495  0.00  0.00    +0.000 C 
ATOM     16  C   UNL     1       2.532   3.980  20.537  0.00  0.00    +0.000 C 
ENDBRANCH   4  14
BRANCH   4  17
ATOM     17  C   UNL     1       3.403   5.480  18.122  0.00  0.00    +0.000 C 
BRANCH  17  18
ATOM     18  C   UNL     1       4.871   5.623  18.341  0.00  0.00    +0.000 A 
ATOM     19  C   UNL     1       5.773   4.985  19.167  0.00  0.00    +0.000 A 
ATOM     20  C   UNL     1       7.017   5.637  18.989  0.00  0.00    +0.000 A 
ATOM     21  C   UNL     1       6.805   6.630  18.060  0.00  0.00    +0.000 A 
ATOM     22  C   UNL     1       7.688   7.648  17.453  0.00  0.00    +0.000 C 
ATOM     23  O   UNL     1       5.501   6.632  17.664  0.00  0.00    +0.000 OA
ENDBRANCH  17  18
ENDBRANCH   4  17
TORSDOF 5
ENDMDL
MODEL 6
REMARK VINA RESULT:      -6.6      5.734      7.736
REMARK  Name = 
REMARK  7 active torsions:
REMARK  status: ('A' for Active; 'I' for Inactive)
REMARK    1  A    between atoms: C_1  and  O_2
REMARK    2  A    between atoms: O_2  and  C_3
REMARK    3  A    between atoms: C_8  and  N_9
REMARK    4  A    between atoms: N_12  and  C_13
REMARK    5  A    between atoms: N_12  and  C_20
REMARK    6  A    between atoms: C_13  and  C_14
REMARK    7  A    between atoms: C_17  and  C_18
REMARK                            x       y       z     vdW  Elec       q    Type
REMARK                         _______ _______ _______ _____ _____    ______ ____
ROOT
ATOM      1  N   UNL     1       2.270   7.525  18.877  0.00  0.00    +0.000 N 
ATOM      2  C   UNL     1       1.794   8.762  18.480  0.00  0.00    +0.000 C 
ATOM      3  O   UNL     1       2.058   9.293  17.406  0.00  0.00    +0.000 OA
ATOM      4  N   UNL     1       0.975   9.409  19.421  0.00  0.00    +0.000 N 
ATOM      5  H   UNL     1       1.965   7.170  19.772  0.00  0.00    +0.000 HD
ENDROOT
BRANCH   1  11
ATOM      6  C   UNL     1       2.841   5.264  18.145  0.00  0.00    +0.000 A 
ATOM      7  N   UNL     1       3.516   4.351  17.404  0.00  0.00    +0.000 NA
ATOM      8  C   UNL     1       4.564   4.807  16.694  0.00  0.00    +0.000 A 
ATOM      9  C   UNL     1       4.973   6.128  16.698  0.00  0.00    +0.000 A 
ATOM     10  C   UNL     1       4.232   7.054  17.433  0.00  0.00    +0.000 A 
ATOM     11  C   UNL     1       3.114   6.643  18.155  0.00  0.00    +0.000 A 
BRANCH   6  13
ATOM     12  C   UNL     1       1.344   3.520  18.590  0.00  0.00    +0.000 C 
ATOM     13  O   UNL     1       1.828   4.805  18.980  0.00  0.00    +0.000 OA
ENDBRANCH   6  13
ENDBRANCH   1  11
BRANCH   4  14
ATOM     14  C   UNL     1       0.543   8.826  20.669  0.00  0.00    +0.000 C 
ATOM     15  C   UNL     1       1.339   9.052  21.934  0.00  0.00    +0.000 C 
ATOM     16  C   UNL     1      -0.031   9.634  21.808  0.00  0.00    +0.000 C 
ENDBRANCH   4  14
BRANCH   4  17
ATOM     17  C   UNL     1       0.420  10.720  19.055  0.00  0.00    +0.000 C 
BRANCH  17  18
ATOM     18  C   UNL     1      -0.952  10.606  18.484  0.00  0.00    +0.000 A 
ATOM     19  C   UNL     1      -1.478   9.916  17.411  0.00  0.00    +0.000 A 
ATOM     20  C   UNL     1      -2.841  10.290  17.319  0.00  0.00    +0.000 A 
ATOM     21  C   UNL     1      -3.070  11.180  18.344  0.00  0.00    +0.000 A 
ATOM     22  C   UNL     1      -4.269  11.924  18.784  0.00  0.00    +0.000 C 
ATOM     23  O   UNL     1      -1.924  11.381  19.055  0.00  0.00    +0.000 OA
ENDBRANCH  17  18
ENDBRANCH   4  17
TORSDOF 5
ENDMDL
MODEL 7
REMARK VINA RESULT:      -6.6      1.707      3.400
REMARK  Name = 
REMARK  7 active torsions:
REMARK  status: ('A' for Active; 'I' for Inactive)
REMARK    1  A    between atoms: C_1  and  O_2
REMARK    2  A    between atoms: O_2  and  C_3
REMARK    3  A    between atoms: C_8  and  N_9
REMARK    4  A    between atoms: N_12  and  C_13
REMARK    5  A    between atoms: N_12  and  C_20
REMARK    6  A    between atoms: C_13  and  C_14
REMARK    7  A    between atoms: C_17  and  C_18
REMARK                            x       y       z     vdW  Elec       q    Type
REMARK                         _______ _______ _______ _____ _____    ______ ____
ROOT
ATOM      1  N   UNL     1       4.182   4.784  19.387  0.00  0.00    +0.000 N 
ATOM      2  C   UNL     1       4.096   5.277  18.098  0.00  0.00    +0.000 C 
ATOM      3  O   UNL     1       3.114   5.153  17.373  0.00  0.00    +0.000 OA
ATOM      4  N   UNL     1       5.248   5.939  17.640  0.00  0.00    +0.000 N 
ATOM      5  H   UNL     1       5.030   4.970  19.906  0.00  0.00    +0.000 HD
ENDROOT
BRANCH   1  11
ATOM      6  C   UNL     1       3.309   2.681  20.277  0.00  0.00    +0.000 A 
ATOM      7  N   UNL     1       2.484   1.924  21.042  0.00  0.00    +0.000 NA
ATOM      8  C   UNL     1       1.447   2.559  21.620  0.00  0.00    +0.000 A 
ATOM      9  C   UNL     1       1.192   3.908  21.460  0.00  0.00    +0.000 A 
ATOM     10  C   UNL     1       2.084   4.671  20.705  0.00  0.00    +0.000 A 
ATOM     11  C   UNL     1       3.195   4.073  20.117  0.00  0.00    +0.000 A 
BRANCH   6  13
ATOM     12  C   UNL     1       3.822   1.335  18.433  0.00  0.00    +0.000 C 
ATOM     13  O   UNL     1       4.320   2.036  19.572  0.00  0.00    +0.000 OA
ENDBRANCH   6  13
ENDBRANCH   1  11
BRANCH   4  14
ATOM     14  C   UNL     1       6.414   6.206  18.449  0.00  0.00    +0.000 C 
ATOM     15  C   UNL     1       7.653   5.351  18.310  0.00  0.00    +0.000 C 
ATOM     16  C   UNL     1       7.694   6.786  17.894  0.00  0.00    +0.000 C 
ENDBRANCH   4  14
BRANCH   4  17
ATOM     17  C   UNL     1       5.217   6.503  16.283  0.00  0.00    +0.000 C 
BRANCH  17  18
ATOM     18  C   UNL     1       5.684   5.524  15.261  0.00  0.00    +0.000 A 
ATOM     19  C   UNL     1       5.381   4.202  15.005  0.00  0.00    +0.000 A 
ATOM     20  C   UNL     1       6.231   3.789  13.951  0.00  0.00    +0.000 A 
ATOM     21  C   UNL     1       6.998   4.883  13.618  0.00  0.00    +0.000 A 
ATOM     22  C   UNL     1       8.058   5.102  12.613  0.00  0.00    +0.000 C 
ATOM     23  O   UNL     1       6.674   5.942  14.414  0.00  0.00    +0.000 OA
ENDBRANCH  17  18
ENDBRANCH   4  17
TORSDOF 5
ENDMDL
MODEL 8
REMARK VINA RESULT:      -6.6      5.568      7.569
REMARK  Name = 
REMARK  7 active torsions:
REMARK  status: ('A' for Active; 'I' for Inactive)
REMARK    1  A    between atoms: C_1  and  O_2
REMARK    2  A    between atoms: O_2  and  C_3
REMARK    3  A    between atoms: C_8  and  N_9
REMARK    4  A    between atoms: N_12  and  C_13
REMARK    5  A    between atoms: N_12  and  C_20
REMARK    6  A    between atoms: C_13  and  C_14
REMARK    7  A    between atoms: C_17  and  C_18
REMARK                            x       y       z     vdW  Elec       q    Type
REMARK                         _______ _______ _______ _____ _____    ______ ____
ROOT
ATOM      1  N   UNL     1       2.254   7.555  18.907  0.00  0.00    +0.000 N 
ATOM      2  C   UNL     1       1.877   8.831  18.529  0.00  0.00    +0.000 C 
ATOM      3  O   UNL     1       2.217   9.373  17.482  0.00  0.00    +0.000 OA
ATOM      4  N   UNL     1       1.065   9.507  19.457  0.00  0.00    +0.000 N 
ATOM      5  H   UNL     1       1.891   7.197  19.779  0.00  0.00    +0.000 HD
ENDROOT
BRANCH   1  11
ATOM      6  C   UNL     1       2.780   5.262  18.243  0.00  0.00    +0.000 A 
ATOM      7  N   UNL     1       3.423   4.315  17.516  0.00  0.00    +0.000 NA
ATOM      8  C   UNL     1       4.451   4.734  16.755  0.00  0.00    +0.000 A 
ATOM      9  C   UNL     1       4.871   6.050  16.695  0.00  0.00    +0.000 A 
ATOM     10  C   UNL     1       4.162   7.011  17.418  0.00  0.00    +0.000 A 
ATOM     11  C   UNL     1       3.066   6.638  18.192  0.00  0.00    +0.000 A 
BRANCH   6  13
ATOM     12  C   UNL     1       1.309   3.537  18.824  0.00  0.00    +0.000 C 
ATOM     13  O   UNL     1       1.792   4.846  19.128  0.00  0.00    +0.000 OA
ENDBRANCH   6  13
ENDBRANCH   1  11
BRANCH   4  14
ATOM     14  C   UNL     1       0.547   8.920  20.670  0.00  0.00    +0.000 C 
ATOM     15  C   UNL     1       1.308   9.055  21.969  0.00  0.00    +0.000 C 
ATOM     16  C   UNL     1      -0.014   9.734  21.812  0.00  0.00    +0.000 C 
ENDBRANCH   4  14
BRANCH   4  17
ATOM     17  C   UNL     1       0.613  10.861  19.109  0.00  0.00    +0.000 C 
BRANCH  17  18
ATOM     18  C   UNL     1      -0.778  10.865  18.573  0.00  0.00    +0.000 A 
ATOM     19  C   UNL     1      -1.981  11.336  19.059  0.00  0.00    +0.000 A 
ATOM     20  C   UNL     1      -2.973  10.952  18.124  0.00  0.00    +0.000 A 
ATOM     21  C   UNL     1      -2.319  10.275  17.119  0.00  0.00    +0.000 A 
ATOM     22  C   UNL     1      -2.781   9.630  15.873  0.00  0.00    +0.000 C 
ATOM     23  O   UNL     1      -0.984  10.214  17.387  0.00  0.00    +0.000 OA
ENDBRANCH  17  18
ENDBRANCH   4  17
TORSDOF 5
ENDMDL
MODEL 9
REMARK VINA RESULT:      -6.5      0.793      1.284
REMARK  Name = 
REMARK  7 active torsions:
REMARK  status: ('A' for Active; 'I' for Inactive)
REMARK    1  A    between atoms: C_1  and  O_2
REMARK    2  A    between atoms: O_2  and  C_3
REMARK    3  A    between atoms: C_8  and  N_9
REMARK    4  A    between atoms: N_12  and  C_13
REMARK    5  A    between atoms: N_12  and  C_20
REMARK    6  A    between atoms: C_13  and  C_14
REMARK    7  A    between atoms: C_17  and  C_18
REMARK                            x       y       z     vdW  Elec       q    Type
REMARK                         _______ _______ _______ _____ _____    ______ ____
ROOT
ATOM      1  N   UNL     1       3.658   3.831  17.641  0.00  0.00    +0.000 N 
ATOM      2  C   UNL     1       4.155   5.109  17.461  0.00  0.00    +0.000 C 
ATOM      3  O   UNL     1       3.852   6.075  18.155  0.00  0.00    +0.000 OA
ATOM      4  N   UNL     1       5.048   5.250  16.384  0.00  0.00    +0.000 N 
ATOM      5  H   UNL     1       3.999   3.103  17.028  0.00  0.00    +0.000 HD
ENDROOT
BRANCH   1  11
ATOM      6  C   UNL     1       3.223   2.929  19.871  0.00  0.00    +0.000 A 
ATOM      7  N   UNL     1       2.435   2.581  20.919  0.00  0.00    +0.000 NA
ATOM      8  C   UNL     1       1.106   2.608  20.709  0.00  0.00    +0.000 A 
ATOM      9  C   UNL     1       0.531   2.955  19.501  0.00  0.00    +0.000 A 
ATOM     10  C   UNL     1       1.363   3.353  18.454  0.00  0.00    +0.000 A 
ATOM     11  C   UNL     1       2.744   3.382  18.629  0.00  0.00    +0.000 A 
BRANCH   6  13
ATOM     12  C   UNL     1       4.963   1.564  20.636  0.00  0.00    +0.000 C 
ATOM     13  O   UNL     1       4.600   2.799  20.019  0.00  0.00    +0.000 OA
ENDBRANCH   6  13
ENDBRANCH   1  11
BRANCH   4  14
ATOM     14  C   UNL     1       5.527   4.157  15.570  0.00  0.00    +0.000 C 
ATOM     15  C   UNL     1       5.319   4.172  14.073  0.00  0.00    +0.000 C 
ATOM     16  C   UNL     1       6.702   4.277  14.629  0.00  0.00    +0.000 C 
ENDBRANCH   4  14
BRANCH   4  17
ATOM     17  C   UNL     1       5.628   6.579  16.148  0.00  0.00    +0.000 C 
BRANCH  17  18
ATOM     18  C   UNL     1       6.658   6.928  17.168  0.00  0.00    +0.000 A 
ATOM     19  C   UNL     1       7.483   8.019  17.348  0.00  0.00    +0.000 A 
ATOM     20  C   UNL     1       8.316   7.718  18.453  0.00  0.00    +0.000 A 
ATOM     21  C   UNL     1       7.948   6.465  18.887  0.00  0.00    +0.000 A 
ATOM     22  C   UNL     1       8.427   5.598  19.983  0.00  0.00    +0.000 C 
ATOM     23  O   UNL     1       6.943   5.976  18.108  0.00  0.00    +0.000 OA
ENDBRANCH  17  18
ENDBRANCH   4  17
TORSDOF 5
ENDMDL
