MODEL 1
REMARK VINA RESULT:      -7.5      0.000      0.000
REMARK  Name = 
REMARK  5 active torsions:
REMARK  status: ('A' for Active; 'I' for Inactive)
REMARK    1  A    between atoms: N_3  and  C_4
REMARK    2  A    between atoms: C_4  and  C_5
REMARK    3  A    between atoms: C_5  and  C_6
REMARK    4  A    between atoms: C_20  and  C_21
REMARK    5  A    between atoms: C_21  and  O_22
REMARK                            x       y       z     vdW  Elec       q    Type
REMARK                         _______ _______ _______ _____ _____    ______ ____
ROOT
ATOM      1  O   UNL     1       5.405   4.028  19.259  0.00  0.00    +0.000 OA
ATOM      2  C   UNL     1       4.391   4.103  18.560  0.00  0.00    +0.000 C 
ATOM      3  N   UNL     1       4.439   3.935  17.209  0.00  0.00    +0.000 N 
ATOM      4  N   UNL     1       3.141   4.351  19.090  0.00  0.00    +0.000 N 
ATOM      5  C   UNL     1       3.022   4.694  20.505  0.00  0.00    +0.000 C 
ATOM      6  C   UNL     1       1.993   3.800  21.200  0.00  0.00    +0.000 C 
ATOM      7  O   UNL     1       0.727   3.802  20.521  0.00  0.00    +0.000 OA
ATOM      8  C   UNL     1       0.829   3.452  19.121  0.00  0.00    +0.000 C 
ATOM      9  C   UNL     1       1.855   4.332  18.387  0.00  0.00    +0.000 C 
ATOM     10  H   UNL     1       3.700   4.350  16.671  0.00  0.00    +0.000 HD
ENDROOT
BRANCH   3  11
ATOM     11  C   UNL     1       5.704   3.728  16.523  0.00  0.00    +0.000 C 
BRANCH  11  12
ATOM     12  C   UNL     1       6.171   4.926  15.624  0.00  0.00    +0.000 C 
ATOM     13  C   UNL     1       5.167   6.122  15.623  0.00  0.00    +0.000 C 
ATOM     14  C   UNL     1       5.086   6.929  16.914  0.00  0.00    +0.000 C 
ATOM     15  C   UNL     1       6.457   7.387  17.385  0.00  0.00    +0.000 C 
ATOM     16  C   UNL     1       7.397   6.200  17.526  0.00  0.00    +0.000 C 
ATOM     17  C   UNL     1       7.530   5.439  16.200  0.00  0.00    +0.000 C 
BRANCH  12  18
ATOM     18  C   UNL     1       6.353   4.393  14.175  0.00  0.00    +0.000 A 
ATOM     19  C   UNL     1       5.554   3.524  13.450  0.00  0.00    +0.000 A 
ATOM     20  C   UNL     1       5.989   3.364  12.098  0.00  0.00    +0.000 A 
ATOM     21  C   UNL     1       7.119   4.097  11.826  0.00  0.00    +0.000 A 
ATOM     22  S   UNL     1       7.670   4.940  13.191  0.00  0.00    +0.000 S 
ENDBRANCH  12  18
ENDBRANCH  11  12
ENDBRANCH   3  11
BRANCH   8  23
ATOM     23  C   UNL     1       1.118   1.954  18.934  0.00  0.00    +0.000 C 
BRANCH  23  24
ATOM     24  O   UNL     1       2.012   1.758  17.839  0.00  0.00    +0.000 OA
ATOM     25  H   UNL     1       2.715   2.427  17.943  0.00  0.00    +0.000 HD
ENDBRANCH  23  24
ENDBRANCH   8  23
TORSDOF 5
ENDMDL
MODEL 2
REMARK VINA RESULT:      -7.3      1.542      1.959
REMARK  Name = 
REMARK  5 active torsions:
REMARK  status: ('A' for Active; 'I' for Inactive)
REMARK    1  A    between atoms: N_3  and  C_4
REMARK    2  A    between atoms: C_4  and  C_5
REMARK    3  A    between atoms: C_5  and  C_6
REMARK    4  A    between atoms: C_20  and  C_21
REMARK    5  A    between atoms: C_21  and  O_22
REMARK                            x       y       z     vdW  Elec       q    Type
REMARK                         _______ _______ _______ _____ _____    ______ ____
ROOT
ATOM      1  O   UNL     1       3.197   6.638  18.770  0.00  0.00    +0.000 OA
ATOM      2  C   UNL     1       3.211   5.469  18.374  0.00  0.00    +0.000 C 
ATOM      3  N   UNL     1       4.002   5.075  17.336  0.00  0.00    +0.000 N 
ATOM      4  N   UNL     1       2.443   4.480  18.953  0.00  0.00    +0.000 N 
ATOM      5  C   UNL     1       1.457   4.845  19.967  0.00  0.00    +0.000 C 
ATOM      6  C   UNL     1       1.633   3.999  21.230  0.00  0.00    +0.000 C 
ATOM      7  O   UNL     1       1.637   2.591  20.943  0.00  0.00    +0.000 OA
ATOM      8  C   UNL     1       2.618   2.214  19.949  0.00  0.00    +0.000 C 
ATOM      9  C   UNL     1       2.472   3.044  18.661  0.00  0.00    +0.000 C 
ATOM     10  H   UNL     1       3.720   4.252  16.836  0.00  0.00    +0.000 HD
ENDROOT
BRANCH   3  11
ATOM     11  C   UNL     1       4.813   6.034  16.604  0.00  0.00    +0.000 C 
BRANCH  11  12
ATOM     12  C   UNL     1       6.297   5.590  16.355  0.00  0.00    +0.000 C 
ATOM     13  C   UNL     1       7.307   6.781  16.372  0.00  0.00    +0.000 C 
ATOM     14  C   UNL     1       7.570   7.415  17.733  0.00  0.00    +0.000 C 
ATOM     15  C   UNL     1       7.951   6.380  18.779  0.00  0.00    +0.000 C 
ATOM     16  C   UNL     1       6.891   5.293  18.865  0.00  0.00    +0.000 C 
ATOM     17  C   UNL     1       6.689   4.609  17.506  0.00  0.00    +0.000 C 
BRANCH  12  18
ATOM     18  C   UNL     1       6.355   4.873  14.976  0.00  0.00    +0.000 A 
ATOM     19  C   UNL     1       5.468   3.969  14.416  0.00  0.00    +0.000 A 
ATOM     20  C   UNL     1       5.803   3.618  13.072  0.00  0.00    +0.000 A 
ATOM     21  C   UNL     1       6.949   4.245  12.642  0.00  0.00    +0.000 A 
ATOM     22  S   UNL     1       7.631   5.216  13.856  0.00  0.00    +0.000 S 
ENDBRANCH  12  18
ENDBRANCH  11  12
ENDBRANCH   3  11
BRANCH   8  23
ATOM     23  C   UNL     1       4.046   2.276  20.513  0.00  0.00    +0.000 C 
BRANCH  23  24
ATOM     24  O   UNL     1       4.993   1.974  19.489  0.00  0.00    +0.000 OA
ATOM     25  H   UNL     1       4.473   1.821  18.677  0.00  0.00    +0.000 HD
ENDBRANCH  23  24
ENDBRANCH   8  23
TORSDOF 5
ENDMDL
MODEL 3
REMARK VINA RESULT:      -7.1      1.626      2.112
REMARK  Name = 
REMARK  5 active torsions:
REMARK  status: ('A' for Active; 'I' for Inactive)
REMARK    1  A    between atoms: N_3  and  C_4
REMARK    2  A    between atoms: C_4  and  C_5
REMARK    3  A    between atoms: C_5  and  C_6
REMARK    4  A    between atoms: C_20  and  C_21
REMARK    5  A    between atoms: C_21  and  O_22
REMARK                            x       y       z     vdW  Elec       q    Type
REMARK                         _______ _______ _______ _____ _____    ______ ____
ROOT
ATOM      1  O   UNL     1       3.580   6.411  19.300  0.00  0.00    +0.000 OA
ATOM      2  C   UNL     1       3.288   5.551  18.465  0.00  0.00    +0.000 C 
ATOM      3  N   UNL     1       3.952   5.450  17.280  0.00  0.00    +0.000 N 
ATOM      4  N   UNL     1       2.283   4.628  18.671  0.00  0.00    +0.000 N 
ATOM      5  C   UNL     1       1.424   4.760  19.845  0.00  0.00    +0.000 C 
ATOM      6  C   UNL     1       1.364   3.447  20.629  0.00  0.00    +0.000 C 
ATOM      7  O   UNL     1       0.999   2.335  19.798  0.00  0.00    +0.000 OA
ATOM      8  C   UNL     1       1.850   2.185  18.638  0.00  0.00    +0.000 C 
ATOM      9  C   UNL     1       1.934   3.486  17.821  0.00  0.00    +0.000 C 
ATOM     10  H   UNL     1       3.465   5.007  16.521  0.00  0.00    +0.000 HD
ENDROOT
BRANCH   3  11
ATOM     11  C   UNL     1       4.991   6.401  16.917  0.00  0.00    +0.000 C 
BRANCH  11  12
ATOM     12  C   UNL     1       6.409   5.772  16.685  0.00  0.00    +0.000 C 
ATOM     13  C   UNL     1       7.570   6.809  16.813  0.00  0.00    +0.000 C 
ATOM     14  C   UNL     1       7.862   7.316  18.221  0.00  0.00    +0.000 C 
ATOM     15  C   UNL     1       8.057   6.175  19.207  0.00  0.00    +0.000 C 
ATOM     16  C   UNL     1       6.857   5.241  19.188  0.00  0.00    +0.000 C 
ATOM     17  C   UNL     1       6.618   4.677  17.781  0.00  0.00    +0.000 C 
BRANCH  12  18
ATOM     18  C   UNL     1       6.425   5.140  15.265  0.00  0.00    +0.000 A 
ATOM     19  C   UNL     1       7.305   5.353  14.217  0.00  0.00    +0.000 A 
ATOM     20  C   UNL     1       7.062   4.494  13.101  0.00  0.00    +0.000 A 
ATOM     21  C   UNL     1       5.991   3.659  13.313  0.00  0.00    +0.000 A 
ATOM     22  S   UNL     1       5.265   3.932  14.822  0.00  0.00    +0.000 S 
ENDBRANCH  12  18
ENDBRANCH  11  12
ENDBRANCH   3  11
BRANCH   8  23
ATOM     23  C   UNL     1       3.241   1.657  19.023  0.00  0.00    +0.000 C 
BRANCH  23  24
ATOM     24  O   UNL     1       4.034   1.461  17.853  0.00  0.00    +0.000 OA
ATOM     25  H   UNL     1       4.628   0.712  18.054  0.00  0.00    +0.000 HD
ENDBRANCH  23  24
ENDBRANCH   8  23
TORSDOF 5
ENDMDL
MODEL 4
REMARK VINA RESULT:      -6.9      1.426      2.278
REMARK  Name = 
REMARK  5 active torsions:
REMARK  status: ('A' for Active; 'I' for Inactive)
REMARK    1  A    between atoms: N_3  and  C_4
REMARK    2  A    between atoms: C_4  and  C_5
REMARK    3  A    between atoms: C_5  and  C_6
REMARK    4  A    between atoms: C_20  and  C_21
REMARK    5  A    between atoms: C_21  and  O_22
REMARK                            x       y       z     vdW  Elec       q    Type
REMARK                         _______ _______ _______ _____ _____    ______ ____
ROOT
ATOM      1  O   UNL     1       2.944   3.716  16.515  0.00  0.00    +0.000 OA
ATOM      2  C   UNL     1       3.425   3.999  17.615  0.00  0.00    +0.000 C 
ATOM      3  N   UNL     1       4.345   4.993  17.759  0.00  0.00    +0.000 N 
ATOM      4  N   UNL     1       3.063   3.342  18.774  0.00  0.00    +0.000 N 
ATOM      5  C   UNL     1       2.201   2.166  18.687  0.00  0.00    +0.000 C 
ATOM      6  C   UNL     1       0.999   2.300  19.625  0.00  0.00    +0.000 C 
ATOM      7  O   UNL     1       1.393   2.600  20.973  0.00  0.00    +0.000 OA
ATOM      8  C   UNL     1       2.238   3.769  21.074  0.00  0.00    +0.000 C 
ATOM      9  C   UNL     1       3.461   3.671  20.146  0.00  0.00    +0.000 C 
ATOM     10  H   UNL     1       4.950   4.941  18.559  0.00  0.00    +0.000 HD
ENDROOT
BRANCH   3  11
ATOM     11  C   UNL     1       4.853   5.719  16.607  0.00  0.00    +0.000 C 
BRANCH  11  12
ATOM     12  C   UNL     1       6.370   5.476  16.290  0.00  0.00    +0.000 C 
ATOM     13  C   UNL     1       7.215   6.789  16.280  0.00  0.00    +0.000 C 
ATOM     14  C   UNL     1       7.451   7.442  17.638  0.00  0.00    +0.000 C 
ATOM     15  C   UNL     1       8.011   6.457  18.653  0.00  0.00    +0.000 C 
ATOM     16  C   UNL     1       7.107   5.240  18.768  0.00  0.00    +0.000 C 
ATOM     17  C   UNL     1       6.937   4.546  17.410  0.00  0.00    +0.000 C 
BRANCH  12  18
ATOM     18  C   UNL     1       6.463   4.784  14.900  0.00  0.00    +0.000 A 
ATOM     19  C   UNL     1       5.643   3.818  14.342  0.00  0.00    +0.000 A 
ATOM     20  C   UNL     1       5.981   3.513  12.988  0.00  0.00    +0.000 A 
ATOM     21  C   UNL     1       7.063   4.238  12.548  0.00  0.00    +0.000 A 
ATOM     22  S   UNL     1       7.685   5.247  13.763  0.00  0.00    +0.000 S 
ENDBRANCH  12  18
ENDBRANCH  11  12
ENDBRANCH   3  11
BRANCH   8  23
ATOM     23  C   UNL     1       1.441   5.063  20.841  0.00  0.00    +0.000 C 
BRANCH  23  24
ATOM     24  O   UNL     1       2.332   6.160  20.642  0.00  0.00    +0.000 OA
ATOM     25  H   UNL     1       1.964   6.673  19.897  0.00  0.00    +0.000 HD
ENDBRANCH  23  24
ENDBRANCH   8  23
TORSDOF 5
ENDMDL
MODEL 5
REMARK VINA RESULT:      -6.9      4.412      6.130
REMARK  Name = 
REMARK  5 active torsions:
REMARK  status: ('A' for Active; 'I' for Inactive)
REMARK    1  A    between atoms: N_3  and  C_4
REMARK    2  A    between atoms: C_4  and  C_5
REMARK    3  A    between atoms: C_5  and  C_6
REMARK    4  A    between atoms: C_20  and  C_21
REMARK    5  A    between atoms: C_21  and  O_22
REMARK                            x       y       z     vdW  Elec       q    Type
REMARK                         _______ _______ _______ _____ _____    ______ ____
ROOT
ATOM      1  O   UNL     1       2.468   9.935  17.618  0.00  0.00    +0.000 OA
ATOM      2  C   UNL     1       1.764   9.226  18.342  0.00  0.00    +0.000 C 
ATOM      3  N   UNL     1       1.936   7.875  18.405  0.00  0.00    +0.000 N 
ATOM      4  N   UNL     1       0.765   9.742  19.142  0.00  0.00    +0.000 N 
ATOM      5  C   UNL     1       0.414  11.154  19.021  0.00  0.00    +0.000 C 
ATOM      6  C   UNL     1       0.429  11.840  20.389  0.00  0.00    +0.000 C 
ATOM      7  O   UNL     1      -0.381  11.148  21.352  0.00  0.00    +0.000 OA
ATOM      8  C   UNL     1      -0.034   9.751  21.491  0.00  0.00    +0.000 C 
ATOM      9  C   UNL     1      -0.041   9.025  20.134  0.00  0.00    +0.000 C 
ATOM     10  H   UNL     1       1.148   7.329  18.700  0.00  0.00    +0.000 HD
ENDROOT
BRANCH   3  11
ATOM     11  C   UNL     1       2.915   7.203  17.565  0.00  0.00    +0.000 C 
BRANCH  11  12
ATOM     12  C   UNL     1       3.605   5.958  18.224  0.00  0.00    +0.000 C 
ATOM     13  C   UNL     1       3.253   5.788  19.737  0.00  0.00    +0.000 C 
ATOM     14  C   UNL     1       1.826   5.347  20.045  0.00  0.00    +0.000 C 
ATOM     15  C   UNL     1       1.435   4.102  19.265  0.00  0.00    +0.000 C 
ATOM     16  C   UNL     1       1.642   4.319  17.774  0.00  0.00    +0.000 C 
ATOM     17  C   UNL     1       3.099   4.689  17.466  0.00  0.00    +0.000 C 
BRANCH  12  18
ATOM     18  C   UNL     1       5.143   6.122  18.060  0.00  0.00    +0.000 A 
ATOM     19  C   UNL     1       5.854   6.906  17.168  0.00  0.00    +0.000 A 
ATOM     20  C   UNL     1       7.263   6.882  17.404  0.00  0.00    +0.000 A 
ATOM     21  C   UNL     1       7.599   6.064  18.457  0.00  0.00    +0.000 A 
ATOM     22  S   UNL     1       6.237   5.309  19.130  0.00  0.00    +0.000 S 
ENDBRANCH  12  18
ENDBRANCH  11  12
ENDBRANCH   3  11
BRANCH   8  23
ATOM     23  C   UNL     1       1.299   9.571  22.232  0.00  0.00    +0.000 C 
BRANCH  23  24
ATOM     24  O   UNL     1       1.919   8.346  21.842  0.00  0.00    +0.000 OA
ATOM     25  H   UNL     1       2.459   8.556  21.056  0.00  0.00    +0.000 HD
ENDBRANCH  23  24
ENDBRANCH   8  23
TORSDOF 5
ENDMDL
MODEL 6
REMARK VINA RESULT:      -6.7      1.440      2.335
REMARK  Name = 
REMARK  5 active torsions:
REMARK  status: ('A' for Active; 'I' for Inactive)
REMARK    1  A    between atoms: N_3  and  C_4
REMARK    2  A    between atoms: C_4  and  C_5
REMARK    3  A    between atoms: C_5  and  C_6
REMARK    4  A    between atoms: C_20  and  C_21
REMARK    5  A    between atoms: C_21  and  O_22
REMARK                            x       y       z     vdW  Elec       q    Type
REMARK                         _______ _______ _______ _____ _____    ______ ____
ROOT
ATOM      1  O   UNL     1       2.712   2.381  16.769  0.00  0.00    +0.000 OA
ATOM      2  C   UNL     1       3.369   2.919  17.665  0.00  0.00    +0.000 C 
ATOM      3  N   UNL     1       4.573   3.506  17.415  0.00  0.00    +0.000 N 
ATOM      4  N   UNL     1       2.934   2.973  18.973  0.00  0.00    +0.000 N 
ATOM      5  C   UNL     1       1.732   2.238  19.356  0.00  0.00    +0.000 C 
ATOM      6  C   UNL     1       0.742   3.150  20.084  0.00  0.00    +0.000 C 
ATOM      7  O   UNL     1       1.348   3.835  21.191  0.00  0.00    +0.000 OA
ATOM      8  C   UNL     1       2.533   4.578  20.823  0.00  0.00    +0.000 C 
ATOM      9  C   UNL     1       3.556   3.692  20.089  0.00  0.00    +0.000 C 
ATOM     10  H   UNL     1       5.206   3.595  18.188  0.00  0.00    +0.000 HD
ENDROOT
BRANCH   3  11
ATOM     11  C   UNL     1       5.169   3.463  16.089  0.00  0.00    +0.000 C 
BRANCH  11  12
ATOM     12  C   UNL     1       6.086   4.687  15.738  0.00  0.00    +0.000 C 
ATOM     13  C   UNL     1       5.394   6.065  15.986  0.00  0.00    +0.000 C 
ATOM     14  C   UNL     1       5.182   6.454  17.445  0.00  0.00    +0.000 C 
ATOM     15  C   UNL     1       6.465   6.350  18.254  0.00  0.00    +0.000 C 
ATOM     16  C   UNL     1       7.064   4.958  18.128  0.00  0.00    +0.000 C 
ATOM     17  C   UNL     1       7.344   4.607  16.661  0.00  0.00    +0.000 C 
BRANCH  12  18
ATOM     18  C   UNL     1       6.491   4.566  14.242  0.00  0.00    +0.000 A 
ATOM     19  C   UNL     1       7.519   5.190  13.555  0.00  0.00    +0.000 A 
ATOM     20  C   UNL     1       7.649   4.732  12.208  0.00  0.00    +0.000 A 
ATOM     21  C   UNL     1       6.706   3.784  11.889  0.00  0.00    +0.000 A 
ATOM     22  S   UNL     1       5.655   3.476  13.185  0.00  0.00    +0.000 S 
ENDBRANCH  12  18
ENDBRANCH  11  12
ENDBRANCH   3  11
BRANCH   8  23
ATOM     23  C   UNL     1       2.181   5.838  20.018  0.00  0.00    +0.000 C 
BRANCH  23  24
ATOM     24  O   UNL     1       1.918   6.929  20.900  0.00  0.00    +0.000 OA
ATOM     25  H   UNL     1       0.992   7.191  20.735  0.00  0.00    +0.000 HD
ENDBRANCH  23  24
ENDBRANCH   8  23
TORSDOF 5
ENDMDL
MODEL 7
REMARK VINA RESULT:      -6.6      4.361      6.193
REMARK  Name = 
REMARK  5 active torsions:
REMARK  status: ('A' for Active; 'I' for Inactive)
REMARK    1  A    between atoms: N_3  and  C_4
REMARK    2  A    between atoms: C_4  and  C_5
REMARK    3  A    between atoms: C_5  and  C_6
REMARK    4  A    between atoms: C_20  and  C_21
REMARK    5  A    between atoms: C_21  and  O_22
REMARK                            x       y       z     vdW  Elec       q    Type
REMARK                         _______ _______ _______ _____ _____    ______ ____
ROOT
ATOM      1  O   UNL     1       2.674   9.324  17.601  0.00  0.00    +0.000 OA
ATOM      2  C   UNL     1       2.086   8.585  18.396  0.00  0.00    +0.000 C 
ATOM      3  N   UNL     1       2.484   7.300  18.607  0.00  0.00    +0.000 N 
ATOM      4  N   UNL     1       0.996   9.005  19.132  0.00  0.00    +0.000 N 
ATOM      5  C   UNL     1       0.412  10.315  18.856  0.00  0.00    +0.000 C 
ATOM      6  C   UNL     1       0.281  11.136  20.141  0.00  0.00    +0.000 C 
ATOM      7  O   UNL     1      -0.420  10.423  21.172  0.00  0.00    +0.000 OA
ATOM      8  C   UNL     1       0.156   9.129  21.464  0.00  0.00    +0.000 C 
ATOM      9  C   UNL     1       0.302   8.271  20.194  0.00  0.00    +0.000 C 
ATOM     10  H   UNL     1       1.794   6.660  18.957  0.00  0.00    +0.000 HD
ENDROOT
BRANCH   3  11
ATOM     11  C   UNL     1       3.581   6.719  17.849  0.00  0.00    +0.000 C 
BRANCH  11  12
ATOM     12  C   UNL     1       3.929   5.236  18.223  0.00  0.00    +0.000 C 
ATOM     13  C   UNL     1       4.356   4.376  16.991  0.00  0.00    +0.000 C 
ATOM     14  C   UNL     1       5.720   4.700  16.389  0.00  0.00    +0.000 C 
ATOM     15  C   UNL     1       6.818   4.707  17.440  0.00  0.00    +0.000 C 
ATOM     16  C   UNL     1       6.467   5.658  18.573  0.00  0.00    +0.000 C 
ATOM     17  C   UNL     1       5.130   5.277  19.222  0.00  0.00    +0.000 C 
BRANCH  12  18
ATOM     18  C   UNL     1       2.676   4.605  18.892  0.00  0.00    +0.000 A 
ATOM     19  C   UNL     1       1.607   3.943  18.311  0.00  0.00    +0.000 A 
ATOM     20  C   UNL     1       0.700   3.398  19.272  0.00  0.00    +0.000 A 
ATOM     21  C   UNL     1       1.084   3.673  20.563  0.00  0.00    +0.000 A 
ATOM     22  S   UNL     1       2.500   4.606  20.616  0.00  0.00    +0.000 S 
ENDBRANCH  12  18
ENDBRANCH  11  12
ENDBRANCH   3  11
BRANCH   8  23
ATOM     23  C   UNL     1       1.485   9.261  22.224  0.00  0.00    +0.000 C 
BRANCH  23  24
ATOM     24  O   UNL     1       1.238   9.550  23.600  0.00  0.00    +0.000 OA
ATOM     25  H   UNL     1       1.593   8.792  24.102  0.00  0.00    +0.000 HD
ENDBRANCH  23  24
ENDBRANCH   8  23
TORSDOF 5
ENDMDL
MODEL 8
REMARK VINA RESULT:      -6.5      2.975      7.124
REMARK  Name = 
REMARK  5 active torsions:
REMARK  status: ('A' for Active; 'I' for Inactive)
REMARK    1  A    between atoms: N_3  and  C_4
REMARK    2  A    between atoms: C_4  and  C_5
REMARK    3  A    between atoms: C_5  and  C_6
REMARK    4  A    between atoms: C_20  and  C_21
REMARK    5  A    between atoms: C_21  and  O_22
REMARK                            x       y       z     vdW  Elec       q    Type
REMARK                         _______ _______ _______ _____ _____    ______ ____
ROOT
ATOM      1  O   UNL     1       3.582   3.498  16.695  0.00  0.00    +0.000 OA
ATOM      2  C   UNL     1       3.877   4.682  16.878  0.00  0.00    +0.000 C 
ATOM      3  N   UNL     1       3.147   5.481  17.707  0.00  0.00    +0.000 N 
ATOM      4  N   UNL     1       4.962   5.280  16.271  0.00  0.00    +0.000 N 
ATOM      5  C   UNL     1       5.705   4.541  15.253  0.00  0.00    +0.000 C 
ATOM      6  C   UNL     1       7.203   4.535  15.565  0.00  0.00    +0.000 C 
ATOM      7  O   UNL     1       7.718   5.860  15.775  0.00  0.00    +0.000 OA
ATOM      8  C   UNL     1       6.999   6.598  16.790  0.00  0.00    +0.000 C 
ATOM      9  C   UNL     1       5.486   6.628  16.508  0.00  0.00    +0.000 C 
ATOM     10  H   UNL     1       3.195   6.470  17.545  0.00  0.00    +0.000 HD
ENDROOT
BRANCH   3  11
ATOM     11  C   UNL     1       1.945   4.987  18.360  0.00  0.00    +0.000 C 
BRANCH  11  12
ATOM     12  C   UNL     1       1.916   5.174  19.917  0.00  0.00    +0.000 C 
ATOM     13  C   UNL     1       0.876   4.250  20.628  0.00  0.00    +0.000 C 
ATOM     14  C   UNL     1       1.217   2.763  20.663  0.00  0.00    +0.000 C 
ATOM     15  C   UNL     1       2.613   2.513  21.211  0.00  0.00    +0.000 C 
ATOM     16  C   UNL     1       3.645   3.304  20.423  0.00  0.00    +0.000 C 
ATOM     17  C   UNL     1       3.335   4.806  20.457  0.00  0.00    +0.000 C 
BRANCH  12  18
ATOM     18  C   UNL     1       1.582   6.663  20.214  0.00  0.00    +0.000 A 
ATOM     19  C   UNL     1       1.011   7.229  21.341  0.00  0.00    +0.000 A 
ATOM     20  C   UNL     1       0.971   8.656  21.290  0.00  0.00    +0.000 A 
ATOM     21  C   UNL     1       1.492   9.148  20.117  0.00  0.00    +0.000 A 
ATOM     22  S   UNL     1       1.991   7.904  19.076  0.00  0.00    +0.000 S 
ENDBRANCH  12  18
ENDBRANCH  11  12
ENDBRANCH   3  11
BRANCH   8  23
ATOM     23  C   UNL     1       7.312   6.071  18.199  0.00  0.00    +0.000 C 
BRANCH  23  24
ATOM     24  O   UNL     1       8.250   6.928  18.849  0.00  0.00    +0.000 OA
ATOM     25  H   UNL     1       8.162   6.748  19.804  0.00  0.00    +0.000 HD
ENDBRANCH  23  24
ENDBRANCH   8  23
TORSDOF 5
ENDMDL
MODEL 9
REMARK VINA RESULT:      -6.4      4.212      5.956
REMARK  Name = 
REMARK  5 active torsions:
REMARK  status: ('A' for Active; 'I' for Inactive)
REMARK    1  A    between atoms: N_3  and  C_4
REMARK    2  A    between atoms: C_4  and  C_5
REMARK    3  A    between atoms: C_5  and  C_6
REMARK    4  A    between atoms: C_20  and  C_21
REMARK    5  A    between atoms: C_21  and  O_22
REMARK                            x       y       z     vdW  Elec       q    Type
REMARK                         _______ _______ _______ _____ _____    ______ ____
ROOT
ATOM      1  O   UNL     1       2.644   9.325  17.586  0.00  0.00    +0.000 OA
ATOM      2  C   UNL     1       1.976   8.654  18.377  0.00  0.00    +0.000 C 
ATOM      3  N   UNL     1       2.208   7.325  18.562  0.00  0.00    +0.000 N 
ATOM      4  N   UNL     1       0.958   9.197  19.134  0.00  0.00    +0.000 N 
ATOM      5  C   UNL     1       0.543  10.576  18.887  0.00  0.00    +0.000 C 
ATOM      6  C   UNL     1       0.533  11.385  20.186  0.00  0.00    +0.000 C 
ATOM      7  O   UNL     1      -0.242  10.749  21.215  0.00  0.00    +0.000 OA
ATOM      8  C   UNL     1       0.167   9.387  21.479  0.00  0.00    +0.000 C 
ATOM      9  C   UNL     1       0.187   8.540  20.194  0.00  0.00    +0.000 C 
ATOM     10  H   UNL     1       1.446   6.773  18.912  0.00  0.00    +0.000 HD
ENDROOT
BRANCH   3  11
ATOM     11  C   UNL     1       3.213   6.622  17.781  0.00  0.00    +0.000 C 
BRANCH  11  12
ATOM     12  C   UNL     1       3.637   5.225  18.354  0.00  0.00    +0.000 C 
ATOM     13  C   UNL     1       3.406   5.096  19.894  0.00  0.00    +0.000 C 
ATOM     14  C   UNL     1       1.952   5.007  20.346  0.00  0.00    +0.000 C 
ATOM     15  C   UNL     1       1.190   3.921  19.602  0.00  0.00    +0.000 C 
ATOM     16  C   UNL     1       1.295   4.131  18.099  0.00  0.00    +0.000 C 
ATOM     17  C   UNL     1       2.761   4.144  17.644  0.00  0.00    +0.000 C 
BRANCH  12  18
ATOM     18  C   UNL     1       5.143   5.013  18.031  0.00  0.00    +0.000 A 
ATOM     19  C   UNL     1       5.739   4.576  16.860  0.00  0.00    +0.000 A 
ATOM     20  C   UNL     1       7.166   4.624  16.909  0.00  0.00    +0.000 A 
ATOM     21  C   UNL     1       7.629   5.076  18.122  0.00  0.00    +0.000 A 
ATOM     22  S   UNL     1       6.360   5.405  19.200  0.00  0.00    +0.000 S 
ENDBRANCH  12  18
ENDBRANCH  11  12
ENDBRANCH   3  11
BRANCH   8  23
ATOM     23  C   UNL     1       1.510   9.335  22.223  0.00  0.00    +0.000 C 
BRANCH  23  24
ATOM     24  O   UNL     1       1.309   9.559  23.619  0.00  0.00    +0.000 OA
ATOM     25  H   UNL     1       0.584  10.210  23.685  0.00  0.00    +0.000 HD
ENDBRANCH  23  24
ENDBRANCH   8  23
TORSDOF 5
ENDMDL
