MODEL 1
REMARK VINA RESULT:      -7.9      0.000      0.000
REMARK  Name = 
REMARK  8 active torsions:
REMARK  status: ('A' for Active; 'I' for Inactive)
REMARK    1  A    between atoms: C_1  and  O_2
REMARK    2  A    between atoms: O_2  and  C_3
REMARK    3  A    between atoms: C_6  and  O_7
REMARK    4  A    between atoms: O_7  and  S_8
REMARK    5  A    between atoms: S_8  and  C_11
REMARK    6  A    between atoms: C_14  and  N_15
REMARK    7  A    between atoms: C_24  and  O_25
REMARK    8  A    between atoms: O_25  and  C_26
REMARK                            x       y       z     vdW  Elec       q    Type
REMARK                         _______ _______ _______ _____ _____    ______ ____
ROOT
ATOM      1  S   UNL     1       2.795   3.218  18.628  0.00  0.00    +0.000 S 
ATOM      2  O   UNL     1       2.279   2.958  17.299  0.00  0.00    +0.000 OA
ATOM      3  O   UNL     1       2.304   2.498  19.789  0.00  0.00    +0.000 OA
ENDROOT
BRANCH   1   4
ATOM      4  C   UNL     1       2.461   4.932  18.953  0.00  0.00    +0.000 A 
ATOM      5  C   UNL     1       2.202   5.369  20.246  0.00  0.00    +0.000 A 
ATOM      6  C   UNL     1       1.885   6.715  20.461  0.00  0.00    +0.000 A 
ATOM      7  C   UNL     1       1.797   7.627  19.397  0.00  0.00    +0.000 A 
ATOM      8  C   UNL     1       2.078   7.161  18.104  0.00  0.00    +0.000 A 
ATOM      9  C   UNL     1       2.401   5.821  17.876  0.00  0.00    +0.000 A 
BRANCH   7  10
ATOM     10  N   UNL     1       1.399   8.969  19.607  0.00  0.00    +0.000 N 
ATOM     11  C   UNL     1       0.739   9.433  20.810  0.00  0.00    +0.000 C 
ATOM     12  C   UNL     1       0.959  10.936  20.769  0.00  0.00    +0.000 C 
ATOM     13  N   UNL     1       1.123  11.202  19.372  0.00  0.00    +0.000 N 
ATOM     14  C   UNL     1       1.564  10.052  18.719  0.00  0.00    +0.000 C 
ATOM     15  O   UNL     1       2.015  10.081  17.586  0.00  0.00    +0.000 OA
ATOM     16  H   UNL     1       1.361  12.097  18.967  0.00  0.00    +0.000 HD
ENDBRANCH   7  10
ENDBRANCH   1   4
BRANCH   1  17
ATOM     17  O   UNL     1       4.426   3.122  18.596  0.00  0.00    +0.000 OA
BRANCH  17  21
ATOM     18  C   UNL     1       6.934   6.186  17.243  0.00  0.00    +0.000 A 
ATOM     19  C   UNL     1       6.692   5.969  18.609  0.00  0.00    +0.000 A 
ATOM     20  C   UNL     1       5.848   4.939  19.034  0.00  0.00    +0.000 A 
ATOM     21  C   UNL     1       5.192   4.147  18.099  0.00  0.00    +0.000 A 
ATOM     22  C   UNL     1       5.374   4.405  16.742  0.00  0.00    +0.000 A 
ATOM     23  C   UNL     1       6.230   5.426  16.298  0.00  0.00    +0.000 A 
BRANCH  18  25
ATOM     24  C   UNL     1       7.894   8.312  17.628  0.00  0.00    +0.000 C 
ATOM     25  O   UNL     1       7.824   7.135  16.822  0.00  0.00    +0.000 OA
ENDBRANCH  18  25
BRANCH  23  26
ATOM     26  O   UNL     1       6.249   5.496  14.933  0.00  0.00    +0.000 OA
ATOM     27  C   UNL     1       6.422   4.315  14.171  0.00  0.00    +0.000 C 
ENDBRANCH  23  26
ENDBRANCH  17  21
ENDBRANCH   1  17
TORSDOF 6
ENDMDL
MODEL 2
REMARK VINA RESULT:      -7.9      1.089      1.258
REMARK  Name = 
REMARK  8 active torsions:
REMARK  status: ('A' for Active; 'I' for Inactive)
REMARK    1  A    between atoms: C_1  and  O_2
REMARK    2  A    between atoms: O_2  and  C_3
REMARK    3  A    between atoms: C_6  and  O_7
REMARK    4  A    between atoms: O_7  and  S_8
REMARK    5  A    between atoms: S_8  and  C_11
REMARK    6  A    between atoms: C_14  and  N_15
REMARK    7  A    between atoms: C_24  and  O_25
REMARK    8  A    between atoms: O_25  and  C_26
REMARK                            x       y       z     vdW  Elec       q    Type
REMARK                         _______ _______ _______ _____ _____    ______ ____
ROOT
ATOM      1  S   UNL     1       2.783   3.212  18.517  0.00  0.00    +0.000 S 
ATOM      2  O   UNL     1       2.313   3.073  17.153  0.00  0.00    +0.000 OA
ATOM      3  O   UNL     1       2.248   2.397  19.593  0.00  0.00    +0.000 OA
ENDROOT
BRANCH   1   4
ATOM      4  C   UNL     1       2.445   4.893  18.979  0.00  0.00    +0.000 A 
ATOM      5  C   UNL     1       2.191   5.226  20.304  0.00  0.00    +0.000 A 
ATOM      6  C   UNL     1       1.871   6.549  20.627  0.00  0.00    +0.000 A 
ATOM      7  C   UNL     1       1.776   7.543  19.639  0.00  0.00    +0.000 A 
ATOM      8  C   UNL     1       2.053   7.182  18.312  0.00  0.00    +0.000 A 
ATOM      9  C   UNL     1       2.378   5.866  17.977  0.00  0.00    +0.000 A 
BRANCH   7  10
ATOM     10  N   UNL     1       1.375   8.863  19.957  0.00  0.00    +0.000 N 
ATOM     11  C   UNL     1       1.193   9.907  18.970  0.00  0.00    +0.000 C 
ATOM     12  C   UNL     1       0.331  10.925  19.697  0.00  0.00    +0.000 C 
ATOM     13  N   UNL     1       0.639  10.686  21.075  0.00  0.00    +0.000 N 
ATOM     14  C   UNL     1       1.094   9.379  21.239  0.00  0.00    +0.000 C 
ATOM     15  O   UNL     1       1.181   8.855  22.336  0.00  0.00    +0.000 OA
ATOM     16  H   UNL     1       0.194  11.135  21.864  0.00  0.00    +0.000 HD
ENDBRANCH   7  10
ENDBRANCH   1   4
BRANCH   1  17
ATOM     17  O   UNL     1       4.414   3.107  18.533  0.00  0.00    +0.000 OA
BRANCH  17  21
ATOM     18  C   UNL     1       6.973   6.151  17.232  0.00  0.00    +0.000 A 
ATOM     19  C   UNL     1       6.656   5.972  18.588  0.00  0.00    +0.000 A 
ATOM     20  C   UNL     1       5.795   4.948  18.996  0.00  0.00    +0.000 A 
ATOM     21  C   UNL     1       5.199   4.123  18.049  0.00  0.00    +0.000 A 
ATOM     22  C   UNL     1       5.456   4.343  16.698  0.00  0.00    +0.000 A 
ATOM     23  C   UNL     1       6.328   5.357  16.273  0.00  0.00    +0.000 A 
BRANCH  18  25
ATOM     24  C   UNL     1       7.932   8.273  17.639  0.00  0.00    +0.000 C 
ATOM     25  O   UNL     1       7.878   7.095  16.834  0.00  0.00    +0.000 OA
ENDBRANCH  18  25
BRANCH  23  26
ATOM     26  O   UNL     1       6.425   5.387  14.909  0.00  0.00    +0.000 OA
ATOM     27  C   UNL     1       6.295   4.187  14.169  0.00  0.00    +0.000 C 
ENDBRANCH  23  26
ENDBRANCH  17  21
ENDBRANCH   1  17
TORSDOF 6
ENDMDL
MODEL 3
REMARK VINA RESULT:      -7.8      1.636      2.738
REMARK  Name = 
REMARK  8 active torsions:
REMARK  status: ('A' for Active; 'I' for Inactive)
REMARK    1  A    between atoms: C_1  and  O_2
REMARK    2  A    between atoms: O_2  and  C_3
REMARK    3  A    between atoms: C_6  and  O_7
REMARK    4  A    between atoms: O_7  and  S_8
REMARK    5  A    between atoms: S_8  and  C_11
REMARK    6  A    between atoms: C_14  and  N_15
REMARK    7  A    between atoms: C_24  and  O_25
REMARK    8  A    between atoms: O_25  and  C_26
REMARK                            x       y       z     vdW  Elec       q    Type
REMARK                         _______ _______ _______ _____ _____    ______ ____
ROOT
ATOM      1  S   UNL     1       3.037   5.216  19.479  0.00  0.00    +0.000 S 
ATOM      2  O   UNL     1       2.695   4.551  18.237  0.00  0.00    +0.000 OA
ATOM      3  O   UNL     1       2.549   4.735  20.758  0.00  0.00    +0.000 OA
ENDROOT
BRANCH   1   4
ATOM      4  C   UNL     1       2.423   6.875  19.326  0.00  0.00    +0.000 A 
ATOM      5  C   UNL     1       1.859   7.524  20.418  0.00  0.00    +0.000 A 
ATOM      6  C   UNL     1       1.332   8.809  20.251  0.00  0.00    +0.000 A 
ATOM      7  C   UNL     1       1.336   9.447  19.001  0.00  0.00    +0.000 A 
ATOM      8  C   UNL     1       1.925   8.774  17.919  0.00  0.00    +0.000 A 
ATOM      9  C   UNL     1       2.459   7.493  18.073  0.00  0.00    +0.000 A 
BRANCH   7  10
ATOM     10  N   UNL     1       0.732  10.714  18.817  0.00  0.00    +0.000 N 
ATOM     11  C   UNL     1       1.408  11.971  19.065  0.00  0.00    +0.000 C 
ATOM     12  C   UNL     1       0.569  12.974  18.291  0.00  0.00    +0.000 C 
ATOM     13  N   UNL     1      -0.720  12.351  18.244  0.00  0.00    +0.000 N 
ATOM     14  C   UNL     1      -0.584  10.970  18.380  0.00  0.00    +0.000 C 
ATOM     15  O   UNL     1      -1.494  10.200  18.123  0.00  0.00    +0.000 OA
ATOM     16  H   UNL     1      -1.524  12.700  17.741  0.00  0.00    +0.000 HD
ENDBRANCH   7  10
ENDBRANCH   1   4
BRANCH   1  17
ATOM     17  O   UNL     1       4.660   5.389  19.562  0.00  0.00    +0.000 OA
BRANCH  17  21
ATOM     18  C   UNL     1       6.841   5.186  15.998  0.00  0.00    +0.000 A 
ATOM     19  C   UNL     1       5.997   4.145  16.415  0.00  0.00    +0.000 A 
ATOM     20  C   UNL     1       5.281   4.237  17.613  0.00  0.00    +0.000 A 
ATOM     21  C   UNL     1       5.440   5.348  18.434  0.00  0.00    +0.000 A 
ATOM     22  C   UNL     1       6.330   6.350  18.056  0.00  0.00    +0.000 A 
ATOM     23  C   UNL     1       7.046   6.279  16.851  0.00  0.00    +0.000 A 
BRANCH  18  25
ATOM     24  C   UNL     1       6.746   4.524  13.730  0.00  0.00    +0.000 C 
ATOM     25  O   UNL     1       7.479   5.141  14.788  0.00  0.00    +0.000 OA
ENDBRANCH  18  25
BRANCH  23  26
ATOM     26  O   UNL     1       7.858   7.369  16.692  0.00  0.00    +0.000 OA
ATOM     27  C   UNL     1       7.903   8.363  17.700  0.00  0.00    +0.000 C 
ENDBRANCH  23  26
ENDBRANCH  17  21
ENDBRANCH   1  17
TORSDOF 6
ENDMDL
MODEL 4
REMARK VINA RESULT:      -7.6      1.930      3.026
REMARK  Name = 
REMARK  8 active torsions:
REMARK  status: ('A' for Active; 'I' for Inactive)
REMARK    1  A    between atoms: C_1  and  O_2
REMARK    2  A    between atoms: O_2  and  C_3
REMARK    3  A    between atoms: C_6  and  O_7
REMARK    4  A    between atoms: O_7  and  S_8
REMARK    5  A    between atoms: S_8  and  C_11
REMARK    6  A    between atoms: C_14  and  N_15
REMARK    7  A    between atoms: C_24  and  O_25
REMARK    8  A    between atoms: O_25  and  C_26
REMARK                            x       y       z     vdW  Elec       q    Type
REMARK                         _______ _______ _______ _____ _____    ______ ____
ROOT
ATOM      1  S   UNL     1       2.746   5.680  19.463  0.00  0.00    +0.000 S 
ATOM      2  O   UNL     1       1.715   4.888  20.105  0.00  0.00    +0.000 OA
ATOM      3  O   UNL     1       4.074   5.807  20.034  0.00  0.00    +0.000 OA
ENDROOT
BRANCH   1   4
ATOM      4  C   UNL     1       2.104   7.333  19.374  0.00  0.00    +0.000 A 
ATOM      5  C   UNL     1       1.563   7.943  20.499  0.00  0.00    +0.000 A 
ATOM      6  C   UNL     1       1.013   9.225  20.383  0.00  0.00    +0.000 A 
ATOM      7  C   UNL     1       0.972   9.897  19.151  0.00  0.00    +0.000 A 
ATOM      8  C   UNL     1       1.540   9.263  18.035  0.00  0.00    +0.000 A 
ATOM      9  C   UNL     1       2.096   7.986  18.138  0.00  0.00    +0.000 A 
BRANCH   7  10
ATOM     10  N   UNL     1       0.345  11.159  19.019  0.00  0.00    +0.000 N 
ATOM     11  C   UNL     1       1.020  12.420  19.244  0.00  0.00    +0.000 C 
ATOM     12  C   UNL     1       0.128  13.424  18.534  0.00  0.00    +0.000 C 
ATOM     13  N   UNL     1      -1.155  12.787  18.553  0.00  0.00    +0.000 N 
ATOM     14  C   UNL     1      -0.997  11.406  18.662  0.00  0.00    +0.000 C 
ATOM     15  O   UNL     1      -1.912  10.629  18.448  0.00  0.00    +0.000 OA
ATOM     16  H   UNL     1      -1.991  13.133  18.102  0.00  0.00    +0.000 HD
ENDBRANCH   7  10
ENDBRANCH   1   4
BRANCH   1  17
ATOM     17  O   UNL     1       2.882   5.213  17.903  0.00  0.00    +0.000 OA
BRANCH  17  21
ATOM     18  C   UNL     1       6.494   4.939  15.809  0.00  0.00    +0.000 A 
ATOM     19  C   UNL     1       5.618   3.849  15.930  0.00  0.00    +0.000 A 
ATOM     20  C   UNL     1       4.418   3.966  16.637  0.00  0.00    +0.000 A 
ATOM     21  C   UNL     1       4.103   5.159  17.279  0.00  0.00    +0.000 A 
ATOM     22  C   UNL     1       5.004   6.220  17.220  0.00  0.00    +0.000 A 
ATOM     23  C   UNL     1       6.206   6.123  16.503  0.00  0.00    +0.000 A 
BRANCH  18  25
ATOM     24  C   UNL     1       7.428   4.934  13.637  0.00  0.00    +0.000 C 
ATOM     25  O   UNL     1       7.629   4.858  15.049  0.00  0.00    +0.000 OA
ENDBRANCH  18  25
BRANCH  23  26
ATOM     26  O   UNL     1       6.929   7.281  16.588  0.00  0.00    +0.000 OA
ATOM     27  C   UNL     1       7.697   7.546  17.748  0.00  0.00    +0.000 C 
ENDBRANCH  23  26
ENDBRANCH  17  21
ENDBRANCH   1  17
TORSDOF 6
ENDMDL
MODEL 5
REMARK VINA RESULT:      -7.6      1.544      2.710
REMARK  Name = 
REMARK  8 active torsions:
REMARK  status: ('A' for Active; 'I' for Inactive)
REMARK    1  A    between atoms: C_1  and  O_2
REMARK    2  A    between atoms: O_2  and  C_3
REMARK    3  A    between atoms: C_6  and  O_7
REMARK    4  A    between atoms: O_7  and  S_8
REMARK    5  A    between atoms: S_8  and  C_11
REMARK    6  A    between atoms: C_14  and  N_15
REMARK    7  A    between atoms: C_24  and  O_25
REMARK    8  A    between atoms: O_25  and  C_26
REMARK                            x       y       z     vdW  Elec       q    Type
REMARK                         _______ _______ _______ _____ _____    ______ ____
ROOT
ATOM      1  S   UNL     1       2.736   5.235  19.683  0.00  0.00    +0.000 S 
ATOM      2  O   UNL     1       2.207   4.491  18.557  0.00  0.00    +0.000 OA
ATOM      3  O   UNL     1       2.355   4.923  21.048  0.00  0.00    +0.000 OA
ENDROOT
BRANCH   1   4
ATOM      4  C   UNL     1       2.247   6.922  19.424  0.00  0.00    +0.000 A 
ATOM      5  C   UNL     1       1.610   7.637  20.431  0.00  0.00    +0.000 A 
ATOM      6  C   UNL     1       1.185   8.945  20.176  0.00  0.00    +0.000 A 
ATOM      7  C   UNL     1       1.364   9.543  18.918  0.00  0.00    +0.000 A 
ATOM      8  C   UNL     1       2.023   8.803  17.925  0.00  0.00    +0.000 A 
ATOM      9  C   UNL     1       2.457   7.498  18.167  0.00  0.00    +0.000 A 
BRANCH   7  10
ATOM     10  N   UNL     1       0.863  10.837  18.638  0.00  0.00    +0.000 N 
ATOM     11  C   UNL     1      -0.544  11.180  18.678  0.00  0.00    +0.000 C 
ATOM     12  C   UNL     1      -0.529  12.695  18.792  0.00  0.00    +0.000 C 
ATOM     13  N   UNL     1       0.726  13.051  18.201  0.00  0.00    +0.000 N 
ATOM     14  C   UNL     1       1.611  11.978  18.282  0.00  0.00    +0.000 C 
ATOM     15  O   UNL     1       2.807  12.106  18.082  0.00  0.00    +0.000 OA
ATOM     16  H   UNL     1       1.115  13.984  18.164  0.00  0.00    +0.000 HD
ENDBRANCH   7  10
ENDBRANCH   1   4
BRANCH   1  17
ATOM     17  O   UNL     1       4.367   5.266  19.583  0.00  0.00    +0.000 OA
BRANCH  17  21
ATOM     18  C   UNL     1       6.096   5.270  15.773  0.00  0.00    +0.000 A 
ATOM     19  C   UNL     1       5.044   4.406  16.112  0.00  0.00    +0.000 A 
ATOM     20  C   UNL     1       4.485   4.423  17.394  0.00  0.00    +0.000 A 
ATOM     21  C   UNL     1       5.007   5.266  18.368  0.00  0.00    +0.000 A 
ATOM     22  C   UNL     1       6.097   6.074  18.054  0.00  0.00    +0.000 A 
ATOM     23  C   UNL     1       6.660   6.080  16.769  0.00  0.00    +0.000 A 
BRANCH  18  25
ATOM     24  C   UNL     1       6.481   4.109  13.750  0.00  0.00    +0.000 C 
ATOM     25  O   UNL     1       6.591   5.320  14.498  0.00  0.00    +0.000 OA
ENDBRANCH  18  25
BRANCH  23  26
ATOM     26  O   UNL     1       7.717   6.945  16.695  0.00  0.00    +0.000 OA
ATOM     27  C   UNL     1       7.757   8.080  17.541  0.00  0.00    +0.000 C 
ENDBRANCH  23  26
ENDBRANCH  17  21
ENDBRANCH   1  17
TORSDOF 6
ENDMDL
MODEL 6
REMARK VINA RESULT:      -7.5      1.432      2.498
REMARK  Name = 
REMARK  8 active torsions:
REMARK  status: ('A' for Active; 'I' for Inactive)
REMARK    1  A    between atoms: C_1  and  O_2
REMARK    2  A    between atoms: O_2  and  C_3
REMARK    3  A    between atoms: C_6  and  O_7
REMARK    4  A    between atoms: O_7  and  S_8
REMARK    5  A    between atoms: S_8  and  C_11
REMARK    6  A    between atoms: C_14  and  N_15
REMARK    7  A    between atoms: C_24  and  O_25
REMARK    8  A    between atoms: O_25  and  C_26
REMARK                            x       y       z     vdW  Elec       q    Type
REMARK                         _______ _______ _______ _____ _____    ______ ____
ROOT
ATOM      1  S   UNL     1       3.014   4.003  18.620  0.00  0.00    +0.000 S 
ATOM      2  O   UNL     1       2.655   3.921  17.218  0.00  0.00    +0.000 OA
ATOM      3  O   UNL     1       2.473   3.079  19.599  0.00  0.00    +0.000 OA
ENDROOT
BRANCH   1   4
ATOM      4  C   UNL     1       2.507   5.618  19.157  0.00  0.00    +0.000 A 
ATOM      5  C   UNL     1       1.893   5.793  20.391  0.00  0.00    +0.000 A 
ATOM      6  C   UNL     1       1.453   7.069  20.760  0.00  0.00    +0.000 A 
ATOM      7  C   UNL     1       1.595   8.171  19.903  0.00  0.00    +0.000 A 
ATOM      8  C   UNL     1       2.233   7.968  18.669  0.00  0.00    +0.000 A 
ATOM      9  C   UNL     1       2.681   6.701  18.290  0.00  0.00    +0.000 A 
BRANCH   7  10
ATOM     10  N   UNL     1       1.079   9.444  20.244  0.00  0.00    +0.000 N 
ATOM     11  C   UNL     1       0.568  10.391  19.275  0.00  0.00    +0.000 C 
ATOM     12  C   UNL     1      -0.277  11.331  20.119  0.00  0.00    +0.000 C 
ATOM     13  N   UNL     1       0.317  11.221  21.417  0.00  0.00    +0.000 N 
ATOM     14  C   UNL     1       0.975   9.998  21.537  0.00  0.00    +0.000 C 
ATOM     15  O   UNL     1       1.340   9.560  22.615  0.00  0.00    +0.000 OA
ATOM     16  H   UNL     1      -0.031  11.656  22.262  0.00  0.00    +0.000 HD
ENDBRANCH   7  10
ENDBRANCH   1   4
BRANCH   1  17
ATOM     17  O   UNL     1       4.643   4.023  18.754  0.00  0.00    +0.000 OA
BRANCH  17  21
ATOM     18  C   UNL     1       6.888   5.086  15.388  0.00  0.00    +0.000 A 
ATOM     19  C   UNL     1       6.154   3.891  15.447  0.00  0.00    +0.000 A 
ATOM     20  C   UNL     1       5.414   3.558  16.586  0.00  0.00    +0.000 A 
ATOM     21  C   UNL     1       5.441   4.390  17.700  0.00  0.00    +0.000 A 
ATOM     22  C   UNL     1       6.224   5.541  17.669  0.00  0.00    +0.000 A 
ATOM     23  C   UNL     1       6.962   5.896  16.530  0.00  0.00    +0.000 A 
BRANCH  18  25
ATOM     24  C   UNL     1       7.270   4.667  13.093  0.00  0.00    +0.000 C 
ATOM     25  O   UNL     1       7.546   5.459  14.248  0.00  0.00    +0.000 OA
ENDBRANCH  18  25
BRANCH  23  26
ATOM     26  O   UNL     1       7.655   7.058  16.731  0.00  0.00    +0.000 OA
ATOM     27  C   UNL     1       7.928   7.494  18.050  0.00  0.00    +0.000 C 
ENDBRANCH  23  26
ENDBRANCH  17  21
ENDBRANCH   1  17
TORSDOF 6
ENDMDL
MODEL 7
REMARK VINA RESULT:      -7.5      0.362      1.013
REMARK  Name = 
REMARK  8 active torsions:
REMARK  status: ('A' for Active; 'I' for Inactive)
REMARK    1  A    between atoms: C_1  and  O_2
REMARK    2  A    between atoms: O_2  and  C_3
REMARK    3  A    between atoms: C_6  and  O_7
REMARK    4  A    between atoms: O_7  and  S_8
REMARK    5  A    between atoms: S_8  and  C_11
REMARK    6  A    between atoms: C_14  and  N_15
REMARK    7  A    between atoms: C_24  and  O_25
REMARK    8  A    between atoms: O_25  and  C_26
REMARK                            x       y       z     vdW  Elec       q    Type
REMARK                         _______ _______ _______ _____ _____    ______ ____
ROOT
ATOM      1  S   UNL     1       3.168   3.091  18.949  0.00  0.00    +0.000 S 
ATOM      2  O   UNL     1       2.804   2.654  17.615  0.00  0.00    +0.000 OA
ATOM      3  O   UNL     1       2.686   2.404  20.133  0.00  0.00    +0.000 OA
ENDROOT
BRANCH   1   4
ATOM      4  C   UNL     1       2.576   4.759  19.091  0.00  0.00    +0.000 A 
ATOM      5  C   UNL     1       2.499   5.581  17.973  0.00  0.00    +0.000 A 
ATOM      6  C   UNL     1       2.083   6.908  18.128  0.00  0.00    +0.000 A 
ATOM      7  C   UNL     1       1.767   7.435  19.390  0.00  0.00    +0.000 A 
ATOM      8  C   UNL     1       1.840   6.579  20.500  0.00  0.00    +0.000 A 
ATOM      9  C   UNL     1       2.248   5.251  20.358  0.00  0.00    +0.000 A 
BRANCH   7  10
ATOM     10  N   UNL     1       1.424   8.799  19.555  0.00  0.00    +0.000 N 
ATOM     11  C   UNL     1       0.813   9.334  20.755  0.00  0.00    +0.000 C 
ATOM     12  C   UNL     1       1.087  10.825  20.648  0.00  0.00    +0.000 C 
ATOM     13  N   UNL     1       1.223  11.029  19.237  0.00  0.00    +0.000 N 
ATOM     14  C   UNL     1       1.605   9.838  18.620  0.00  0.00    +0.000 C 
ATOM     15  O   UNL     1       2.026   9.806  17.477  0.00  0.00    +0.000 OA
ATOM     16  H   UNL     1       1.484  11.898  18.790  0.00  0.00    +0.000 HD
ENDBRANCH   7  10
ENDBRANCH   1   4
BRANCH   1  17
ATOM     17  O   UNL     1       4.794   3.229  19.041  0.00  0.00    +0.000 OA
BRANCH  17  21
ATOM     18  C   UNL     1       7.008   6.348  17.346  0.00  0.00    +0.000 A 
ATOM     19  C   UNL     1       6.915   6.169  18.735  0.00  0.00    +0.000 A 
ATOM     20  C   UNL     1       6.167   5.119  19.276  0.00  0.00    +0.000 A 
ATOM     21  C   UNL     1       5.457   4.268  18.437  0.00  0.00    +0.000 A 
ATOM     22  C   UNL     1       5.490   4.486  17.062  0.00  0.00    +0.000 A 
ATOM     23  C   UNL     1       6.248   5.527  16.502  0.00  0.00    +0.000 A 
BRANCH  18  25
ATOM     24  C   UNL     1       7.998   8.478  17.621  0.00  0.00    +0.000 C 
ATOM     25  O   UNL     1       7.806   7.320  16.808  0.00  0.00    +0.000 OA
ENDBRANCH  18  25
BRANCH  23  26
ATOM     26  O   UNL     1       6.127   5.550  15.140  0.00  0.00    +0.000 OA
ATOM     27  C   UNL     1       7.020   4.794  14.342  0.00  0.00    +0.000 C 
ENDBRANCH  23  26
ENDBRANCH  17  21
ENDBRANCH   1  17
TORSDOF 6
ENDMDL
MODEL 8
REMARK VINA RESULT:      -7.5      1.685      2.947
REMARK  Name = 
REMARK  8 active torsions:
REMARK  status: ('A' for Active; 'I' for Inactive)
REMARK    1  A    between atoms: C_1  and  O_2
REMARK    2  A    between atoms: O_2  and  C_3
REMARK    3  A    between atoms: C_6  and  O_7
REMARK    4  A    between atoms: O_7  and  S_8
REMARK    5  A    between atoms: S_8  and  C_11
REMARK    6  A    between atoms: C_14  and  N_15
REMARK    7  A    between atoms: C_24  and  O_25
REMARK    8  A    between atoms: O_25  and  C_26
REMARK                            x       y       z     vdW  Elec       q    Type
REMARK                         _______ _______ _______ _____ _____    ______ ____
ROOT
ATOM      1  S   UNL     1       2.886   5.370  19.512  0.00  0.00    +0.000 S 
ATOM      2  O   UNL     1       2.596   4.675  18.273  0.00  0.00    +0.000 OA
ATOM      3  O   UNL     1       2.373   4.900  20.786  0.00  0.00    +0.000 OA
ENDROOT
BRANCH   1   4
ATOM      4  C   UNL     1       2.238   7.011  19.312  0.00  0.00    +0.000 A 
ATOM      5  C   UNL     1       2.379   7.685  18.105  0.00  0.00    +0.000 A 
ATOM      6  C   UNL     1       1.909   8.998  17.998  0.00  0.00    +0.000 A 
ATOM      7  C   UNL     1       1.322   9.659  19.089  0.00  0.00    +0.000 A 
ATOM      8  C   UNL     1       1.179   8.949  20.291  0.00  0.00    +0.000 A 
ATOM      9  C   UNL     1       1.639   7.636  20.410  0.00  0.00    +0.000 A 
BRANCH   7  10
ATOM     10  N   UNL     1       0.919  11.013  19.001  0.00  0.00    +0.000 N 
ATOM     11  C   UNL     1       1.843  12.129  19.015  0.00  0.00    +0.000 C 
ATOM     12  C   UNL     1       1.023  13.266  18.428  0.00  0.00    +0.000 C 
ATOM     13  N   UNL     1      -0.323  12.884  18.731  0.00  0.00    +0.000 N 
ATOM     14  C   UNL     1      -0.399  11.501  18.893  0.00  0.00    +0.000 C 
ATOM     15  O   UNL     1      -1.464  10.907  18.906  0.00  0.00    +0.000 OA
ATOM     16  H   UNL     1      -1.155  13.371  18.427  0.00  0.00    +0.000 HD
ENDBRANCH   7  10
ENDBRANCH   1   4
BRANCH   1  17
ATOM     17  O   UNL     1       4.502   5.584  19.638  0.00  0.00    +0.000 OA
BRANCH  17  21
ATOM     18  C   UNL     1       6.829   5.032  16.205  0.00  0.00    +0.000 A 
ATOM     19  C   UNL     1       5.983   4.027  16.702  0.00  0.00    +0.000 A 
ATOM     20  C   UNL     1       5.217   4.237  17.853  0.00  0.00    +0.000 A 
ATOM     21  C   UNL     1       5.328   5.433  18.553  0.00  0.00    +0.000 A 
ATOM     22  C   UNL     1       6.219   6.404  18.102  0.00  0.00    +0.000 A 
ATOM     23  C   UNL     1       6.984   6.215  16.941  0.00  0.00    +0.000 A 
BRANCH  18  25
ATOM     24  C   UNL     1       6.728   4.473  13.910  0.00  0.00    +0.000 C 
ATOM     25  O   UNL     1       7.516   4.866  15.034  0.00  0.00    +0.000 OA
ENDBRANCH  18  25
BRANCH  23  26
ATOM     26  O   UNL     1       7.786   7.295  16.695  0.00  0.00    +0.000 OA
ATOM     27  C   UNL     1       7.829   8.364  17.623  0.00  0.00    +0.000 C 
ENDBRANCH  23  26
ENDBRANCH  17  21
ENDBRANCH   1  17
TORSDOF 6
ENDMDL
MODEL 9
REMARK VINA RESULT:      -7.4      1.653      2.914
REMARK  Name = 
REMARK  8 active torsions:
REMARK  status: ('A' for Active; 'I' for Inactive)
REMARK    1  A    between atoms: C_1  and  O_2
REMARK    2  A    between atoms: O_2  and  C_3
REMARK    3  A    between atoms: C_6  and  O_7
REMARK    4  A    between atoms: O_7  and  S_8
REMARK    5  A    between atoms: S_8  and  C_11
REMARK    6  A    between atoms: C_14  and  N_15
REMARK    7  A    between atoms: C_24  and  O_25
REMARK    8  A    between atoms: O_25  and  C_26
REMARK                            x       y       z     vdW  Elec       q    Type
REMARK                         _______ _______ _______ _____ _____    ______ ____
ROOT
ATOM      1  S   UNL     1       3.795   4.195  18.882  0.00  0.00    +0.000 S 
ATOM      2  O   UNL     1       3.004   3.097  19.401  0.00  0.00    +0.000 OA
ATOM      3  O   UNL     1       5.151   4.440  19.339  0.00  0.00    +0.000 OA
ENDROOT
BRANCH   1   4
ATOM      4  C   UNL     1       2.888   5.673  19.267  0.00  0.00    +0.000 A 
ATOM      5  C   UNL     1       2.959   6.784  18.435  0.00  0.00    +0.000 A 
ATOM      6  C   UNL     1       2.279   7.952  18.796  0.00  0.00    +0.000 A 
ATOM      7  C   UNL     1       1.548   8.035  19.992  0.00  0.00    +0.000 A 
ATOM      8  C   UNL     1       1.482   6.894  20.806  0.00  0.00    +0.000 A 
ATOM      9  C   UNL     1       2.152   5.720  20.454  0.00  0.00    +0.000 A 
BRANCH   7  10
ATOM     10  N   UNL     1       0.927   9.242  20.395  0.00  0.00    +0.000 N 
ATOM     11  C   UNL     1       0.162  10.088  19.503  0.00  0.00    +0.000 C 
ATOM     12  C   UNL     1      -0.665  10.938  20.455  0.00  0.00    +0.000 C 
ATOM     13  N   UNL     1       0.123  10.942  21.651  0.00  0.00    +0.000 N 
ATOM     14  C   UNL     1       0.944   9.816  21.683  0.00  0.00    +0.000 C 
ATOM     15  O   UNL     1       1.517   9.459  22.698  0.00  0.00    +0.000 OA
ATOM     16  H   UNL     1      -0.150  11.354  22.533  0.00  0.00    +0.000 HD
ENDBRANCH   7  10
ENDBRANCH   1   4
BRANCH   1  17
ATOM     17  O   UNL     1       3.790   4.131  17.248  0.00  0.00    +0.000 OA
BRANCH  17  21
ATOM     18  C   UNL     1       7.073   5.048  14.822  0.00  0.00    +0.000 A 
ATOM     19  C   UNL     1       6.200   3.990  14.525  0.00  0.00    +0.000 A 
ATOM     20  C   UNL     1       5.111   3.703  15.355  0.00  0.00    +0.000 A 
ATOM     21  C   UNL     1       4.912   4.436  16.519  0.00  0.00    +0.000 A 
ATOM     22  C   UNL     1       5.817   5.440  16.852  0.00  0.00    +0.000 A 
ATOM     23  C   UNL     1       6.907   5.750  16.024  0.00  0.00    +0.000 A 
BRANCH  18  25
ATOM     24  C   UNL     1       7.826   5.179  12.584  0.00  0.00    +0.000 C 
ATOM     25  O   UNL     1       8.089   5.389  13.972  0.00  0.00    +0.000 OA
ENDBRANCH  18  25
BRANCH  23  26
ATOM     26  O   UNL     1       7.658   6.764  16.552  0.00  0.00    +0.000 OA
ATOM     27  C   UNL     1       7.506   7.114  17.916  0.00  0.00    +0.000 C 
ENDBRANCH  23  26
ENDBRANCH  17  21
ENDBRANCH   1  17
TORSDOF 6
ENDMDL
