MODEL 1
REMARK VINA RESULT:      -7.0      0.000      0.000
REMARK  Name = 
REMARK  6 active torsions:
REMARK  status: ('A' for Active; 'I' for Inactive)
REMARK    1  A    between atoms: C_2  and  C_3
REMARK    2  A    between atoms: C_3  and  N_4
REMARK    3  A    between atoms: N_7  and  C_8
REMARK    4  A    between atoms: C_8  and  C_9
REMARK    5  A    between atoms: N_18  and  C_19
REMARK    6  A    between atoms: C_19  and  C_20
REMARK                            x       y       z     vdW  Elec       q    Type
REMARK                         _______ _______ _______ _____ _____    ______ ____
ROOT
ATOM      1  N   UNL     1       2.425   8.122  18.625  0.00  0.00    +0.000 N 
ATOM      2  C   UNL     1       1.835   7.516  19.803  0.00  0.00    +0.000 C 
ATOM      3  C   UNL     1       1.282   8.720  20.549  0.00  0.00    +0.000 C 
ATOM      4  N   UNL     1       1.068   9.682  19.492  0.00  0.00    +0.000 N 
ATOM      5  C   UNL     1       1.912   9.403  18.414  0.00  0.00    +0.000 C 
ATOM      6  O   UNL     1       2.156  10.132  17.468  0.00  0.00    +0.000 OA
ENDROOT
BRANCH   1   7
ATOM      7  C   UNL     1       3.277   7.393  17.691  0.00  0.00    +0.000 C 
BRANCH   7   9
ATOM      8  O   UNL     1       4.632   5.678  18.719  0.00  0.00    +0.000 OA
ATOM      9  C   UNL     1       3.610   5.951  18.099  0.00  0.00    +0.000 C 
ATOM     10  N   UNL     1       2.752   4.990  17.619  0.00  0.00    +0.000 N 
ATOM     11  H   UNL     1       1.960   5.288  17.060  0.00  0.00    +0.000 HD
BRANCH  10  12
ATOM     12  C   UNL     1       2.941   3.577  17.854  0.00  0.00    +0.000 C 
BRANCH  12  13
ATOM     13  C   UNL     1       2.507   3.252  19.248  0.00  0.00    +0.000 A 
ATOM     14  C   UNL     1       1.244   3.372  19.799  0.00  0.00    +0.000 A 
ATOM     15  C   UNL     1       1.202   2.964  21.163  0.00  0.00    +0.000 A 
ATOM     16  C   UNL     1       2.432   2.536  21.610  0.00  0.00    +0.000 A 
ATOM     17  S   UNL     1       3.625   2.624  20.387  0.00  0.00    +0.000 S 
ENDBRANCH  12  13
ENDBRANCH  10  12
ENDBRANCH   7   9
ENDBRANCH   1   7
BRANCH   4  18
ATOM     18  C   UNL     1       0.393  10.948  19.708  0.00  0.00    +0.000 C 
BRANCH  18  19
ATOM     19  C   UNL     1      -0.993  10.966  19.098  0.00  0.00    +0.000 A 
ATOM     20  C   UNL     1      -1.339  10.081  18.065  0.00  0.00    +0.000 A 
ATOM     21  C   UNL     1      -2.605  10.134  17.472  0.00  0.00    +0.000 A 
ATOM     22  C   UNL     1      -3.540  11.066  17.914  0.00  0.00    +0.000 A 
ATOM     23 CL   UNL     1      -5.084  11.153  17.159  0.00  0.00    +0.000 Cl
ATOM     24  C   UNL     1      -3.225  11.936  18.954  0.00  0.00    +0.000 A 
ATOM     25  C   UNL     1      -1.955  11.889  19.541  0.00  0.00    +0.000 A 
ENDBRANCH  18  19
ENDBRANCH   4  18
TORSDOF 6
ENDMDL
MODEL 2
REMARK VINA RESULT:      -7.0      6.035      8.911
REMARK  Name = 
REMARK  6 active torsions:
REMARK  status: ('A' for Active; 'I' for Inactive)
REMARK    1  A    between atoms: C_2  and  C_3
REMARK    2  A    between atoms: C_3  and  N_4
REMARK    3  A    between atoms: N_7  and  C_8
REMARK    4  A    between atoms: C_8  and  C_9
REMARK    5  A    between atoms: N_18  and  C_19
REMARK    6  A    between atoms: C_19  and  C_20
REMARK                            x       y       z     vdW  Elec       q    Type
REMARK                         _______ _______ _______ _____ _____    ______ ____
ROOT
ATOM      1  N   UNL     1       7.004   5.629  17.788  0.00  0.00    +0.000 N 
ATOM      2  C   UNL     1       7.481   4.734  16.751  0.00  0.00    +0.000 C 
ATOM      3  C   UNL     1       6.300   3.793  16.564  0.00  0.00    +0.000 C 
ATOM      4  N   UNL     1       5.179   4.595  16.998  0.00  0.00    +0.000 N 
ATOM      5  C   UNL     1       5.613   5.581  17.887  0.00  0.00    +0.000 C 
ATOM      6  O   UNL     1       4.916   6.272  18.611  0.00  0.00    +0.000 OA
ENDROOT
BRANCH   1   7
ATOM      7  C   UNL     1       7.864   6.589  18.473  0.00  0.00    +0.000 C 
BRANCH   7   9
ATOM      8  O   UNL     1       7.299   8.263  16.827  0.00  0.00    +0.000 OA
ATOM      9  C   UNL     1       7.855   8.009  17.889  0.00  0.00    +0.000 C 
ATOM     10  N   UNL     1       8.609   8.932  18.575  0.00  0.00    +0.000 N 
ATOM     11  H   UNL     1       9.092   8.630  19.414  0.00  0.00    +0.000 HD
BRANCH  10  12
ATOM     12  C   UNL     1       8.763  10.300  18.140  0.00  0.00    +0.000 C 
BRANCH  12  13
ATOM     13  C   UNL     1       9.813  10.962  18.976  0.00  0.00    +0.000 A 
ATOM     14  C   UNL     1      11.120  11.254  18.630  0.00  0.00    +0.000 A 
ATOM     15  C   UNL     1      11.834  11.893  19.685  0.00  0.00    +0.000 A 
ATOM     16  C   UNL     1      11.047  12.079  20.799  0.00  0.00    +0.000 A 
ATOM     17  S   UNL     1       9.458  11.488  20.569  0.00  0.00    +0.000 S 
ENDBRANCH  12  13
ENDBRANCH  10  12
ENDBRANCH   7   9
ENDBRANCH   1   7
BRANCH   4  18
ATOM     18  C   UNL     1       3.801   4.164  16.848  0.00  0.00    +0.000 C 
BRANCH  18  19
ATOM     19  C   UNL     1       3.187   3.752  18.169  0.00  0.00    +0.000 A 
ATOM     20  C   UNL     1       3.819   2.811  18.997  0.00  0.00    +0.000 A 
ATOM     21  C   UNL     1       3.224   2.397  20.194  0.00  0.00    +0.000 A 
ATOM     22  C   UNL     1       1.994   2.926  20.577  0.00  0.00    +0.000 A 
ATOM     23 CL   UNL     1       1.247   2.388  22.031  0.00  0.00    +0.000 Cl
ATOM     24  C   UNL     1       1.363   3.878  19.781  0.00  0.00    +0.000 A 
ATOM     25  C   UNL     1       1.954   4.286  18.580  0.00  0.00    +0.000 A 
ENDBRANCH  18  19
ENDBRANCH   4  18
TORSDOF 6
ENDMDL
MODEL 3
REMARK VINA RESULT:      -6.9      6.048      9.045
REMARK  Name = 
REMARK  6 active torsions:
REMARK  status: ('A' for Active; 'I' for Inactive)
REMARK    1  A    between atoms: C_2  and  C_3
REMARK    2  A    between atoms: C_3  and  N_4
REMARK    3  A    between atoms: N_7  and  C_8
REMARK    4  A    between atoms: C_8  and  C_9
REMARK    5  A    between atoms: N_18  and  C_19
REMARK    6  A    between atoms: C_19  and  C_20
REMARK                            x       y       z     vdW  Elec       q    Type
REMARK                         _______ _______ _______ _____ _____    ______ ____
ROOT
ATOM      1  N   UNL     1       7.157   6.800  17.790  0.00  0.00    +0.000 N 
ATOM      2  C   UNL     1       7.239   5.913  18.935  0.00  0.00    +0.000 C 
ATOM      3  C   UNL     1       5.816   5.386  19.042  0.00  0.00    +0.000 C 
ATOM      4  N   UNL     1       5.323   5.516  17.689  0.00  0.00    +0.000 N 
ATOM      5  C   UNL     1       6.032   6.514  17.016  0.00  0.00    +0.000 C 
ATOM      6  O   UNL     1       5.733   7.036  15.956  0.00  0.00    +0.000 OA
ENDROOT
BRANCH   1   7
ATOM      7  C   UNL     1       8.228   7.717  17.412  0.00  0.00    +0.000 C 
BRANCH   7   9
ATOM      8  O   UNL     1       7.392   9.962  17.725  0.00  0.00    +0.000 OA
ATOM      9  C   UNL     1       8.179   9.095  18.089  0.00  0.00    +0.000 C 
ATOM     10  N   UNL     1       9.150   9.321  19.035  0.00  0.00    +0.000 N 
ATOM     11  H   UNL     1       9.806   8.575  19.239  0.00  0.00    +0.000 HD
BRANCH  10  12
ATOM     12  C   UNL     1       9.292  10.578  19.732  0.00  0.00    +0.000 C 
BRANCH  12  13
ATOM     13  C   UNL     1      10.241  11.452  18.973  0.00  0.00    +0.000 A 
ATOM     14  C   UNL     1      10.026  12.106  17.774  0.00  0.00    +0.000 A 
ATOM     15  C   UNL     1      11.161  12.854  17.349  0.00  0.00    +0.000 A 
ATOM     16  C   UNL     1      12.205  12.757  18.242  0.00  0.00    +0.000 A 
ATOM     17  S   UNL     1      11.811  11.772  19.584  0.00  0.00    +0.000 S 
ENDBRANCH  12  13
ENDBRANCH  10  12
ENDBRANCH   7   9
ENDBRANCH   1   7
BRANCH   4  18
ATOM     18  C   UNL     1       4.040   4.985  17.267  0.00  0.00    +0.000 C 
BRANCH  18  19
ATOM     19  C   UNL     1       3.275   4.363  18.415  0.00  0.00    +0.000 A 
ATOM     20  C   UNL     1       2.432   5.139  19.226  0.00  0.00    +0.000 A 
ATOM     21  C   UNL     1       1.764   4.569  20.316  0.00  0.00    +0.000 A 
ATOM     22  C   UNL     1       1.928   3.216  20.600  0.00  0.00    +0.000 A 
ATOM     23 CL   UNL     1       1.135   2.526  21.962  0.00  0.00    +0.000 Cl
ATOM     24  C   UNL     1       2.741   2.424  19.793  0.00  0.00    +0.000 A 
ATOM     25  C   UNL     1       3.416   2.996  18.708  0.00  0.00    +0.000 A 
ENDBRANCH  18  19
ENDBRANCH   4  18
TORSDOF 6
ENDMDL
MODEL 4
REMARK VINA RESULT:      -6.9      2.130      3.155
REMARK  Name = 
REMARK  6 active torsions:
REMARK  status: ('A' for Active; 'I' for Inactive)
REMARK    1  A    between atoms: C_2  and  C_3
REMARK    2  A    between atoms: C_3  and  N_4
REMARK    3  A    between atoms: N_7  and  C_8
REMARK    4  A    between atoms: C_8  and  C_9
REMARK    5  A    between atoms: N_18  and  C_19
REMARK    6  A    between atoms: C_19  and  C_20
REMARK                            x       y       z     vdW  Elec       q    Type
REMARK                         _______ _______ _______ _____ _____    ______ ____
ROOT
ATOM      1  N   UNL     1       2.001   7.612  19.460  0.00  0.00    +0.000 N 
ATOM      2  C   UNL     1       2.656   7.849  18.187  0.00  0.00    +0.000 C 
ATOM      3  C   UNL     1       1.940   9.089  17.677  0.00  0.00    +0.000 C 
ATOM      4  N   UNL     1       1.478   9.717  18.894  0.00  0.00    +0.000 N 
ATOM      5  C   UNL     1       1.344   8.760  19.903  0.00  0.00    +0.000 C 
ATOM      6  O   UNL     1       0.769   8.897  20.969  0.00  0.00    +0.000 OA
ENDROOT
BRANCH   1   7
ATOM      7  C   UNL     1       2.193   6.396  20.244  0.00  0.00    +0.000 C 
BRANCH   7   9
ATOM      8  O   UNL     1       1.989   4.442  18.840  0.00  0.00    +0.000 OA
ATOM      9  C   UNL     1       2.734   5.191  19.461  0.00  0.00    +0.000 C 
ATOM     10  N   UNL     1       4.079   4.949  19.608  0.00  0.00    +0.000 N 
ATOM     11  H   UNL     1       4.620   5.580  20.190  0.00  0.00    +0.000 HD
BRANCH  10  12
ATOM     12  C   UNL     1       4.749   3.828  18.993  0.00  0.00    +0.000 C 
BRANCH  12  13
ATOM     13  C   UNL     1       5.339   4.267  17.690  0.00  0.00    +0.000 A 
ATOM     14  C   UNL     1       4.735   4.299  16.447  0.00  0.00    +0.000 A 
ATOM     15  C   UNL     1       5.607   4.781  15.428  0.00  0.00    +0.000 A 
ATOM     16  C   UNL     1       6.847   5.110  15.926  0.00  0.00    +0.000 A 
ATOM     17  S   UNL     1       6.953   4.843  17.613  0.00  0.00    +0.000 S 
ENDBRANCH  12  13
ENDBRANCH  10  12
ENDBRANCH   7   9
ENDBRANCH   1   7
BRANCH   4  18
ATOM     18  C   UNL     1       0.867  11.033  18.916  0.00  0.00    +0.000 C 
BRANCH  18  19
ATOM     19  C   UNL     1      -0.616  10.978  18.618  0.00  0.00    +0.000 A 
ATOM     20  C   UNL     1      -1.128  10.085  17.664  0.00  0.00    +0.000 A 
ATOM     21  C   UNL     1      -2.494  10.071  17.357  0.00  0.00    +0.000 A 
ATOM     22  C   UNL     1      -3.360  10.945  18.009  0.00  0.00    +0.000 A 
ATOM     23 CL   UNL     1      -5.033  10.952  17.603  0.00  0.00    +0.000 Cl
ATOM     24  C   UNL     1      -2.875  11.821  18.975  0.00  0.00    +0.000 A 
ATOM     25  C   UNL     1      -1.508  11.841  19.275  0.00  0.00    +0.000 A 
ENDBRANCH  18  19
ENDBRANCH   4  18
TORSDOF 6
ENDMDL
MODEL 5
REMARK VINA RESULT:      -6.8      6.062      9.027
REMARK  Name = 
REMARK  6 active torsions:
REMARK  status: ('A' for Active; 'I' for Inactive)
REMARK    1  A    between atoms: C_2  and  C_3
REMARK    2  A    between atoms: C_3  and  N_4
REMARK    3  A    between atoms: N_7  and  C_8
REMARK    4  A    between atoms: C_8  and  C_9
REMARK    5  A    between atoms: N_18  and  C_19
REMARK    6  A    between atoms: C_19  and  C_20
REMARK                            x       y       z     vdW  Elec       q    Type
REMARK                         _______ _______ _______ _____ _____    ______ ____
ROOT
ATOM      1  N   UNL     1       7.203   6.769  17.885  0.00  0.00    +0.000 N 
ATOM      2  C   UNL     1       7.357   5.822  18.973  0.00  0.00    +0.000 C 
ATOM      3  C   UNL     1       5.937   5.311  19.164  0.00  0.00    +0.000 C 
ATOM      4  N   UNL     1       5.344   5.517  17.863  0.00  0.00    +0.000 N 
ATOM      5  C   UNL     1       6.017   6.538  17.187  0.00  0.00    +0.000 C 
ATOM      6  O   UNL     1       5.647   7.118  16.181  0.00  0.00    +0.000 OA
ENDROOT
BRANCH   1   7
ATOM      7  C   UNL     1       8.257   7.689  17.471  0.00  0.00    +0.000 C 
BRANCH   7   9
ATOM      8  O   UNL     1       7.399   9.934  17.707  0.00  0.00    +0.000 OA
ATOM      9  C   UNL     1       8.191   9.087  18.103  0.00  0.00    +0.000 C 
ATOM     10  N   UNL     1       9.154   9.352  19.048  0.00  0.00    +0.000 N 
ATOM     11  H   UNL     1       9.816   8.619  19.279  0.00  0.00    +0.000 HD
BRANCH  10  12
ATOM     12  C   UNL     1       9.280  10.631  19.706  0.00  0.00    +0.000 C 
BRANCH  12  13
ATOM     13  C   UNL     1      10.105  11.541  18.850  0.00  0.00    +0.000 A 
ATOM     14  C   UNL     1      11.472  11.509  18.642  0.00  0.00    +0.000 A 
ATOM     15  C   UNL     1      11.914  12.535  17.758  0.00  0.00    +0.000 A 
ATOM     16  C   UNL     1      10.869  13.313  17.311  0.00  0.00    +0.000 A 
ATOM     17  S   UNL     1       9.368  12.802  17.953  0.00  0.00    +0.000 S 
ENDBRANCH  12  13
ENDBRANCH  10  12
ENDBRANCH   7   9
ENDBRANCH   1   7
BRANCH   4  18
ATOM     18  C   UNL     1       4.023   5.026  17.515  0.00  0.00    +0.000 C 
BRANCH  18  19
ATOM     19  C   UNL     1       3.326   4.382  18.695  0.00  0.00    +0.000 A 
ATOM     20  C   UNL     1       3.288   2.986  18.837  0.00  0.00    +0.000 A 
ATOM     21  C   UNL     1       2.601   2.394  19.903  0.00  0.00    +0.000 A 
ATOM     22  C   UNL     1       1.953   3.194  20.841  0.00  0.00    +0.000 A 
ATOM     23 CL   UNL     1       1.079   2.463  22.130  0.00  0.00    +0.000 Cl
ATOM     24  C   UNL     1       2.000   4.581  20.730  0.00  0.00    +0.000 A 
ATOM     25  C   UNL     1       2.680   5.173  19.659  0.00  0.00    +0.000 A 
ENDBRANCH  18  19
ENDBRANCH   4  18
TORSDOF 6
ENDMDL
MODEL 6
REMARK VINA RESULT:      -6.8      5.965      8.789
REMARK  Name = 
REMARK  6 active torsions:
REMARK  status: ('A' for Active; 'I' for Inactive)
REMARK    1  A    between atoms: C_2  and  C_3
REMARK    2  A    between atoms: C_3  and  N_4
REMARK    3  A    between atoms: N_7  and  C_8
REMARK    4  A    between atoms: C_8  and  C_9
REMARK    5  A    between atoms: N_18  and  C_19
REMARK    6  A    between atoms: C_19  and  C_20
REMARK                            x       y       z     vdW  Elec       q    Type
REMARK                         _______ _______ _______ _____ _____    ______ ____
ROOT
ATOM      1  N   UNL     1       6.018   6.541  16.932  0.00  0.00    +0.000 N 
ATOM      2  C   UNL     1       4.913   7.276  17.517  0.00  0.00    +0.000 C 
ATOM      3  C   UNL     1       3.735   6.346  17.274  0.00  0.00    +0.000 C 
ATOM      4  N   UNL     1       4.365   5.048  17.184  0.00  0.00    +0.000 N 
ATOM      5  C   UNL     1       5.698   5.190  16.790  0.00  0.00    +0.000 C 
ATOM      6  O   UNL     1       6.444   4.309  16.400  0.00  0.00    +0.000 OA
ENDROOT
BRANCH   1   7
ATOM      7  C   UNL     1       7.342   7.119  16.723  0.00  0.00    +0.000 C 
BRANCH   7   9
ATOM      8  O   UNL     1       8.201   6.903  18.970  0.00  0.00    +0.000 OA
ATOM      9  C   UNL     1       8.042   7.625  17.992  0.00  0.00    +0.000 C 
ATOM     10  N   UNL     1       8.363   8.962  17.994  0.00  0.00    +0.000 N 
ATOM     11  H   UNL     1       8.144   9.510  17.170  0.00  0.00    +0.000 HD
BRANCH  10  12
ATOM     12  C   UNL     1       8.974   9.623  19.124  0.00  0.00    +0.000 C 
BRANCH  12  13
ATOM     13  C   UNL     1       9.430  10.985  18.705  0.00  0.00    +0.000 A 
ATOM     14  C   UNL     1       8.816  11.857  17.824  0.00  0.00    +0.000 A 
ATOM     15  C   UNL     1       9.540  13.074  17.667  0.00  0.00    +0.000 A 
ATOM     16  C   UNL     1      10.680  13.097  18.439  0.00  0.00    +0.000 A 
ATOM     17  S   UNL     1      10.868  11.661  19.349  0.00  0.00    +0.000 S 
ENDBRANCH  12  13
ENDBRANCH  10  12
ENDBRANCH   7   9
ENDBRANCH   1   7
BRANCH   4  18
ATOM     18  C   UNL     1       3.609   3.812  17.111  0.00  0.00    +0.000 C 
BRANCH  18  19
ATOM     19  C   UNL     1       2.963   3.460  18.434  0.00  0.00    +0.000 A 
ATOM     20  C   UNL     1       3.743   3.133  19.554  0.00  0.00    +0.000 A 
ATOM     21  C   UNL     1       3.141   2.762  20.762  0.00  0.00    +0.000 A 
ATOM     22  C   UNL     1       1.752   2.723  20.862  0.00  0.00    +0.000 A 
ATOM     23 CL   UNL     1       1.014   2.231  22.336  0.00  0.00    +0.000 Cl
ATOM     24  C   UNL     1       0.961   3.068  19.769  0.00  0.00    +0.000 A 
ATOM     25  C   UNL     1       1.564   3.430  18.559  0.00  0.00    +0.000 A 
ENDBRANCH  18  19
ENDBRANCH   4  18
TORSDOF 6
ENDMDL
MODEL 7
REMARK VINA RESULT:      -6.8      5.490      8.404
REMARK  Name = 
REMARK  6 active torsions:
REMARK  status: ('A' for Active; 'I' for Inactive)
REMARK    1  A    between atoms: C_2  and  C_3
REMARK    2  A    between atoms: C_3  and  N_4
REMARK    3  A    between atoms: N_7  and  C_8
REMARK    4  A    between atoms: C_8  and  C_9
REMARK    5  A    between atoms: N_18  and  C_19
REMARK    6  A    between atoms: C_19  and  C_20
REMARK                            x       y       z     vdW  Elec       q    Type
REMARK                         _______ _______ _______ _____ _____    ______ ____
ROOT
ATOM      1  N   UNL     1       6.029   6.123  17.001  0.00  0.00    +0.000 N 
ATOM      2  C   UNL     1       5.927   4.686  16.837  0.00  0.00    +0.000 C 
ATOM      3  C   UNL     1       4.594   4.375  17.499  0.00  0.00    +0.000 C 
ATOM      4  N   UNL     1       3.876   5.624  17.378  0.00  0.00    +0.000 N 
ATOM      5  C   UNL     1       4.779   6.684  17.267  0.00  0.00    +0.000 C 
ATOM      6  O   UNL     1       4.530   7.872  17.379  0.00  0.00    +0.000 OA
ENDROOT
BRANCH   1   7
ATOM      7  C   UNL     1       7.245   6.877  16.714  0.00  0.00    +0.000 C 
BRANCH   7   9
ATOM      8  O   UNL     1       8.149   6.854  18.954  0.00  0.00    +0.000 OA
ATOM      9  C   UNL     1       7.931   7.503  17.937  0.00  0.00    +0.000 C 
ATOM     10  N   UNL     1       8.166   8.855  17.852  0.00  0.00    +0.000 N 
ATOM     11  H   UNL     1       7.901   9.336  17.000  0.00  0.00    +0.000 HD
BRANCH  10  12
ATOM     12  C   UNL     1       8.749   9.621  18.928  0.00  0.00    +0.000 C 
BRANCH  12  13
ATOM     13  C   UNL     1       9.415  10.834  18.358  0.00  0.00    +0.000 A 
ATOM     14  C   UNL     1      10.764  11.039  18.129  0.00  0.00    +0.000 A 
ATOM     15  C   UNL     1      11.034  12.321  17.571  0.00  0.00    +0.000 A 
ATOM     16  C   UNL     1       9.882  13.053  17.382  0.00  0.00    +0.000 A 
ATOM     17  S   UNL     1       8.488  12.192  17.873  0.00  0.00    +0.000 S 
ENDBRANCH  12  13
ENDBRANCH  10  12
ENDBRANCH   7   9
ENDBRANCH   1   7
BRANCH   4  18
ATOM     18  C   UNL     1       2.476   5.763  17.734  0.00  0.00    +0.000 C 
BRANCH  18  19
ATOM     19  C   UNL     1       2.098   4.888  18.910  0.00  0.00    +0.000 A 
ATOM     20  C   UNL     1       2.532   5.197  20.209  0.00  0.00    +0.000 A 
ATOM     21  C   UNL     1       2.221   4.358  21.285  0.00  0.00    +0.000 A 
ATOM     22  C   UNL     1       1.465   3.208  21.073  0.00  0.00    +0.000 A 
ATOM     23 CL   UNL     1       1.114   2.159  22.392  0.00  0.00    +0.000 Cl
ATOM     24  C   UNL     1       1.005   2.897  19.796  0.00  0.00    +0.000 A 
ATOM     25  C   UNL     1       1.325   3.731  18.718  0.00  0.00    +0.000 A 
ENDBRANCH  18  19
ENDBRANCH   4  18
TORSDOF 6
ENDMDL
MODEL 8
REMARK VINA RESULT:      -6.7      2.399      3.574
REMARK  Name = 
REMARK  6 active torsions:
REMARK  status: ('A' for Active; 'I' for Inactive)
REMARK    1  A    between atoms: C_2  and  C_3
REMARK    2  A    between atoms: C_3  and  N_4
REMARK    3  A    between atoms: N_7  and  C_8
REMARK    4  A    between atoms: C_8  and  C_9
REMARK    5  A    between atoms: N_18  and  C_19
REMARK    6  A    between atoms: C_19  and  C_20
REMARK                            x       y       z     vdW  Elec       q    Type
REMARK                         _______ _______ _______ _____ _____    ______ ____
ROOT
ATOM      1  N   UNL     1       2.201   7.038  19.948  0.00  0.00    +0.000 N 
ATOM      2  C   UNL     1       1.259   7.479  20.958  0.00  0.00    +0.000 C 
ATOM      3  C   UNL     1       1.078   8.950  20.617  0.00  0.00    +0.000 C 
ATOM      4  N   UNL     1       1.393   8.994  19.207  0.00  0.00    +0.000 N 
ATOM      5  C   UNL     1       2.230   7.926  18.872  0.00  0.00    +0.000 C 
ATOM      6  O   UNL     1       2.864   7.790  17.840  0.00  0.00    +0.000 OA
ENDROOT
BRANCH   1   7
ATOM      7  C   UNL     1       2.858   5.735  19.982  0.00  0.00    +0.000 C 
BRANCH   7   9
ATOM      8  O   UNL     1       1.651   4.414  18.360  0.00  0.00    +0.000 OA
ATOM      9  C   UNL     1       2.723   4.901  18.701  0.00  0.00    +0.000 C 
ATOM     10  N   UNL     1       3.901   4.641  18.040  0.00  0.00    +0.000 N 
ATOM     11  H   UNL     1       4.759   5.028  18.418  0.00  0.00    +0.000 HD
BRANCH  10  12
ATOM     12  C   UNL     1       3.973   3.825  16.851  0.00  0.00    +0.000 C 
BRANCH  12  13
ATOM     13  C   UNL     1       5.182   4.218  16.062  0.00  0.00    +0.000 A 
ATOM     14  C   UNL     1       5.309   4.325  14.689  0.00  0.00    +0.000 A 
ATOM     15  C   UNL     1       6.616   4.728  14.291  0.00  0.00    +0.000 A 
ATOM     16  C   UNL     1       7.445   4.926  15.372  0.00  0.00    +0.000 A 
ATOM     17  S   UNL     1       6.646   4.630  16.856  0.00  0.00    +0.000 S 
ENDBRANCH  12  13
ENDBRANCH  10  12
ENDBRANCH   7   9
ENDBRANCH   1   7
BRANCH   4  18
ATOM     18  C   UNL     1       1.203  10.182  18.397  0.00  0.00    +0.000 C 
BRANCH  18  19
ATOM     19  C   UNL     1      -0.251  10.596  18.325  0.00  0.00    +0.000 A 
ATOM     20  C   UNL     1      -0.712  11.736  19.002  0.00  0.00    +0.000 A 
ATOM     21  C   UNL     1      -2.066  12.088  18.972  0.00  0.00    +0.000 A 
ATOM     22  C   UNL     1      -2.970  11.306  18.257  0.00  0.00    +0.000 A 
ATOM     23 CL   UNL     1      -4.641  11.720  18.252  0.00  0.00    +0.000 Cl
ATOM     24  C   UNL     1      -2.528  10.186  17.559  0.00  0.00    +0.000 A 
ATOM     25  C   UNL     1      -1.175   9.829  17.596  0.00  0.00    +0.000 A 
ENDBRANCH  18  19
ENDBRANCH   4  18
TORSDOF 6
ENDMDL
MODEL 9
REMARK VINA RESULT:      -6.7      5.971      8.841
REMARK  Name = 
REMARK  6 active torsions:
REMARK  status: ('A' for Active; 'I' for Inactive)
REMARK    1  A    between atoms: C_2  and  C_3
REMARK    2  A    between atoms: C_3  and  N_4
REMARK    3  A    between atoms: N_7  and  C_8
REMARK    4  A    between atoms: C_8  and  C_9
REMARK    5  A    between atoms: N_18  and  C_19
REMARK    6  A    between atoms: C_19  and  C_20
REMARK                            x       y       z     vdW  Elec       q    Type
REMARK                         _______ _______ _______ _____ _____    ______ ____
ROOT
ATOM      1  N   UNL     1       5.967   6.654  16.909  0.00  0.00    +0.000 N 
ATOM      2  C   UNL     1       4.797   7.237  17.537  0.00  0.00    +0.000 C 
ATOM      3  C   UNL     1       3.734   6.176  17.299  0.00  0.00    +0.000 C 
ATOM      4  N   UNL     1       4.514   4.966  17.163  0.00  0.00    +0.000 N 
ATOM      5  C   UNL     1       5.809   5.277  16.743  0.00  0.00    +0.000 C 
ATOM      6  O   UNL     1       6.646   4.501  16.315  0.00  0.00    +0.000 OA
ENDROOT
BRANCH   1   7
ATOM      7  C   UNL     1       7.205   7.392  16.684  0.00  0.00    +0.000 C 
BRANCH   7   9
ATOM      8  O   UNL     1       8.210   6.913  18.827  0.00  0.00    +0.000 OA
ATOM      9  C   UNL     1       7.997   7.744  17.952  0.00  0.00    +0.000 C 
ATOM     10  N   UNL     1       8.337   9.069  18.085  0.00  0.00    +0.000 N 
ATOM     11  H   UNL     1       8.071   9.710  17.345  0.00  0.00    +0.000 HD
BRANCH  10  12
ATOM     12  C   UNL     1       9.032   9.592  19.238  0.00  0.00    +0.000 C 
BRANCH  12  13
ATOM     13  C   UNL     1       9.403  11.018  18.980  0.00  0.00    +0.000 A 
ATOM     14  C   UNL     1       9.744  11.607  17.776  0.00  0.00    +0.000 A 
ATOM     15  C   UNL     1      10.037  12.994  17.910  0.00  0.00    +0.000 A 
ATOM     16  C   UNL     1       9.901  13.425  19.211  0.00  0.00    +0.000 A 
ATOM     17  S   UNL     1       9.420  12.160  20.258  0.00  0.00    +0.000 S 
ENDBRANCH  12  13
ENDBRANCH  10  12
ENDBRANCH   7   9
ENDBRANCH   1   7
BRANCH   4  18
ATOM     18  C   UNL     1       3.911   3.649  17.078  0.00  0.00    +0.000 C 
BRANCH  18  19
ATOM     19  C   UNL     1       3.190   3.268  18.354  0.00  0.00    +0.000 A 
ATOM     20  C   UNL     1       1.790   3.188  18.396  0.00  0.00    +0.000 A 
ATOM     21  C   UNL     1       1.126   2.884  19.590  0.00  0.00    +0.000 A 
ATOM     22  C   UNL     1       1.859   2.649  20.751  0.00  0.00    +0.000 A 
ATOM     23 CL   UNL     1       1.039   2.311  22.226  0.00  0.00    +0.000 Cl
ATOM     24  C   UNL     1       3.250   2.700  20.724  0.00  0.00    +0.000 A 
ATOM     25  C   UNL     1       3.913   3.014  19.532  0.00  0.00    +0.000 A 
ENDBRANCH  18  19
ENDBRANCH   4  18
TORSDOF 6
ENDMDL
