MODEL 1
REMARK VINA RESULT:      -6.4      0.000      0.000
REMARK  Name = 
REMARK  8 active torsions:
REMARK  status: ('A' for Active; 'I' for Inactive)
REMARK    1  A    between atoms: C_1  and  N_2
REMARK    2  A    between atoms: N_2  and  C_3
REMARK    3  A    between atoms: C_4  and  C_6
REMARK    4  A    between atoms: C_6  and  C_7
REMARK    5  A    between atoms: C_7  and  C_8
REMARK    6  A    between atoms: C_8  and  C_9
REMARK    7  A    between atoms: C_9  and  C_10
REMARK    8  A    between atoms: C_10  and  C_11
REMARK                            x       y       z     vdW  Elec       q    Type
REMARK                         _______ _______ _______ _____ _____    ______ ____
ROOT
ATOM      1  C   UNL     1       3.658   6.216  18.555  0.00  0.00    +0.000 C 
ENDROOT
BRANCH   1   2
ATOM      2  C   UNL     1       4.615   5.455  17.688  0.00  0.00    +0.000 A 
ATOM      3  C   UNL     1       4.242   4.999  16.479  0.00  0.00    +0.000 A 
ATOM      4  C   UNL     1       5.208   4.331  15.633  0.00  0.00    +0.000 A 
ATOM      5  C   UNL     1       6.489   4.148  16.031  0.00  0.00    +0.000 A 
ATOM      6  C   UNL     1       6.880   4.596  17.320  0.00  0.00    +0.000 A 
ATOM      7  C   UNL     1       8.037   4.575  18.061  0.00  0.00    +0.000 A 
ATOM      8  N   UNL     1       7.844   5.163  19.284  0.00  0.00    +0.000 NA
ATOM      9  C   UNL     1       6.583   5.543  19.287  0.00  0.00    +0.000 A 
ATOM     10  N   UNL     1       5.936   5.231  18.113  0.00  0.00    +0.000 N 
ENDBRANCH   1   2
BRANCH   1  11
ATOM     11  C   UNL     1       2.358   5.434  18.735  0.00  0.00    +0.000 C 
BRANCH  11  12
ATOM     12  C   UNL     1       1.909   5.448  20.193  0.00  0.00    +0.000 C 
BRANCH  12  13
ATOM     13  C   UNL     1       0.896   4.340  20.458  0.00  0.00    +0.000 C 
BRANCH  13  14
ATOM     14  C   UNL     1       1.392   2.980  19.978  0.00  0.00    +0.000 C 
BRANCH  14  18
ATOM     15  C   UNL     1       4.923   1.686  20.649  0.00  0.00    +0.000 C 
ATOM     16  N   UNL     1       3.712   2.095  19.954  0.00  0.00    +0.000 N 
ATOM     17  C   UNL     1       3.677   1.992  18.506  0.00  0.00    +0.000 C 
ATOM     18  C   UNL     1       2.652   2.560  20.724  0.00  0.00    +0.000 C 
ATOM     19  O   UNL     1       2.728   2.630  21.951  0.00  0.00    +0.000 OA
ENDBRANCH  14  18
ENDBRANCH  13  14
ENDBRANCH  12  13
ENDBRANCH  11  12
ENDBRANCH   1  11
TORSDOF 6
ENDMDL
MODEL 2
REMARK VINA RESULT:      -6.2      1.076      2.107
REMARK  Name = 
REMARK  8 active torsions:
REMARK  status: ('A' for Active; 'I' for Inactive)
REMARK    1  A    between atoms: C_1  and  N_2
REMARK    2  A    between atoms: N_2  and  C_3
REMARK    3  A    between atoms: C_4  and  C_6
REMARK    4  A    between atoms: C_6  and  C_7
REMARK    5  A    between atoms: C_7  and  C_8
REMARK    6  A    between atoms: C_8  and  C_9
REMARK    7  A    between atoms: C_9  and  C_10
REMARK    8  A    between atoms: C_10  and  C_11
REMARK                            x       y       z     vdW  Elec       q    Type
REMARK                         _______ _______ _______ _____ _____    ______ ____
ROOT
ATOM      1  C   UNL     1       3.186   5.447  17.839  0.00  0.00    +0.000 C 
ENDROOT
BRANCH   1   2
ATOM      2  C   UNL     1       4.675   5.336  17.962  0.00  0.00    +0.000 A 
ATOM      3  C   UNL     1       5.279   5.428  19.161  0.00  0.00    +0.000 A 
ATOM      4  C   UNL     1       6.711   5.244  19.260  0.00  0.00    +0.000 A 
ATOM      5  C   UNL     1       7.468   4.983  18.167  0.00  0.00    +0.000 A 
ATOM      6  C   UNL     1       6.841   4.920  16.895  0.00  0.00    +0.000 A 
ATOM      7  C   UNL     1       7.255   4.706  15.603  0.00  0.00    +0.000 A 
ATOM      8  N   UNL     1       6.195   4.759  14.736  0.00  0.00    +0.000 NA
ATOM      9  C   UNL     1       5.144   4.996  15.492  0.00  0.00    +0.000 A 
ATOM     10  N   UNL     1       5.468   5.102  16.825  0.00  0.00    +0.000 N 
ENDBRANCH   1   2
BRANCH   1  11
ATOM     11  C   UNL     1       2.611   6.275  18.987  0.00  0.00    +0.000 C 
BRANCH  11  12
ATOM     12  C   UNL     1       1.924   5.382  20.016  0.00  0.00    +0.000 C 
BRANCH  12  13
ATOM     13  C   UNL     1       1.188   4.236  19.331  0.00  0.00    +0.000 C 
BRANCH  13  14
ATOM     14  C   UNL     1       1.147   2.981  20.195  0.00  0.00    +0.000 C 
BRANCH  14  18
ATOM     15  C   UNL     1       4.788   1.844  20.409  0.00  0.00    +0.000 C 
ATOM     16  N   UNL     1       3.469   2.159  19.880  0.00  0.00    +0.000 N 
ATOM     17  C   UNL     1       3.216   1.928  18.469  0.00  0.00    +0.000 C 
ATOM     18  C   UNL     1       2.522   2.661  20.766  0.00  0.00    +0.000 C 
ATOM     19  O   UNL     1       2.783   2.840  21.956  0.00  0.00    +0.000 OA
ENDBRANCH  14  18
ENDBRANCH  13  14
ENDBRANCH  12  13
ENDBRANCH  11  12
ENDBRANCH   1  11
TORSDOF 6
ENDMDL
MODEL 3
REMARK VINA RESULT:      -6.2      1.336      1.719
REMARK  Name = 
REMARK  8 active torsions:
REMARK  status: ('A' for Active; 'I' for Inactive)
REMARK    1  A    between atoms: C_1  and  N_2
REMARK    2  A    between atoms: N_2  and  C_3
REMARK    3  A    between atoms: C_4  and  C_6
REMARK    4  A    between atoms: C_6  and  C_7
REMARK    5  A    between atoms: C_7  and  C_8
REMARK    6  A    between atoms: C_8  and  C_9
REMARK    7  A    between atoms: C_9  and  C_10
REMARK    8  A    between atoms: C_10  and  C_11
REMARK                            x       y       z     vdW  Elec       q    Type
REMARK                         _______ _______ _______ _____ _____    ______ ____
ROOT
ATOM      1  C   UNL     1       4.379   7.401  17.581  0.00  0.00    +0.000 C 
ENDROOT
BRANCH   1   2
ATOM      2  C   UNL     1       5.226   6.387  16.873  0.00  0.00    +0.000 A 
ATOM      3  C   UNL     1       5.033   6.111  15.571  0.00  0.00    +0.000 A 
ATOM      4  C   UNL     1       5.912   5.181  14.894  0.00  0.00    +0.000 A 
ATOM      5  C   UNL     1       6.933   4.573  15.544  0.00  0.00    +0.000 A 
ATOM      6  C   UNL     1       7.121   4.833  16.927  0.00  0.00    +0.000 A 
ATOM      7  C   UNL     1       7.995   4.412  17.899  0.00  0.00    +0.000 A 
ATOM      8  N   UNL     1       7.707   5.000  19.104  0.00  0.00    +0.000 NA
ATOM      9  C   UNL     1       6.671   5.776  18.868  0.00  0.00    +0.000 A 
ATOM     10  N   UNL     1       6.263   5.727  17.554  0.00  0.00    +0.000 N 
ENDBRANCH   1   2
BRANCH   1  11
ATOM     11  C   UNL     1       2.914   6.965  17.589  0.00  0.00    +0.000 C 
BRANCH  11  12
ATOM     12  C   UNL     1       2.737   5.657  18.355  0.00  0.00    +0.000 C 
BRANCH  12  13
ATOM     13  C   UNL     1       1.734   4.751  17.650  0.00  0.00    +0.000 C 
BRANCH  13  14
ATOM     14  C   UNL     1       1.869   3.296  18.085  0.00  0.00    +0.000 C 
BRANCH  14  18
ATOM     15  C   UNL     1       2.425   2.600  21.800  0.00  0.00    +0.000 C 
ATOM     16  N   UNL     1       2.668   2.757  20.374  0.00  0.00    +0.000 N 
ATOM     17  C   UNL     1       4.004   2.501  19.867  0.00  0.00    +0.000 C 
ATOM     18  C   UNL     1       1.596   3.140  19.576  0.00  0.00    +0.000 C 
ATOM     19  O   UNL     1       0.479   3.347  20.051  0.00  0.00    +0.000 OA
ENDBRANCH  14  18
ENDBRANCH  13  14
ENDBRANCH  12  13
ENDBRANCH  11  12
ENDBRANCH   1  11
TORSDOF 6
ENDMDL
MODEL 4
REMARK VINA RESULT:      -6.2      3.061      5.997
REMARK  Name = 
REMARK  8 active torsions:
REMARK  status: ('A' for Active; 'I' for Inactive)
REMARK    1  A    between atoms: C_1  and  N_2
REMARK    2  A    between atoms: N_2  and  C_3
REMARK    3  A    between atoms: C_4  and  C_6
REMARK    4  A    between atoms: C_6  and  C_7
REMARK    5  A    between atoms: C_7  and  C_8
REMARK    6  A    between atoms: C_8  and  C_9
REMARK    7  A    between atoms: C_9  and  C_10
REMARK    8  A    between atoms: C_10  and  C_11
REMARK                            x       y       z     vdW  Elec       q    Type
REMARK                         _______ _______ _______ _____ _____    ______ ____
ROOT
ATOM      1  C   UNL     1       3.838   5.944  19.316  0.00  0.00    +0.000 C 
ENDROOT
BRANCH   1   2
ATOM      2  C   UNL     1       2.818   4.873  19.077  0.00  0.00    +0.000 A 
ATOM      3  C   UNL     1       2.326   4.648  17.845  0.00  0.00    +0.000 A 
ATOM      4  C   UNL     1       1.396   3.560  17.630  0.00  0.00    +0.000 A 
ATOM      5  C   UNL     1       1.002   2.755  18.646  0.00  0.00    +0.000 A 
ATOM      6  C   UNL     1       1.491   3.009  19.954  0.00  0.00    +0.000 A 
ATOM      7  C   UNL     1       1.316   2.450  21.197  0.00  0.00    +0.000 A 
ATOM      8  N   UNL     1       2.051   3.119  22.141  0.00  0.00    +0.000 NA
ATOM      9  C   UNL     1       2.673   4.073  21.480  0.00  0.00    +0.000 A 
ATOM     10  N   UNL     1       2.379   4.059  20.136  0.00  0.00    +0.000 N 
ENDBRANCH   1   2
BRANCH   1  11
ATOM     11  C   UNL     1       5.244   5.423  19.021  0.00  0.00    +0.000 C 
BRANCH  11  12
ATOM     12  C   UNL     1       5.607   5.627  17.553  0.00  0.00    +0.000 C 
BRANCH  12  13
ATOM     13  C   UNL     1       5.975   4.301  16.898  0.00  0.00    +0.000 C 
BRANCH  13  14
ATOM     14  C   UNL     1       5.502   4.223  15.451  0.00  0.00    +0.000 C 
BRANCH  14  18
ATOM     15  C   UNL     1       7.550   4.620  12.251  0.00  0.00    +0.000 C 
ATOM     16  N   UNL     1       6.512   4.207  13.182  0.00  0.00    +0.000 N 
ATOM     17  C   UNL     1       5.455   3.336  12.698  0.00  0.00    +0.000 C 
ATOM     18  C   UNL     1       6.596   4.670  14.490  0.00  0.00    +0.000 C 
ATOM     19  O   UNL     1       7.512   5.408  14.855  0.00  0.00    +0.000 OA
ENDBRANCH  14  18
ENDBRANCH  13  14
ENDBRANCH  12  13
ENDBRANCH  11  12
ENDBRANCH   1  11
TORSDOF 6
ENDMDL
MODEL 5
REMARK VINA RESULT:      -6.1      1.216      1.498
REMARK  Name = 
REMARK  8 active torsions:
REMARK  status: ('A' for Active; 'I' for Inactive)
REMARK    1  A    between atoms: C_1  and  N_2
REMARK    2  A    between atoms: N_2  and  C_3
REMARK    3  A    between atoms: C_4  and  C_6
REMARK    4  A    between atoms: C_6  and  C_7
REMARK    5  A    between atoms: C_7  and  C_8
REMARK    6  A    between atoms: C_8  and  C_9
REMARK    7  A    between atoms: C_9  and  C_10
REMARK    8  A    between atoms: C_10  and  C_11
REMARK                            x       y       z     vdW  Elec       q    Type
REMARK                         _______ _______ _______ _____ _____    ______ ____
ROOT
ATOM      1  C   UNL     1       4.209   7.184  17.682  0.00  0.00    +0.000 C 
ENDROOT
BRANCH   1   2
ATOM      2  C   UNL     1       5.148   6.261  16.966  0.00  0.00    +0.000 A 
ATOM      3  C   UNL     1       5.001   6.006  15.653  0.00  0.00    +0.000 A 
ATOM      4  C   UNL     1       5.965   5.169  14.971  0.00  0.00    +0.000 A 
ATOM      5  C   UNL     1       7.020   4.627  15.626  0.00  0.00    +0.000 A 
ATOM      6  C   UNL     1       7.161   4.865  17.018  0.00  0.00    +0.000 A 
ATOM      7  C   UNL     1       8.049   4.490  17.996  0.00  0.00    +0.000 A 
ATOM      8  N   UNL     1       7.693   5.019  19.209  0.00  0.00    +0.000 NA
ATOM      9  C   UNL     1       6.601   5.716  18.972  0.00  0.00    +0.000 A 
ATOM     10  N   UNL     1       6.223   5.669  17.650  0.00  0.00    +0.000 N 
ENDBRANCH   1   2
BRANCH   1  11
ATOM     11  C   UNL     1       2.966   6.428  18.150  0.00  0.00    +0.000 C 
BRANCH  11  12
ATOM     12  C   UNL     1       2.938   6.311  19.671  0.00  0.00    +0.000 C 
BRANCH  12  13
ATOM     13  C   UNL     1       1.686   5.575  20.134  0.00  0.00    +0.000 C 
BRANCH  13  14
ATOM     14  C   UNL     1       2.013   4.238  20.789  0.00  0.00    +0.000 C 
BRANCH  14  18
ATOM     15  C   UNL     1       3.025   1.536  18.284  0.00  0.00    +0.000 C 
ATOM     16  N   UNL     1       3.103   2.624  19.247  0.00  0.00    +0.000 N 
ATOM     17  C   UNL     1       4.411   3.156  19.586  0.00  0.00    +0.000 C 
ATOM     18  C   UNL     1       1.911   3.096  19.785  0.00  0.00    +0.000 C 
ATOM     19  O   UNL     1       0.823   2.613  19.467  0.00  0.00    +0.000 OA
ENDBRANCH  14  18
ENDBRANCH  13  14
ENDBRANCH  12  13
ENDBRANCH  11  12
ENDBRANCH   1  11
TORSDOF 6
ENDMDL
MODEL 6
REMARK VINA RESULT:      -6.1      2.623      5.896
REMARK  Name = 
REMARK  8 active torsions:
REMARK  status: ('A' for Active; 'I' for Inactive)
REMARK    1  A    between atoms: C_1  and  N_2
REMARK    2  A    between atoms: N_2  and  C_3
REMARK    3  A    between atoms: C_4  and  C_6
REMARK    4  A    between atoms: C_6  and  C_7
REMARK    5  A    between atoms: C_7  and  C_8
REMARK    6  A    between atoms: C_8  and  C_9
REMARK    7  A    between atoms: C_9  and  C_10
REMARK    8  A    between atoms: C_10  and  C_11
REMARK                            x       y       z     vdW  Elec       q    Type
REMARK                         _______ _______ _______ _____ _____    ______ ____
ROOT
ATOM      1  C   UNL     1       2.904   3.750  16.912  0.00  0.00    +0.000 C 
ENDROOT
BRANCH   1   2
ATOM      2  C   UNL     1       2.272   3.732  18.271  0.00  0.00    +0.000 A 
ATOM      3  C   UNL     1       1.812   2.586  18.804  0.00  0.00    +0.000 A 
ATOM      4  C   UNL     1       1.273   2.583  20.148  0.00  0.00    +0.000 A 
ATOM      5  C   UNL     1       1.215   3.716  20.889  0.00  0.00    +0.000 A 
ATOM      6  C   UNL     1       1.667   4.935  20.318  0.00  0.00    +0.000 A 
ATOM      7  C   UNL     1       1.749   6.243  20.728  0.00  0.00    +0.000 A 
ATOM      8  N   UNL     1       2.279   7.032  19.740  0.00  0.00    +0.000 NA
ATOM      9  C   UNL     1       2.524   6.212  18.740  0.00  0.00    +0.000 A 
ATOM     10  N   UNL     1       2.177   4.912  19.028  0.00  0.00    +0.000 N 
ENDBRANCH   1   2
BRANCH   1  11
ATOM     11  C   UNL     1       4.398   4.053  17.018  0.00  0.00    +0.000 C 
BRANCH  11  12
ATOM     12  C   UNL     1       5.046   4.099  15.637  0.00  0.00    +0.000 C 
BRANCH  12  13
ATOM     13  C   UNL     1       6.565   4.082  15.752  0.00  0.00    +0.000 C 
BRANCH  13  14
ATOM     14  C   UNL     1       7.042   4.482  17.144  0.00  0.00    +0.000 C 
BRANCH  14  18
ATOM     15  C   UNL     1       8.229   7.862  18.471  0.00  0.00    +0.000 C 
ATOM     16  N   UNL     1       7.812   6.469  18.420  0.00  0.00    +0.000 N 
ATOM     17  C   UNL     1       7.759   5.715  19.660  0.00  0.00    +0.000 C 
ATOM     18  C   UNL     1       7.481   5.940  17.177  0.00  0.00    +0.000 C 
ATOM     19  O   UNL     1       7.541   6.618  16.150  0.00  0.00    +0.000 OA
ENDBRANCH  14  18
ENDBRANCH  13  14
ENDBRANCH  12  13
ENDBRANCH  11  12
ENDBRANCH   1  11
TORSDOF 6
ENDMDL
MODEL 7
REMARK VINA RESULT:      -6.0      3.114      6.182
REMARK  Name = 
REMARK  8 active torsions:
REMARK  status: ('A' for Active; 'I' for Inactive)
REMARK    1  A    between atoms: C_1  and  N_2
REMARK    2  A    between atoms: N_2  and  C_3
REMARK    3  A    between atoms: C_4  and  C_6
REMARK    4  A    between atoms: C_6  and  C_7
REMARK    5  A    between atoms: C_7  and  C_8
REMARK    6  A    between atoms: C_8  and  C_9
REMARK    7  A    between atoms: C_9  and  C_10
REMARK    8  A    between atoms: C_10  and  C_11
REMARK                            x       y       z     vdW  Elec       q    Type
REMARK                         _______ _______ _______ _____ _____    ______ ____
ROOT
ATOM      1  C   UNL     1       3.238   6.433  17.501  0.00  0.00    +0.000 C 
ENDROOT
BRANCH   1   2
ATOM      2  C   UNL     1       2.613   5.671  18.629  0.00  0.00    +0.000 A 
ATOM      3  C   UNL     1       2.332   6.273  19.799  0.00  0.00    +0.000 A 
ATOM      4  C   UNL     1       1.662   5.532  20.847  0.00  0.00    +0.000 A 
ATOM      5  C   UNL     1       1.309   4.234  20.681  0.00  0.00    +0.000 A 
ATOM      6  C   UNL     1       1.634   3.584  19.462  0.00  0.00    +0.000 A 
ATOM      7  C   UNL     1       1.469   2.322  18.944  0.00  0.00    +0.000 A 
ATOM      8  N   UNL     1       1.994   2.240  17.680  0.00  0.00    +0.000 NA
ATOM      9  C   UNL     1       2.470   3.441  17.427  0.00  0.00    +0.000 A 
ATOM     10  N   UNL     1       2.279   4.314  18.473  0.00  0.00    +0.000 N 
ENDBRANCH   1   2
BRANCH   1  11
ATOM     11  C   UNL     1       4.735   6.622  17.743  0.00  0.00    +0.000 C 
BRANCH  11  12
ATOM     12  C   UNL     1       5.552   6.063  16.582  0.00  0.00    +0.000 C 
BRANCH  12  13
ATOM     13  C   UNL     1       5.841   4.581  16.788  0.00  0.00    +0.000 C 
BRANCH  13  14
ATOM     14  C   UNL     1       5.952   3.827  15.468  0.00  0.00    +0.000 C 
BRANCH  14  18
ATOM     15  C   UNL     1       7.537   4.977  12.187  0.00  0.00    +0.000 C 
ATOM     16  N   UNL     1       6.681   4.284  13.138  0.00  0.00    +0.000 N 
ATOM     17  C   UNL     1       5.702   3.341  12.628  0.00  0.00    +0.000 C 
ATOM     18  C   UNL     1       6.856   4.565  14.488  0.00  0.00    +0.000 C 
ATOM     19  O   UNL     1       7.700   5.375  14.875  0.00  0.00    +0.000 OA
ENDBRANCH  14  18
ENDBRANCH  13  14
ENDBRANCH  12  13
ENDBRANCH  11  12
ENDBRANCH   1  11
TORSDOF 6
ENDMDL
MODEL 8
REMARK VINA RESULT:      -6.0      4.573      7.281
REMARK  Name = 
REMARK  8 active torsions:
REMARK  status: ('A' for Active; 'I' for Inactive)
REMARK    1  A    between atoms: C_1  and  N_2
REMARK    2  A    between atoms: N_2  and  C_3
REMARK    3  A    between atoms: C_4  and  C_6
REMARK    4  A    between atoms: C_6  and  C_7
REMARK    5  A    between atoms: C_7  and  C_8
REMARK    6  A    between atoms: C_8  and  C_9
REMARK    7  A    between atoms: C_9  and  C_10
REMARK    8  A    between atoms: C_10  and  C_11
REMARK                            x       y       z     vdW  Elec       q    Type
REMARK                         _______ _______ _______ _____ _____    ______ ____
ROOT
ATOM      1  C   UNL     1       7.913   5.321  18.719  0.00  0.00    +0.000 C 
ENDROOT
BRANCH   1   2
ATOM      2  C   UNL     1       6.872   4.989  17.693  0.00  0.00    +0.000 A 
ATOM      3  C   UNL     1       7.219   4.648  16.439  0.00  0.00    +0.000 A 
ATOM      4  C   UNL     1       6.196   4.262  15.490  0.00  0.00    +0.000 A 
ATOM      5  C   UNL     1       4.886   4.237  15.833  0.00  0.00    +0.000 A 
ATOM      6  C   UNL     1       4.510   4.630  17.144  0.00  0.00    +0.000 A 
ATOM      7  C   UNL     1       3.330   4.752  17.836  0.00  0.00    +0.000 A 
ATOM      8  N   UNL     1       3.556   5.191  19.114  0.00  0.00    +0.000 NA
ATOM      9  C   UNL     1       4.862   5.330  19.204  0.00  0.00    +0.000 A 
ATOM     10  N   UNL     1       5.508   4.998  18.035  0.00  0.00    +0.000 N 
ENDBRANCH   1   2
BRANCH   1  11
ATOM     11  C   UNL     1       8.033   6.834  18.892  0.00  0.00    +0.000 C 
BRANCH  11  12
ATOM     12  C   UNL     1       7.735   7.561  17.584  0.00  0.00    +0.000 C 
BRANCH  12  13
ATOM     13  C   UNL     1       7.972   9.059  17.731  0.00  0.00    +0.000 C 
BRANCH  13  14
ATOM     14  C   UNL     1       8.895   9.384  18.899  0.00  0.00    +0.000 C 
BRANCH  14  18
ATOM     15  C   UNL     1      10.292  12.856  19.670  0.00  0.00    +0.000 C 
ATOM     16  N   UNL     1       9.659  11.555  19.833  0.00  0.00    +0.000 N 
ATOM     17  C   UNL     1       9.164  11.185  21.146  0.00  0.00    +0.000 C 
ATOM     18  C   UNL     1       9.563  10.740  18.710  0.00  0.00    +0.000 C 
ATOM     19  O   UNL     1       9.999  11.097  17.615  0.00  0.00    +0.000 OA
ENDBRANCH  14  18
ENDBRANCH  13  14
ENDBRANCH  12  13
ENDBRANCH  11  12
ENDBRANCH   1  11
TORSDOF 6
ENDMDL
MODEL 9
REMARK VINA RESULT:      -5.9      3.603      5.731
REMARK  Name = 
REMARK  8 active torsions:
REMARK  status: ('A' for Active; 'I' for Inactive)
REMARK    1  A    between atoms: C_1  and  N_2
REMARK    2  A    between atoms: N_2  and  C_3
REMARK    3  A    between atoms: C_4  and  C_6
REMARK    4  A    between atoms: C_6  and  C_7
REMARK    5  A    between atoms: C_7  and  C_8
REMARK    6  A    between atoms: C_8  and  C_9
REMARK    7  A    between atoms: C_9  and  C_10
REMARK    8  A    between atoms: C_10  and  C_11
REMARK                            x       y       z     vdW  Elec       q    Type
REMARK                         _______ _______ _______ _____ _____    ______ ____
ROOT
ATOM      1  C   UNL     1       2.459   6.534  19.297  0.00  0.00    +0.000 C 
ENDROOT
BRANCH   1   2
ATOM      2  C   UNL     1       2.033   7.964  19.156  0.00  0.00    +0.000 A 
ATOM      3  C   UNL     1       2.229   8.635  18.007  0.00  0.00    +0.000 A 
ATOM      4  C   UNL     1       1.742   9.992  17.874  0.00  0.00    +0.000 A 
ATOM      5  C   UNL     1       1.091  10.612  18.887  0.00  0.00    +0.000 A 
ATOM      6  C   UNL     1       0.912   9.921  20.114  0.00  0.00    +0.000 A 
ATOM      7  C   UNL     1       0.343  10.208  21.331  0.00  0.00    +0.000 A 
ATOM      8  N   UNL     1       0.459   9.143  22.187  0.00  0.00    +0.000 NA
ATOM      9  C   UNL     1       1.087   8.214  21.497  0.00  0.00    +0.000 A 
ATOM     10  N   UNL     1       1.389   8.623  20.218  0.00  0.00    +0.000 N 
ENDBRANCH   1   2
BRANCH   1  11
ATOM     11  C   UNL     1       2.315   5.797  17.966  0.00  0.00    +0.000 C 
BRANCH  11  12
ATOM     12  C   UNL     1       1.771   4.387  18.177  0.00  0.00    +0.000 C 
BRANCH  12  13
ATOM     13  C   UNL     1       2.908   3.395  18.391  0.00  0.00    +0.000 C 
BRANCH  13  14
ATOM     14  C   UNL     1       4.001   3.536  17.338  0.00  0.00    +0.000 C 
BRANCH  14  18
ATOM     15  C   UNL     1       7.619   4.716  17.680  0.00  0.00    +0.000 C 
ATOM     16  N   UNL     1       6.354   4.294  17.097  0.00  0.00    +0.000 N 
ATOM     17  C   UNL     1       6.249   4.221  15.651  0.00  0.00    +0.000 C 
ATOM     18  C   UNL     1       5.316   3.980  17.967  0.00  0.00    +0.000 C 
ATOM     19  O   UNL     1       5.452   4.057  19.189  0.00  0.00    +0.000 OA
ENDBRANCH  14  18
ENDBRANCH  13  14
ENDBRANCH  12  13
ENDBRANCH  11  12
ENDBRANCH   1  11
TORSDOF 6
ENDMDL
