MODEL 1
REMARK VINA RESULT:      -8.4      0.000      0.000
REMARK  Name = 
REMARK  13 active torsions:
REMARK  status: ('A' for Active; 'I' for Inactive)
REMARK    1  A    between atoms: C_1  and  O_2
REMARK    2  A    between atoms: O_2  and  C_3
REMARK    3  A    between atoms: C_8  and  O_9
REMARK    4  A    between atoms: O_9  and  C_10
REMARK    5  A    between atoms: C_10  and  C_11
REMARK    6  A    between atoms: C_11  and  N_12
REMARK    7  A    between atoms: N_18  and  C_19
REMARK    8  A    between atoms: C_19  and  C_20
REMARK    9  A    between atoms: C_23  and  O_24
REMARK   10  A    between atoms: O_24  and  C_25
REMARK   11  A    between atoms: C_28  and  O_29
REMARK   12  A    between atoms: O_29  and  C_30
REMARK   13  A    between atoms: C_30  and  C_31
REMARK                            x       y       z     vdW  Elec       q    Type
REMARK                         _______ _______ _______ _____ _____    ______ ____
ROOT
ATOM      1  N   UNL     1       1.452   6.459  20.841  0.00  0.00    +0.000 N 
ATOM      2  C   UNL     1       1.871   5.204  20.443  0.00  0.00    +0.000 A 
ATOM      3  C   UNL     1       0.876   4.105  20.364  0.00  0.00    +0.000 A 
ATOM      4  C   UNL     1       1.282   2.920  19.900  0.00  0.00    +0.000 A 
ATOM      5  C   UNL     1       2.695   2.694  19.543  0.00  0.00    +0.000 A 
ATOM      6  O   UNL     1       3.031   1.591  19.119  0.00  0.00    +0.000 OA
ATOM      7  N   UNL     1       3.541   3.773  19.731  0.00  0.00    +0.000 N 
ATOM      8  N   UNL     1       3.122   5.021  20.137  0.00  0.00    +0.000 NA
ATOM      9  H   UNL     1       0.458   6.546  21.023  0.00  0.00    +0.000 HD
ENDROOT
BRANCH   1  10
ATOM     10  C   UNL     1       1.991   7.649  20.171  0.00  0.00    +0.000 C 
BRANCH  10  11
ATOM     11  C   UNL     1       1.239   8.888  20.674  0.00  0.00    +0.000 C 
BRANCH  11  12
ATOM     12  O   UNL     1       1.262   9.946  19.723  0.00  0.00    +0.000 OA
BRANCH  12  18
ATOM     13  C   UNL     1      -0.693  11.483  20.073  0.00  0.00    +0.000 A 
ATOM     14  C   UNL     1      -1.881  11.975  19.511  0.00  0.00    +0.000 A 
ATOM     15  C   UNL     1      -2.395  11.431  18.336  0.00  0.00    +0.000 A 
ATOM     16  C   UNL     1      -1.700  10.416  17.687  0.00  0.00    +0.000 A 
ATOM     17  C   UNL     1      -0.482   9.969  18.201  0.00  0.00    +0.000 A 
ATOM     18  C   UNL     1       0.046  10.500  19.387  0.00  0.00    +0.000 A 
BRANCH  13  20
ATOM     19  C   UNL     1      -0.798  11.477  22.438  0.00  0.00    +0.000 C 
ATOM     20  O   UNL     1      -0.228  12.018  21.246  0.00  0.00    +0.000 OA
ENDBRANCH  13  20
ENDBRANCH  12  18
ENDBRANCH  11  12
ENDBRANCH  10  11
ENDBRANCH   1  10
BRANCH   7  21
ATOM     21  C   UNL     1       4.977   3.605  19.549  0.00  0.00    +0.000 C 
BRANCH  21  22
ATOM     22  C   UNL     1       5.458   4.132  18.213  0.00  0.00    +0.000 A 
ATOM     23  C   UNL     1       4.955   3.610  17.019  0.00  0.00    +0.000 A 
ATOM     24  C   UNL     1       5.348   4.155  15.797  0.00  0.00    +0.000 A 
ATOM     25  C   UNL     1       6.268   5.210  15.736  0.00  0.00    +0.000 A 
ATOM     26  C   UNL     1       6.805   5.727  16.924  0.00  0.00    +0.000 A 
ATOM     27  C   UNL     1       6.385   5.188  18.149  0.00  0.00    +0.000 A 
BRANCH  25  28
ATOM     28  O   UNL     1       6.493   5.649  14.458  0.00  0.00    +0.000 OA
BRANCH  28  29
ATOM     29  C   UNL     1       7.086   4.744  13.545  0.00  0.00    +0.000 C 
ATOM     30  F   UNL     1       6.120   4.133  12.814  0.00  0.00    +0.000 F 
ATOM     31  F   UNL     1       7.803   5.497  12.665  0.00  0.00    +0.000 F 
ENDBRANCH  28  29
ENDBRANCH  25  28
BRANCH  26  32
ATOM     32  O   UNL     1       7.639   6.809  16.841  0.00  0.00    +0.000 OA
BRANCH  32  33
ATOM     33  C   UNL     1       7.267   7.976  17.579  0.00  0.00    +0.000 C 
BRANCH  33  34
ATOM     34  C   UNL     1       8.469   8.870  17.655  0.00  0.00    +0.000 C 
ATOM     35  C   UNL     1       8.308  10.321  18.039  0.00  0.00    +0.000 C 
ATOM     36  C   UNL     1       8.974   9.367  18.989  0.00  0.00    +0.000 C 
ENDBRANCH  33  34
ENDBRANCH  32  33
ENDBRANCH  26  32
ENDBRANCH  21  22
ENDBRANCH   7  21
TORSDOF 12
ENDMDL
MODEL 2
REMARK VINA RESULT:      -8.2      2.032      3.895
REMARK  Name = 
REMARK  13 active torsions:
REMARK  status: ('A' for Active; 'I' for Inactive)
REMARK    1  A    between atoms: C_1  and  O_2
REMARK    2  A    between atoms: O_2  and  C_3
REMARK    3  A    between atoms: C_8  and  O_9
REMARK    4  A    between atoms: O_9  and  C_10
REMARK    5  A    between atoms: C_10  and  C_11
REMARK    6  A    between atoms: C_11  and  N_12
REMARK    7  A    between atoms: N_18  and  C_19
REMARK    8  A    between atoms: C_19  and  C_20
REMARK    9  A    between atoms: C_23  and  O_24
REMARK   10  A    between atoms: O_24  and  C_25
REMARK   11  A    between atoms: C_28  and  O_29
REMARK   12  A    between atoms: O_29  and  C_30
REMARK   13  A    between atoms: C_30  and  C_31
REMARK                            x       y       z     vdW  Elec       q    Type
REMARK                         _______ _______ _______ _____ _____    ______ ____
ROOT
ATOM      1  N   UNL     1       1.911   6.231  21.439  0.00  0.00    +0.000 N 
ATOM      2  C   UNL     1       2.136   5.042  20.771  0.00  0.00    +0.000 A 
ATOM      3  C   UNL     1       2.180   3.778  21.548  0.00  0.00    +0.000 A 
ATOM      4  C   UNL     1       2.316   2.631  20.877  0.00  0.00    +0.000 A 
ATOM      5  C   UNL     1       2.489   2.631  19.412  0.00  0.00    +0.000 A 
ATOM      6  O   UNL     1       2.610   1.557  18.828  0.00  0.00    +0.000 OA
ATOM      7  N   UNL     1       2.505   3.877  18.810  0.00  0.00    +0.000 N 
ATOM      8  N   UNL     1       2.291   5.061  19.480  0.00  0.00    +0.000 NA
ATOM      9  H   UNL     1       1.755   6.143  22.438  0.00  0.00    +0.000 HD
ENDROOT
BRANCH   1  10
ATOM     10  C   UNL     1       1.040   7.248  20.837  0.00  0.00    +0.000 C 
BRANCH  10  11
ATOM     11  C   UNL     1       1.210   8.566  21.602  0.00  0.00    +0.000 C 
BRANCH  11  12
ATOM     12  O   UNL     1       0.962   9.697  20.774  0.00  0.00    +0.000 OA
BRANCH  12  18
ATOM     13  C   UNL     1      -0.767  11.481  20.410  0.00  0.00    +0.000 A 
ATOM     14  C   UNL     1      -1.818  12.198  21.003  0.00  0.00    +0.000 A 
ATOM     15  C   UNL     1      -2.089  12.077  22.364  0.00  0.00    +0.000 A 
ATOM     16  C   UNL     1      -1.335  11.203  23.139  0.00  0.00    +0.000 A 
ATOM     17  C   UNL     1      -0.333  10.433  22.545  0.00  0.00    +0.000 A 
ATOM     18  C   UNL     1      -0.042  10.548  21.178  0.00  0.00    +0.000 A 
BRANCH  13  20
ATOM     19  C   UNL     1      -1.392  10.962  18.187  0.00  0.00    +0.000 C 
ATOM     20  O   UNL     1      -0.506  11.644  19.075  0.00  0.00    +0.000 OA
ENDBRANCH  13  20
ENDBRANCH  12  18
ENDBRANCH  11  12
ENDBRANCH  10  11
ENDBRANCH   1  10
BRANCH   7  21
ATOM     21  C   UNL     1       2.818   3.989  17.391  0.00  0.00    +0.000 C 
BRANCH  21  22
ATOM     22  C   UNL     1       4.053   4.829  17.134  0.00  0.00    +0.000 A 
ATOM     23  C   UNL     1       4.229   6.053  17.781  0.00  0.00    +0.000 A 
ATOM     24  C   UNL     1       5.404   6.780  17.595  0.00  0.00    +0.000 A 
ATOM     25  C   UNL     1       6.415   6.319  16.742  0.00  0.00    +0.000 A 
ATOM     26  C   UNL     1       6.243   5.105  16.061  0.00  0.00    +0.000 A 
ATOM     27  C   UNL     1       5.067   4.370  16.274  0.00  0.00    +0.000 A 
BRANCH  25  28
ATOM     28  O   UNL     1       7.514   7.136  16.725  0.00  0.00    +0.000 OA
BRANCH  28  29
ATOM     29  C   UNL     1       7.772   7.917  17.878  0.00  0.00    +0.000 C 
ATOM     30  F   UNL     1       8.496   7.193  18.767  0.00  0.00    +0.000 F 
ATOM     31  F   UNL     1       8.581   8.938  17.479  0.00  0.00    +0.000 F 
ENDBRANCH  28  29
ENDBRANCH  25  28
BRANCH  26  32
ATOM     32  O   UNL     1       7.278   4.636  15.297  0.00  0.00    +0.000 OA
BRANCH  32  33
ATOM     33  C   UNL     1       7.181   4.826  13.884  0.00  0.00    +0.000 C 
BRANCH  33  34
ATOM     34  C   UNL     1       6.561   3.590  13.300  0.00  0.00    +0.000 C 
ATOM     35  C   UNL     1       5.264   3.686  12.534  0.00  0.00    +0.000 C 
ATOM     36  C   UNL     1       6.540   3.375  11.805  0.00  0.00    +0.000 C 
ENDBRANCH  33  34
ENDBRANCH  32  33
ENDBRANCH  26  32
ENDBRANCH  21  22
ENDBRANCH   7  21
TORSDOF 12
ENDMDL
MODEL 3
REMARK VINA RESULT:      -8.2      1.075      1.596
REMARK  Name = 
REMARK  13 active torsions:
REMARK  status: ('A' for Active; 'I' for Inactive)
REMARK    1  A    between atoms: C_1  and  O_2
REMARK    2  A    between atoms: O_2  and  C_3
REMARK    3  A    between atoms: C_8  and  O_9
REMARK    4  A    between atoms: O_9  and  C_10
REMARK    5  A    between atoms: C_10  and  C_11
REMARK    6  A    between atoms: C_11  and  N_12
REMARK    7  A    between atoms: N_18  and  C_19
REMARK    8  A    between atoms: C_19  and  C_20
REMARK    9  A    between atoms: C_23  and  O_24
REMARK   10  A    between atoms: O_24  and  C_25
REMARK   11  A    between atoms: C_28  and  O_29
REMARK   12  A    between atoms: O_29  and  C_30
REMARK   13  A    between atoms: C_30  and  C_31
REMARK                            x       y       z     vdW  Elec       q    Type
REMARK                         _______ _______ _______ _____ _____    ______ ____
ROOT
ATOM      1  N   UNL     1       1.638   6.761  20.687  0.00  0.00    +0.000 N 
ATOM      2  C   UNL     1       1.960   5.457  20.361  0.00  0.00    +0.000 A 
ATOM      3  C   UNL     1       0.895   4.424  20.397  0.00  0.00    +0.000 A 
ATOM      4  C   UNL     1       1.205   3.186  20.000  0.00  0.00    +0.000 A 
ATOM      5  C   UNL     1       2.585   2.845  19.605  0.00  0.00    +0.000 A 
ATOM      6  O   UNL     1       2.833   1.697  19.245  0.00  0.00    +0.000 OA
ATOM      7  N   UNL     1       3.504   3.877  19.684  0.00  0.00    +0.000 N 
ATOM      8  N   UNL     1       3.182   5.173  20.020  0.00  0.00    +0.000 NA
ATOM      9  H   UNL     1       0.660   6.925  20.901  0.00  0.00    +0.000 HD
ENDROOT
BRANCH   1  10
ATOM     10  C   UNL     1       2.221   7.866  19.916  0.00  0.00    +0.000 C 
BRANCH  10  11
ATOM     11  C   UNL     1       1.217   9.025  19.869  0.00  0.00    +0.000 C 
BRANCH  11  12
ATOM     12  O   UNL     1       1.473   9.907  18.782  0.00  0.00    +0.000 OA
BRANCH  12  18
ATOM     13  C   UNL     1      -0.657  11.224  18.597  0.00  0.00    +0.000 A 
ATOM     14  C   UNL     1      -1.222  12.507  18.669  0.00  0.00    +0.000 A 
ATOM     15  C   UNL     1      -0.418  13.639  18.779  0.00  0.00    +0.000 A 
ATOM     16  C   UNL     1       0.963  13.495  18.861  0.00  0.00    +0.000 A 
ATOM     17  C   UNL     1       1.531  12.219  18.861  0.00  0.00    +0.000 A 
ATOM     18  C   UNL     1       0.736  11.069  18.743  0.00  0.00    +0.000 A 
BRANCH  13  20
ATOM     19  C   UNL     1      -1.872   9.827  17.124  0.00  0.00    +0.000 C 
ATOM     20  O   UNL     1      -1.473  10.132  18.460  0.00  0.00    +0.000 OA
ENDBRANCH  13  20
ENDBRANCH  12  18
ENDBRANCH  11  12
ENDBRANCH  10  11
ENDBRANCH   1  10
BRANCH   7  21
ATOM     21  C   UNL     1       4.917   3.603  19.458  0.00  0.00    +0.000 C 
BRANCH  21  22
ATOM     22  C   UNL     1       5.405   4.135  18.126  0.00  0.00    +0.000 A 
ATOM     23  C   UNL     1       4.941   3.587  16.929  0.00  0.00    +0.000 A 
ATOM     24  C   UNL     1       5.339   4.134  15.709  0.00  0.00    +0.000 A 
ATOM     25  C   UNL     1       6.225   5.218  15.655  0.00  0.00    +0.000 A 
ATOM     26  C   UNL     1       6.724   5.762  16.848  0.00  0.00    +0.000 A 
ATOM     27  C   UNL     1       6.299   5.219  18.069  0.00  0.00    +0.000 A 
BRANCH  25  28
ATOM     28  O   UNL     1       6.459   5.654  14.378  0.00  0.00    +0.000 OA
BRANCH  28  29
ATOM     29  C   UNL     1       7.257   4.839  13.539  0.00  0.00    +0.000 C 
ATOM     30  F   UNL     1       6.461   4.132  12.697  0.00  0.00    +0.000 F 
ATOM     31  F   UNL     1       7.978   5.684  12.751  0.00  0.00    +0.000 F 
ENDBRANCH  28  29
ENDBRANCH  25  28
BRANCH  26  32
ATOM     32  O   UNL     1       7.524   6.870  16.771  0.00  0.00    +0.000 OA
BRANCH  32  33
ATOM     33  C   UNL     1       7.289   7.910  17.723  0.00  0.00    +0.000 C 
BRANCH  33  34
ATOM     34  C   UNL     1       8.496   8.801  17.731  0.00  0.00    +0.000 C 
ATOM     35  C   UNL     1       8.335  10.288  17.936  0.00  0.00    +0.000 C 
ATOM     36  C   UNL     1       8.964   9.450  19.013  0.00  0.00    +0.000 C 
ENDBRANCH  33  34
ENDBRANCH  32  33
ENDBRANCH  26  32
ENDBRANCH  21  22
ENDBRANCH   7  21
TORSDOF 12
ENDMDL
MODEL 4
REMARK VINA RESULT:      -8.0      0.908      1.027
REMARK  Name = 
REMARK  13 active torsions:
REMARK  status: ('A' for Active; 'I' for Inactive)
REMARK    1  A    between atoms: C_1  and  O_2
REMARK    2  A    between atoms: O_2  and  C_3
REMARK    3  A    between atoms: C_8  and  O_9
REMARK    4  A    between atoms: O_9  and  C_10
REMARK    5  A    between atoms: C_10  and  C_11
REMARK    6  A    between atoms: C_11  and  N_12
REMARK    7  A    between atoms: N_18  and  C_19
REMARK    8  A    between atoms: C_19  and  C_20
REMARK    9  A    between atoms: C_23  and  O_24
REMARK   10  A    between atoms: O_24  and  C_25
REMARK   11  A    between atoms: C_28  and  O_29
REMARK   12  A    between atoms: O_29  and  C_30
REMARK   13  A    between atoms: C_30  and  C_31
REMARK                            x       y       z     vdW  Elec       q    Type
REMARK                         _______ _______ _______ _____ _____    ______ ____
ROOT
ATOM      1  N   UNL     1       2.020   7.622  19.576  0.00  0.00    +0.000 N 
ATOM      2  C   UNL     1       2.236   6.289  19.872  0.00  0.00    +0.000 A 
ATOM      3  C   UNL     1       1.168   5.524  20.563  0.00  0.00    +0.000 A 
ATOM      4  C   UNL     1       1.360   4.218  20.767  0.00  0.00    +0.000 A 
ATOM      5  C   UNL     1       2.628   3.573  20.377  0.00  0.00    +0.000 A 
ATOM      6  O   UNL     1       2.769   2.370  20.579  0.00  0.00    +0.000 OA
ATOM      7  N   UNL     1       3.575   4.407  19.809  0.00  0.00    +0.000 N 
ATOM      8  N   UNL     1       3.362   5.738  19.525  0.00  0.00    +0.000 NA
ATOM      9  H   UNL     1       1.106   7.980  19.834  0.00  0.00    +0.000 HD
ENDROOT
BRANCH   1  10
ATOM     10  C   UNL     1       2.477   8.163  18.291  0.00  0.00    +0.000 C 
BRANCH  10  11
ATOM     11  C   UNL     1       1.747   9.484  18.018  0.00  0.00    +0.000 C 
BRANCH  11  12
ATOM     12  O   UNL     1       0.966   9.900  19.134  0.00  0.00    +0.000 OA
BRANCH  12  18
ATOM     13  C   UNL     1      -0.980  11.423  19.578  0.00  0.00    +0.000 A 
ATOM     14  C   UNL     1      -2.195  11.910  19.070  0.00  0.00    +0.000 A 
ATOM     15  C   UNL     1      -2.757  11.369  17.916  0.00  0.00    +0.000 A 
ATOM     16  C   UNL     1      -2.085  10.361  17.233  0.00  0.00    +0.000 A 
ATOM     17  C   UNL     1      -0.843   9.918  17.691  0.00  0.00    +0.000 A 
ATOM     18  C   UNL     1      -0.266  10.447  18.855  0.00  0.00    +0.000 A 
BRANCH  13  20
ATOM     19  C   UNL     1      -0.716  11.205  21.920  0.00  0.00    +0.000 C 
ATOM     20  O   UNL     1      -0.467  11.956  20.731  0.00  0.00    +0.000 OA
ENDBRANCH  13  20
ENDBRANCH  12  18
ENDBRANCH  11  12
ENDBRANCH  10  11
ENDBRANCH   1  10
BRANCH   7  21
ATOM     21  C   UNL     1       4.910   3.897  19.528  0.00  0.00    +0.000 C 
BRANCH  21  22
ATOM     22  C   UNL     1       5.450   4.385  18.198  0.00  0.00    +0.000 A 
ATOM     23  C   UNL     1       5.195   3.675  17.023  0.00  0.00    +0.000 A 
ATOM     24  C   UNL     1       5.632   4.174  15.797  0.00  0.00    +0.000 A 
ATOM     25  C   UNL     1       6.353   5.373  15.716  0.00  0.00    +0.000 A 
ATOM     26  C   UNL     1       6.643   6.084  16.890  0.00  0.00    +0.000 A 
ATOM     27  C   UNL     1       6.178   5.585  18.116  0.00  0.00    +0.000 A 
BRANCH  25  28
ATOM     28  O   UNL     1       6.650   5.732  14.429  0.00  0.00    +0.000 OA
BRANCH  28  29
ATOM     29  C   UNL     1       7.340   4.793  13.625  0.00  0.00    +0.000 C 
ATOM     30  F   UNL     1       6.457   4.128  12.839  0.00  0.00    +0.000 F 
ATOM     31  F   UNL     1       8.128   5.513  12.778  0.00  0.00    +0.000 F 
ENDBRANCH  28  29
ENDBRANCH  25  28
BRANCH  26  32
ATOM     32  O   UNL     1       7.278   7.291  16.777  0.00  0.00    +0.000 OA
BRANCH  32  33
ATOM     33  C   UNL     1       8.185   7.650  17.822  0.00  0.00    +0.000 C 
BRANCH  33  34
ATOM     34  C   UNL     1       8.013   9.116  18.091  0.00  0.00    +0.000 C 
ATOM     35  C   UNL     1       8.844   9.791  19.155  0.00  0.00    +0.000 C 
ATOM     36  C   UNL     1       9.093  10.100  17.706  0.00  0.00    +0.000 C 
ENDBRANCH  33  34
ENDBRANCH  32  33
ENDBRANCH  26  32
ENDBRANCH  21  22
ENDBRANCH   7  21
TORSDOF 12
ENDMDL
MODEL 5
REMARK VINA RESULT:      -8.0      1.847      3.506
REMARK  Name = 
REMARK  13 active torsions:
REMARK  status: ('A' for Active; 'I' for Inactive)
REMARK    1  A    between atoms: C_1  and  O_2
REMARK    2  A    between atoms: O_2  and  C_3
REMARK    3  A    between atoms: C_8  and  O_9
REMARK    4  A    between atoms: O_9  and  C_10
REMARK    5  A    between atoms: C_10  and  C_11
REMARK    6  A    between atoms: C_11  and  N_12
REMARK    7  A    between atoms: N_18  and  C_19
REMARK    8  A    between atoms: C_19  and  C_20
REMARK    9  A    between atoms: C_23  and  O_24
REMARK   10  A    between atoms: O_24  and  C_25
REMARK   11  A    between atoms: C_28  and  O_29
REMARK   12  A    between atoms: O_29  and  C_30
REMARK   13  A    between atoms: C_30  and  C_31
REMARK                            x       y       z     vdW  Elec       q    Type
REMARK                         _______ _______ _______ _____ _____    ______ ____
ROOT
ATOM      1  N   UNL     1       1.853   7.003  20.014  0.00  0.00    +0.000 N 
ATOM      2  C   UNL     1       1.905   5.627  19.903  0.00  0.00    +0.000 A 
ATOM      3  C   UNL     1       0.836   4.813  20.536  0.00  0.00    +0.000 A 
ATOM      4  C   UNL     1       0.858   3.490  20.350  0.00  0.00    +0.000 A 
ATOM      5  C   UNL     1       1.953   2.853  19.595  0.00  0.00    +0.000 A 
ATOM      6  O   UNL     1       1.939   1.635  19.442  0.00  0.00    +0.000 OA
ATOM      7  N   UNL     1       2.930   3.710  19.117  0.00  0.00    +0.000 N 
ATOM      8  N   UNL     1       2.881   5.081  19.238  0.00  0.00    +0.000 NA
ATOM      9  H   UNL     1       1.044   7.367  20.507  0.00  0.00    +0.000 HD
ENDROOT
BRANCH   1  10
ATOM     10  C   UNL     1       2.211   7.837  18.860  0.00  0.00    +0.000 C 
BRANCH  10  11
ATOM     11  C   UNL     1       1.465   9.174  18.962  0.00  0.00    +0.000 C 
BRANCH  11  12
ATOM     12  O   UNL     1       0.509   9.170  20.017  0.00  0.00    +0.000 OA
BRANCH  12  18
ATOM     13  C   UNL     1      -0.715  11.083  21.089  0.00  0.00    +0.000 A 
ATOM     14  C   UNL     1      -1.615  12.138  20.867  0.00  0.00    +0.000 A 
ATOM     15  C   UNL     1      -2.277  12.270  19.649  0.00  0.00    +0.000 A 
ATOM     16  C   UNL     1      -2.011  11.370  18.622  0.00  0.00    +0.000 A 
ATOM     17  C   UNL     1      -1.066  10.360  18.809  0.00  0.00    +0.000 A 
ATOM     18  C   UNL     1      -0.396  10.208  20.032  0.00  0.00    +0.000 A 
BRANCH  13  20
ATOM     19  C   UNL     1      -0.907  10.410  23.350  0.00  0.00    +0.000 C 
ATOM     20  O   UNL     1      -0.101  10.963  22.308  0.00  0.00    +0.000 OA
ENDBRANCH  13  20
ENDBRANCH  12  18
ENDBRANCH  11  12
ENDBRANCH  10  11
ENDBRANCH   1  10
BRANCH   7  21
ATOM     21  C   UNL     1       4.125   3.163  18.489  0.00  0.00    +0.000 C 
BRANCH  21  22
ATOM     22  C   UNL     1       5.081   4.242  18.022  0.00  0.00    +0.000 A 
ATOM     23  C   UNL     1       5.914   4.896  18.932  0.00  0.00    +0.000 A 
ATOM     24  C   UNL     1       6.843   5.833  18.480  0.00  0.00    +0.000 A 
ATOM     25  C   UNL     1       6.945   6.157  17.120  0.00  0.00    +0.000 A 
ATOM     26  C   UNL     1       6.096   5.530  16.197  0.00  0.00    +0.000 A 
ATOM     27  C   UNL     1       5.181   4.572  16.659  0.00  0.00    +0.000 A 
BRANCH  25  28
ATOM     28  O   UNL     1       7.946   7.054  16.858  0.00  0.00    +0.000 OA
BRANCH  28  29
ATOM     29  C   UNL     1       8.046   8.193  17.693  0.00  0.00    +0.000 C 
ATOM     30  F   UNL     1       8.840   7.911  18.756  0.00  0.00    +0.000 F 
ATOM     31  F   UNL     1       8.706   9.143  16.973  0.00  0.00    +0.000 F 
ENDBRANCH  28  29
ENDBRANCH  25  28
BRANCH  26  32
ATOM     32  O   UNL     1       6.268   5.803  14.867  0.00  0.00    +0.000 OA
BRANCH  32  33
ATOM     33  C   UNL     1       7.063   4.887  14.111  0.00  0.00    +0.000 C 
BRANCH  33  34
ATOM     34  C   UNL     1       6.180   3.744  13.705  0.00  0.00    +0.000 C 
ATOM     35  C   UNL     1       5.133   3.941  12.636  0.00  0.00    +0.000 C 
ATOM     36  C   UNL     1       6.339   3.093  12.352  0.00  0.00    +0.000 C 
ENDBRANCH  33  34
ENDBRANCH  32  33
ENDBRANCH  26  32
ENDBRANCH  21  22
ENDBRANCH   7  21
TORSDOF 12
ENDMDL
MODEL 6
REMARK VINA RESULT:      -7.9      2.051      3.646
REMARK  Name = 
REMARK  13 active torsions:
REMARK  status: ('A' for Active; 'I' for Inactive)
REMARK    1  A    between atoms: C_1  and  O_2
REMARK    2  A    between atoms: O_2  and  C_3
REMARK    3  A    between atoms: C_8  and  O_9
REMARK    4  A    between atoms: O_9  and  C_10
REMARK    5  A    between atoms: C_10  and  C_11
REMARK    6  A    between atoms: C_11  and  N_12
REMARK    7  A    between atoms: N_18  and  C_19
REMARK    8  A    between atoms: C_19  and  C_20
REMARK    9  A    between atoms: C_23  and  O_24
REMARK   10  A    between atoms: O_24  and  C_25
REMARK   11  A    between atoms: C_28  and  O_29
REMARK   12  A    between atoms: O_29  and  C_30
REMARK   13  A    between atoms: C_30  and  C_31
REMARK                            x       y       z     vdW  Elec       q    Type
REMARK                         _______ _______ _______ _____ _____    ______ ____
ROOT
ATOM      1  N   UNL     1       2.048   6.724  20.921  0.00  0.00    +0.000 N 
ATOM      2  C   UNL     1       2.008   5.458  20.369  0.00  0.00    +0.000 A 
ATOM      3  C   UNL     1       1.563   4.320  21.212  0.00  0.00    +0.000 A 
ATOM      4  C   UNL     1       1.452   3.117  20.639  0.00  0.00    +0.000 A 
ATOM      5  C   UNL     1       1.829   2.918  19.227  0.00  0.00    +0.000 A 
ATOM      6  O   UNL     1       1.713   1.799  18.733  0.00  0.00    +0.000 OA
ATOM      7  N   UNL     1       2.299   4.041  18.567  0.00  0.00    +0.000 N 
ATOM      8  N   UNL     1       2.348   5.299  19.124  0.00  0.00    +0.000 NA
ATOM      9  H   UNL     1       1.729   6.787  21.883  0.00  0.00    +0.000 HD
ENDROOT
BRANCH   1  10
ATOM     10  C   UNL     1       1.612   7.877  20.124  0.00  0.00    +0.000 C 
BRANCH  10  11
ATOM     11  C   UNL     1       1.250   9.029  21.071  0.00  0.00    +0.000 C 
BRANCH  11  12
ATOM     12  O   UNL     1      -0.088   9.476  20.877  0.00  0.00    +0.000 OA
BRANCH  12  18
ATOM     13  C   UNL     1       0.379  11.816  20.094  0.00  0.00    +0.000 A 
ATOM     14  C   UNL     1       0.117  12.765  19.093  0.00  0.00    +0.000 A 
ATOM     15  C   UNL     1      -0.842  12.525  18.113  0.00  0.00    +0.000 A 
ATOM     16  C   UNL     1      -1.521  11.311  18.098  0.00  0.00    +0.000 A 
ATOM     17  C   UNL     1      -1.218  10.333  19.048  0.00  0.00    +0.000 A 
ATOM     18  C   UNL     1      -0.260  10.562  20.047  0.00  0.00    +0.000 A 
BRANCH  13  20
ATOM     19  C   UNL     1       2.110  13.251  20.832  0.00  0.00    +0.000 C 
ATOM     20  O   UNL     1       1.307  12.094  21.063  0.00  0.00    +0.000 OA
ENDBRANCH  13  20
ENDBRANCH  12  18
ENDBRANCH  11  12
ENDBRANCH  10  11
ENDBRANCH   1  10
BRANCH   7  21
ATOM     21  C   UNL     1       2.834   3.913  17.218  0.00  0.00    +0.000 C 
BRANCH  21  22
ATOM     22  C   UNL     1       4.093   4.732  17.013  0.00  0.00    +0.000 A 
ATOM     23  C   UNL     1       4.297   5.913  17.729  0.00  0.00    +0.000 A 
ATOM     24  C   UNL     1       5.492   6.618  17.588  0.00  0.00    +0.000 A 
ATOM     25  C   UNL     1       6.496   6.178  16.715  0.00  0.00    +0.000 A 
ATOM     26  C   UNL     1       6.295   5.008  15.967  0.00  0.00    +0.000 A 
ATOM     27  C   UNL     1       5.099   4.295  16.133  0.00  0.00    +0.000 A 
BRANCH  25  28
ATOM     28  O   UNL     1       7.616   6.964  16.749  0.00  0.00    +0.000 OA
BRANCH  28  29
ATOM     29  C   UNL     1       7.777   7.835  17.854  0.00  0.00    +0.000 C 
ATOM     30  F   UNL     1       8.605   7.267  18.766  0.00  0.00    +0.000 F 
ATOM     31  F   UNL     1       8.431   8.935  17.387  0.00  0.00    +0.000 F 
ENDBRANCH  28  29
ENDBRANCH  25  28
BRANCH  26  32
ATOM     32  O   UNL     1       7.321   4.556  15.183  0.00  0.00    +0.000 OA
BRANCH  32  33
ATOM     33  C   UNL     1       7.288   4.911  13.798  0.00  0.00    +0.000 C 
BRANCH  33  34
ATOM     34  C   UNL     1       6.947   3.675  13.019  0.00  0.00    +0.000 C 
ATOM     35  C   UNL     1       5.558   3.496  12.457  0.00  0.00    +0.000 C 
ATOM     36  C   UNL     1       6.712   3.747  11.529  0.00  0.00    +0.000 C 
ENDBRANCH  33  34
ENDBRANCH  32  33
ENDBRANCH  26  32
ENDBRANCH  21  22
ENDBRANCH   7  21
TORSDOF 12
ENDMDL
MODEL 7
REMARK VINA RESULT:      -7.8      0.848      1.032
REMARK  Name = 
REMARK  13 active torsions:
REMARK  status: ('A' for Active; 'I' for Inactive)
REMARK    1  A    between atoms: C_1  and  O_2
REMARK    2  A    between atoms: O_2  and  C_3
REMARK    3  A    between atoms: C_8  and  O_9
REMARK    4  A    between atoms: O_9  and  C_10
REMARK    5  A    between atoms: C_10  and  C_11
REMARK    6  A    between atoms: C_11  and  N_12
REMARK    7  A    between atoms: N_18  and  C_19
REMARK    8  A    between atoms: C_19  and  C_20
REMARK    9  A    between atoms: C_23  and  O_24
REMARK   10  A    between atoms: O_24  and  C_25
REMARK   11  A    between atoms: C_28  and  O_29
REMARK   12  A    between atoms: O_29  and  C_30
REMARK   13  A    between atoms: C_30  and  C_31
REMARK                            x       y       z     vdW  Elec       q    Type
REMARK                         _______ _______ _______ _____ _____    ______ ____
ROOT
ATOM      1  N   UNL     1       1.543   6.429  20.851  0.00  0.00    +0.000 N 
ATOM      2  C   UNL     1       1.943   5.183  20.408  0.00  0.00    +0.000 A 
ATOM      3  C   UNL     1       0.933   4.101  20.295  0.00  0.00    +0.000 A 
ATOM      4  C   UNL     1       1.320   2.928  19.788  0.00  0.00    +0.000 A 
ATOM      5  C   UNL     1       2.729   2.696  19.417  0.00  0.00    +0.000 A 
ATOM      6  O   UNL     1       3.049   1.604  18.952  0.00  0.00    +0.000 OA
ATOM      7  N   UNL     1       3.590   3.756  19.638  0.00  0.00    +0.000 N 
ATOM      8  N   UNL     1       3.190   4.994  20.090  0.00  0.00    +0.000 NA
ATOM      9  H   UNL     1       0.550   6.523  21.041  0.00  0.00    +0.000 HD
ENDROOT
BRANCH   1  10
ATOM     10  C   UNL     1       2.095   7.635  20.221  0.00  0.00    +0.000 C 
BRANCH  10  11
ATOM     11  C   UNL     1       1.185   8.827  20.544  0.00  0.00    +0.000 C 
BRANCH  11  12
ATOM     12  O   UNL     1       1.120   9.754  19.465  0.00  0.00    +0.000 OA
BRANCH  12  18
ATOM     13  C   UNL     1       0.296  11.951  20.357  0.00  0.00    +0.000 A 
ATOM     14  C   UNL     1      -0.721  12.916  20.271  0.00  0.00    +0.000 A 
ATOM     15  C   UNL     1      -1.867  12.682  19.514  0.00  0.00    +0.000 A 
ATOM     16  C   UNL     1      -1.988  11.496  18.799  0.00  0.00    +0.000 A 
ATOM     17  C   UNL     1      -0.951  10.561  18.822  0.00  0.00    +0.000 A 
ATOM     18  C   UNL     1       0.206  10.777  19.585  0.00  0.00    +0.000 A 
BRANCH  13  20
ATOM     19  C   UNL     1       2.192  13.316  20.738  0.00  0.00    +0.000 C 
ATOM     20  O   UNL     1       1.397  12.198  21.133  0.00  0.00    +0.000 OA
ENDBRANCH  13  20
ENDBRANCH  12  18
ENDBRANCH  11  12
ENDBRANCH  10  11
ENDBRANCH   1  10
BRANCH   7  21
ATOM     21  C   UNL     1       5.023   3.576  19.444  0.00  0.00    +0.000 C 
BRANCH  21  22
ATOM     22  C   UNL     1       5.507   4.154  18.130  0.00  0.00    +0.000 A 
ATOM     23  C   UNL     1       5.319   3.458  16.934  0.00  0.00    +0.000 A 
ATOM     24  C   UNL     1       5.701   4.034  15.723  0.00  0.00    +0.000 A 
ATOM     25  C   UNL     1       6.301   5.300  15.678  0.00  0.00    +0.000 A 
ATOM     26  C   UNL     1       6.523   6.000  16.872  0.00  0.00    +0.000 A 
ATOM     27  C   UNL     1       6.114   5.422  18.083  0.00  0.00    +0.000 A 
BRANCH  25  28
ATOM     28  O   UNL     1       6.557   5.724  14.401  0.00  0.00    +0.000 OA
BRANCH  28  29
ATOM     29  C   UNL     1       7.412   4.929  13.601  0.00  0.00    +0.000 C 
ATOM     30  F   UNL     1       6.746   4.513  12.495  0.00  0.00    +0.000 F 
ATOM     31  F   UNL     1       8.402   5.752  13.156  0.00  0.00    +0.000 F 
ENDBRANCH  28  29
ENDBRANCH  25  28
BRANCH  26  32
ATOM     32  O   UNL     1       7.036   7.267  16.796  0.00  0.00    +0.000 OA
BRANCH  32  33
ATOM     33  C   UNL     1       8.089   7.599  17.703  0.00  0.00    +0.000 C 
BRANCH  33  34
ATOM     34  C   UNL     1       7.934   9.045  18.072  0.00  0.00    +0.000 C 
ATOM     35  C   UNL     1       8.893   9.682  19.048  0.00  0.00    +0.000 C 
ATOM     36  C   UNL     1       8.936  10.071  17.597  0.00  0.00    +0.000 C 
ENDBRANCH  33  34
ENDBRANCH  32  33
ENDBRANCH  26  32
ENDBRANCH  21  22
ENDBRANCH   7  21
TORSDOF 12
ENDMDL
MODEL 8
REMARK VINA RESULT:      -7.7      3.936      7.241
REMARK  Name = 
REMARK  13 active torsions:
REMARK  status: ('A' for Active; 'I' for Inactive)
REMARK    1  A    between atoms: C_1  and  O_2
REMARK    2  A    between atoms: O_2  and  C_3
REMARK    3  A    between atoms: C_8  and  O_9
REMARK    4  A    between atoms: O_9  and  C_10
REMARK    5  A    between atoms: C_10  and  C_11
REMARK    6  A    between atoms: C_11  and  N_12
REMARK    7  A    between atoms: N_18  and  C_19
REMARK    8  A    between atoms: C_19  and  C_20
REMARK    9  A    between atoms: C_23  and  O_24
REMARK   10  A    between atoms: O_24  and  C_25
REMARK   11  A    between atoms: C_28  and  O_29
REMARK   12  A    between atoms: O_29  and  C_30
REMARK   13  A    between atoms: C_30  and  C_31
REMARK                            x       y       z     vdW  Elec       q    Type
REMARK                         _______ _______ _______ _____ _____    ______ ____
ROOT
ATOM      1  N   UNL     1      -2.261  11.896  17.481  0.00  0.00    +0.000 N 
ATOM      2  C   UNL     1      -1.189  11.935  18.353  0.00  0.00    +0.000 A 
ATOM      3  C   UNL     1      -0.376  13.174  18.439  0.00  0.00    +0.000 A 
ATOM      4  C   UNL     1       0.604  13.223  19.345  0.00  0.00    +0.000 A 
ATOM      5  C   UNL     1       0.912  12.051  20.186  0.00  0.00    +0.000 A 
ATOM      6  O   UNL     1       1.820  12.132  21.009  0.00  0.00    +0.000 OA
ATOM      7  N   UNL     1       0.132  10.929  19.961  0.00  0.00    +0.000 N 
ATOM      8  N   UNL     1      -0.929  10.891  19.083  0.00  0.00    +0.000 NA
ATOM      9  H   UNL     1      -2.437  12.757  16.973  0.00  0.00    +0.000 HD
ENDROOT
BRANCH   1  10
ATOM     10  C   UNL     1      -3.508  11.241  17.894  0.00  0.00    +0.000 C 
BRANCH  10  11
ATOM     11  C   UNL     1      -4.680  11.879  17.137  0.00  0.00    +0.000 C 
BRANCH  11  12
ATOM     12  O   UNL     1      -5.912  11.221  17.413  0.00  0.00    +0.000 OA
BRANCH  12  18
ATOM     13  C   UNL     1      -7.008  10.590  19.582  0.00  0.00    +0.000 A 
ATOM     14  C   UNL     1      -7.490  11.075  20.808  0.00  0.00    +0.000 A 
ATOM     15  C   UNL     1      -7.568  12.443  21.056  0.00  0.00    +0.000 A 
ATOM     16  C   UNL     1      -7.121  13.342  20.093  0.00  0.00    +0.000 A 
ATOM     17  C   UNL     1      -6.575  12.868  18.899  0.00  0.00    +0.000 A 
ATOM     18  C   UNL     1      -6.497  11.493  18.630  0.00  0.00    +0.000 A 
BRANCH  13  20
ATOM     19  C   UNL     1      -7.484   8.425  20.412  0.00  0.00    +0.000 C 
ATOM     20  O   UNL     1      -6.972   9.239  19.357  0.00  0.00    +0.000 OA
ENDBRANCH  13  20
ENDBRANCH  12  18
ENDBRANCH  11  12
ENDBRANCH  10  11
ENDBRANCH   1  10
BRANCH   7  21
ATOM     21  C   UNL     1       0.454   9.679  20.634  0.00  0.00    +0.000 C 
BRANCH  21  22
ATOM     22  C   UNL     1       1.295   8.756  19.775  0.00  0.00    +0.000 A 
ATOM     23  C   UNL     1       1.695   9.145  18.495  0.00  0.00    +0.000 A 
ATOM     24  C   UNL     1       2.531   8.320  17.743  0.00  0.00    +0.000 A 
ATOM     25  C   UNL     1       2.964   7.082  18.237  0.00  0.00    +0.000 A 
ATOM     26  C   UNL     1       2.549   6.664  19.509  0.00  0.00    +0.000 A 
ATOM     27  C   UNL     1       1.726   7.511  20.266  0.00  0.00    +0.000 A 
BRANCH  25  28
ATOM     28  O   UNL     1       3.820   6.438  17.384  0.00  0.00    +0.000 OA
BRANCH  28  29
ATOM     29  C   UNL     1       4.786   7.218  16.704  0.00  0.00    +0.000 C 
ATOM     30  F   UNL     1       5.952   7.207  17.397  0.00  0.00    +0.000 F 
ATOM     31  F   UNL     1       5.042   6.579  15.528  0.00  0.00    +0.000 F 
ENDBRANCH  28  29
ENDBRANCH  25  28
BRANCH  26  32
ATOM     32  O   UNL     1       3.050   5.489  20.001  0.00  0.00    +0.000 OA
BRANCH  32  33
ATOM     33  C   UNL     1       2.745   4.296  19.275  0.00  0.00    +0.000 C 
BRANCH  33  34
ATOM     34  C   UNL     1       2.450   3.216  20.275  0.00  0.00    +0.000 C 
ATOM     35  C   UNL     1       2.162   3.577  21.712  0.00  0.00    +0.000 C 
ATOM     36  C   UNL     1       1.058   3.052  20.839  0.00  0.00    +0.000 C 
ENDBRANCH  33  34
ENDBRANCH  32  33
ENDBRANCH  26  32
ENDBRANCH  21  22
ENDBRANCH   7  21
TORSDOF 12
ENDMDL
MODEL 9
REMARK VINA RESULT:      -7.6      1.392      1.793
REMARK  Name = 
REMARK  13 active torsions:
REMARK  status: ('A' for Active; 'I' for Inactive)
REMARK    1  A    between atoms: C_1  and  O_2
REMARK    2  A    between atoms: O_2  and  C_3
REMARK    3  A    between atoms: C_8  and  O_9
REMARK    4  A    between atoms: O_9  and  C_10
REMARK    5  A    between atoms: C_10  and  C_11
REMARK    6  A    between atoms: C_11  and  N_12
REMARK    7  A    between atoms: N_18  and  C_19
REMARK    8  A    between atoms: C_19  and  C_20
REMARK    9  A    between atoms: C_23  and  O_24
REMARK   10  A    between atoms: O_24  and  C_25
REMARK   11  A    between atoms: C_28  and  O_29
REMARK   12  A    between atoms: O_29  and  C_30
REMARK   13  A    between atoms: C_30  and  C_31
REMARK                            x       y       z     vdW  Elec       q    Type
REMARK                         _______ _______ _______ _____ _____    ______ ____
ROOT
ATOM      1  N   UNL     1       2.638   7.678  19.020  0.00  0.00    +0.000 N 
ATOM      2  C   UNL     1       2.489   6.335  19.310  0.00  0.00    +0.000 A 
ATOM      3  C   UNL     1       1.943   5.941  20.632  0.00  0.00    +0.000 A 
ATOM      4  C   UNL     1       1.728   4.642  20.863  0.00  0.00    +0.000 A 
ATOM      5  C   UNL     1       2.092   3.628  19.856  0.00  0.00    +0.000 A 
ATOM      6  O   UNL     1       1.879   2.443  20.103  0.00  0.00    +0.000 OA
ATOM      7  N   UNL     1       2.662   4.115  18.693  0.00  0.00    +0.000 N 
ATOM      8  N   UNL     1       2.819   5.454  18.412  0.00  0.00    +0.000 NA
ATOM      9  H   UNL     1       2.322   8.315  19.745  0.00  0.00    +0.000 HD
ENDROOT
BRANCH   1  10
ATOM     10  C   UNL     1       2.310   8.172  17.678  0.00  0.00    +0.000 C 
BRANCH  10  11
ATOM     11  C   UNL     1       1.497   9.466  17.808  0.00  0.00    +0.000 C 
BRANCH  11  12
ATOM     12  O   UNL     1       1.226   9.789  19.168  0.00  0.00    +0.000 OA
BRANCH  12  18
ATOM     13  C   UNL     1       0.140  11.753  20.295  0.00  0.00    +0.000 A 
ATOM     14  C   UNL     1      -0.994  12.582  20.315  0.00  0.00    +0.000 A 
ATOM     15  C   UNL     1      -2.111  12.285  19.538  0.00  0.00    +0.000 A 
ATOM     16  C   UNL     1      -2.089  11.177  18.697  0.00  0.00    +0.000 A 
ATOM     17  C   UNL     1      -0.941  10.387  18.618  0.00  0.00    +0.000 A 
ATOM     18  C   UNL     1       0.190  10.667  19.399  0.00  0.00    +0.000 A 
BRANCH  13  20
ATOM     19  C   UNL     1       1.803  13.334  20.873  0.00  0.00    +0.000 C 
ATOM     20  O   UNL     1       1.212  12.054  21.093  0.00  0.00    +0.000 OA
ENDBRANCH  13  20
ENDBRANCH  12  18
ENDBRANCH  11  12
ENDBRANCH  10  11
ENDBRANCH   1  10
BRANCH   7  21
ATOM     21  C   UNL     1       3.190   3.184  17.704  0.00  0.00    +0.000 C 
BRANCH  21  22
ATOM     22  C   UNL     1       4.422   3.719  17.003  0.00  0.00    +0.000 A 
ATOM     23  C   UNL     1       4.418   3.935  15.623  0.00  0.00    +0.000 A 
ATOM     24  C   UNL     1       5.531   4.499  15.001  0.00  0.00    +0.000 A 
ATOM     25  C   UNL     1       6.679   4.835  15.732  0.00  0.00    +0.000 A 
ATOM     26  C   UNL     1       6.710   4.599  17.114  0.00  0.00    +0.000 A 
ATOM     27  C   UNL     1       5.576   4.052  17.734  0.00  0.00    +0.000 A 
BRANCH  25  28
ATOM     28  O   UNL     1       7.647   5.425  14.965  0.00  0.00    +0.000 OA
BRANCH  28  29
ATOM     29  C   UNL     1       7.508   5.354  13.557  0.00  0.00    +0.000 C 
ATOM     30  F   UNL     1       8.653   5.773  12.963  0.00  0.00    +0.000 F 
ATOM     31  F   UNL     1       7.385   4.033  13.247  0.00  0.00    +0.000 F 
ENDBRANCH  28  29
ENDBRANCH  25  28
BRANCH  26  32
ATOM     32  O   UNL     1       7.810   5.009  17.818  0.00  0.00    +0.000 OA
BRANCH  32  33
ATOM     33  C   UNL     1       7.677   6.199  18.598  0.00  0.00    +0.000 C 
BRANCH  33  34
ATOM     34  C   UNL     1       8.062   7.360  17.728  0.00  0.00    +0.000 C 
ATOM     35  C   UNL     1       7.106   8.513  17.542  0.00  0.00    +0.000 C 
ATOM     36  C   UNL     1       8.366   8.708  18.337  0.00  0.00    +0.000 C 
ENDBRANCH  33  34
ENDBRANCH  32  33
ENDBRANCH  26  32
ENDBRANCH  21  22
ENDBRANCH   7  21
TORSDOF 12
ENDMDL
