MODEL 1
REMARK VINA RESULT:      -7.0      0.000      0.000
REMARK  Name = 
REMARK  8 active torsions:
REMARK  status: ('A' for Active; 'I' for Inactive)
REMARK    1  A    between atoms: C_1  and  O_2
REMARK    2  A    between atoms: O_2  and  C_3
REMARK    3  A    between atoms: C_5  and  C_6
REMARK    4  A    between atoms: C_7  and  C_8
REMARK    5  A    between atoms: C_16  and  O_17
REMARK    6  A    between atoms: O_17  and  C_18
REMARK    7  A    between atoms: C_19  and  O_20
REMARK    8  A    between atoms: O_20  and  C_21
REMARK                            x       y       z     vdW  Elec       q    Type
REMARK                         _______ _______ _______ _____ _____    ______ ____
ROOT
ATOM      1  C   UNL     1       5.991   4.090  14.663  0.00  0.00    +0.000 A 
ATOM      2  C   UNL     1       4.904   3.937  15.538  0.00  0.00    +0.000 A 
ATOM      3  C   UNL     1       4.737   4.772  16.635  0.00  0.00    +0.000 A 
ATOM      4  C   UNL     1       5.748   5.689  16.923  0.00  0.00    +0.000 A 
ATOM      5  C   UNL     1       6.896   5.801  16.119  0.00  0.00    +0.000 A 
ATOM      6  C   UNL     1       7.022   5.009  14.957  0.00  0.00    +0.000 A 
ENDROOT
BRANCH   1   8
ATOM      7  C   UNL     1       5.038   3.599  12.553  0.00  0.00    +0.000 C 
ATOM      8  O   UNL     1       6.049   3.323  13.525  0.00  0.00    +0.000 OA
ENDBRANCH   1   8
BRANCH   3   9
ATOM      9  C   UNL     1       3.487   4.810  17.406  0.00  0.00    +0.000 C 
ATOM     10  C   UNL     1       3.388   4.945  18.740  0.00  0.00    +0.000 C 
BRANCH  10  11
ATOM     11  C   UNL     1       2.109   4.971  19.554  0.00  0.00    +0.000 C 
ATOM     12  C   UNL     1       2.188   4.498  21.001  0.00  0.00    +0.000 C 
ATOM     13  C   UNL     1       2.413   3.011  21.010  0.00  0.00    +0.000 C 
ATOM     14  O   UNL     1       3.048   2.444  21.896  0.00  0.00    +0.000 OA
ATOM     15  C   UNL     1       1.775   2.227  19.938  0.00  0.00    +0.000 C 
ATOM     16  C   UNL     1       1.141   2.887  18.972  0.00  0.00    +0.000 C 
ATOM     17  O   UNL     1       1.101   4.254  18.820  0.00  0.00    +0.000 OA
ENDBRANCH  10  11
ENDBRANCH   3   9
BRANCH   5  18
ATOM     18  O   UNL     1       7.749   6.758  16.611  0.00  0.00    +0.000 OA
ATOM     19  C   UNL     1       7.282   7.685  17.577  0.00  0.00    +0.000 C 
ENDBRANCH   5  18
BRANCH   6  20
ATOM     20  O   UNL     1       8.157   5.196  14.216  0.00  0.00    +0.000 OA
ATOM     21  C   UNL     1       8.079   5.740  12.910  0.00  0.00    +0.000 C 
ENDBRANCH   6  20
TORSDOF 5
ENDMDL
MODEL 2
REMARK VINA RESULT:      -6.9      4.145      6.296
REMARK  Name = 
REMARK  8 active torsions:
REMARK  status: ('A' for Active; 'I' for Inactive)
REMARK    1  A    between atoms: C_1  and  O_2
REMARK    2  A    between atoms: O_2  and  C_3
REMARK    3  A    between atoms: C_5  and  C_6
REMARK    4  A    between atoms: C_7  and  C_8
REMARK    5  A    between atoms: C_16  and  O_17
REMARK    6  A    between atoms: O_17  and  C_18
REMARK    7  A    between atoms: C_19  and  O_20
REMARK    8  A    between atoms: O_20  and  C_21
REMARK                            x       y       z     vdW  Elec       q    Type
REMARK                         _______ _______ _______ _____ _____    ______ ____
ROOT
ATOM      1  C   UNL     1       3.019   4.792  19.714  0.00  0.00    +0.000 A 
ATOM      2  C   UNL     1       2.708   6.134  19.447  0.00  0.00    +0.000 A 
ATOM      3  C   UNL     1       3.160   6.765  18.295  0.00  0.00    +0.000 A 
ATOM      4  C   UNL     1       4.042   6.069  17.468  0.00  0.00    +0.000 A 
ATOM      5  C   UNL     1       4.448   4.756  17.759  0.00  0.00    +0.000 A 
ATOM      6  C   UNL     1       3.921   4.089  18.886  0.00  0.00    +0.000 A 
ENDROOT
BRANCH   1   8
ATOM      7  C   UNL     1       1.106   3.727  20.611  0.00  0.00    +0.000 C 
ATOM      8  O   UNL     1       2.450   4.176  20.801  0.00  0.00    +0.000 OA
ENDBRANCH   1   8
BRANCH   3   9
ATOM      9  C   UNL     1       2.640   8.068  17.861  0.00  0.00    +0.000 C 
ATOM     10  C   UNL     1       1.727   8.811  18.512  0.00  0.00    +0.000 C 
BRANCH  10  11
ATOM     11  C   UNL     1       1.168  10.149  18.071  0.00  0.00    +0.000 C 
ATOM     12  C   UNL     1       1.546  11.375  18.894  0.00  0.00    +0.000 C 
ATOM     13  C   UNL     1       0.860  11.290  20.229  0.00  0.00    +0.000 C 
ATOM     14  O   UNL     1       1.350  11.755  21.255  0.00  0.00    +0.000 OA
ATOM     15  C   UNL     1      -0.482  10.680  20.258  0.00  0.00    +0.000 C 
ATOM     16  C   UNL     1      -0.951  10.145  19.135  0.00  0.00    +0.000 C 
ATOM     17  O   UNL     1      -0.260  10.015  17.952  0.00  0.00    +0.000 OA
ENDBRANCH  10  11
ENDBRANCH   3   9
BRANCH   5  18
ATOM     18  O   UNL     1       5.326   4.290  16.811  0.00  0.00    +0.000 OA
ATOM     19  C   UNL     1       6.711   4.569  16.940  0.00  0.00    +0.000 C 
ENDBRANCH   5  18
BRANCH   6  20
ATOM     20  O   UNL     1       4.347   2.804  19.086  0.00  0.00    +0.000 OA
ATOM     21  C   UNL     1       3.591   1.712  18.591  0.00  0.00    +0.000 C 
ENDBRANCH   6  20
TORSDOF 5
ENDMDL
MODEL 3
REMARK VINA RESULT:      -6.8      1.005      1.641
REMARK  Name = 
REMARK  8 active torsions:
REMARK  status: ('A' for Active; 'I' for Inactive)
REMARK    1  A    between atoms: C_1  and  O_2
REMARK    2  A    between atoms: O_2  and  C_3
REMARK    3  A    between atoms: C_5  and  C_6
REMARK    4  A    between atoms: C_7  and  C_8
REMARK    5  A    between atoms: C_16  and  O_17
REMARK    6  A    between atoms: O_17  and  C_18
REMARK    7  A    between atoms: C_19  and  O_20
REMARK    8  A    between atoms: O_20  and  C_21
REMARK                            x       y       z     vdW  Elec       q    Type
REMARK                         _______ _______ _______ _____ _____    ______ ____
ROOT
ATOM      1  C   UNL     1       6.181   3.993  14.440  0.00  0.00    +0.000 A 
ATOM      2  C   UNL     1       5.108   3.634  15.270  0.00  0.00    +0.000 A 
ATOM      3  C   UNL     1       4.814   4.352  16.422  0.00  0.00    +0.000 A 
ATOM      4  C   UNL     1       5.692   5.366  16.805  0.00  0.00    +0.000 A 
ATOM      5  C   UNL     1       6.829   5.686  16.044  0.00  0.00    +0.000 A 
ATOM      6  C   UNL     1       7.078   5.010  14.830  0.00  0.00    +0.000 A 
ENDROOT
BRANCH   1   8
ATOM      7  C   UNL     1       5.264   3.423  12.333  0.00  0.00    +0.000 C 
ATOM      8  O   UNL     1       6.358   3.330  13.250  0.00  0.00    +0.000 OA
ENDBRANCH   1   8
BRANCH   3   9
ATOM      9  C   UNL     1       3.557   4.169  17.159  0.00  0.00    +0.000 C 
ATOM     10  C   UNL     1       3.250   3.124  17.948  0.00  0.00    +0.000 C 
BRANCH  10  11
ATOM     11  C   UNL     1       1.953   2.911  18.704  0.00  0.00    +0.000 C 
ATOM     12  C   UNL     1       1.172   4.151  19.124  0.00  0.00    +0.000 C 
ATOM     13  C   UNL     1       1.936   4.856  20.211  0.00  0.00    +0.000 C 
ATOM     14  O   UNL     1       1.902   6.075  20.359  0.00  0.00    +0.000 OA
ATOM     15  C   UNL     1       2.686   4.014  21.160  0.00  0.00    +0.000 C 
ATOM     16  C   UNL     1       2.736   2.705  20.931  0.00  0.00    +0.000 C 
ATOM     17  O   UNL     1       2.230   2.057  19.828  0.00  0.00    +0.000 OA
ENDBRANCH  10  11
ENDBRANCH   3   9
BRANCH   5  18
ATOM     18  O   UNL     1       7.543   6.704  16.630  0.00  0.00    +0.000 OA
ATOM     19  C   UNL     1       7.621   6.782  18.044  0.00  0.00    +0.000 C 
ENDBRANCH   5  18
BRANCH   6  20
ATOM     20  O   UNL     1       8.192   5.398  14.137  0.00  0.00    +0.000 OA
ATOM     21  C   UNL     1       8.101   5.732  12.762  0.00  0.00    +0.000 C 
ENDBRANCH   6  20
TORSDOF 5
ENDMDL
MODEL 4
REMARK VINA RESULT:      -6.8      4.220      6.301
REMARK  Name = 
REMARK  8 active torsions:
REMARK  status: ('A' for Active; 'I' for Inactive)
REMARK    1  A    between atoms: C_1  and  O_2
REMARK    2  A    between atoms: O_2  and  C_3
REMARK    3  A    between atoms: C_5  and  C_6
REMARK    4  A    between atoms: C_7  and  C_8
REMARK    5  A    between atoms: C_16  and  O_17
REMARK    6  A    between atoms: O_17  and  C_18
REMARK    7  A    between atoms: C_19  and  O_20
REMARK    8  A    between atoms: O_20  and  C_21
REMARK                            x       y       z     vdW  Elec       q    Type
REMARK                         _______ _______ _______ _____ _____    ______ ____
ROOT
ATOM      1  C   UNL     1       4.869   5.313  18.047  0.00  0.00    +0.000 A 
ATOM      2  C   UNL     1       4.153   6.391  17.504  0.00  0.00    +0.000 A 
ATOM      3  C   UNL     1       3.024   6.898  18.132  0.00  0.00    +0.000 A 
ATOM      4  C   UNL     1       2.538   6.226  19.254  0.00  0.00    +0.000 A 
ATOM      5  C   UNL     1       3.179   5.084  19.766  0.00  0.00    +0.000 A 
ATOM      6  C   UNL     1       4.374   4.622  19.174  0.00  0.00    +0.000 A 
ENDROOT
BRANCH   1   8
ATOM      7  C   UNL     1       7.005   5.970  17.269  0.00  0.00    +0.000 C 
ATOM      8  O   UNL     1       6.047   4.925  17.457  0.00  0.00    +0.000 OA
ENDBRANCH   1   8
BRANCH   3   9
ATOM      9  C   UNL     1       2.416   8.176  17.739  0.00  0.00    +0.000 C 
ATOM     10  C   UNL     1       1.773   9.029  18.556  0.00  0.00    +0.000 C 
BRANCH  10  11
ATOM     11  C   UNL     1       1.127  10.343  18.165  0.00  0.00    +0.000 C 
ATOM     12  C   UNL     1       1.460  11.569  19.007  0.00  0.00    +0.000 C 
ATOM     13  C   UNL     1       0.820  11.414  20.359  0.00  0.00    +0.000 C 
ATOM     14  O   UNL     1       1.313  11.882  21.382  0.00  0.00    +0.000 OA
ATOM     15  C   UNL     1      -0.484  10.728  20.411  0.00  0.00    +0.000 C 
ATOM     16  C   UNL     1      -0.956  10.194  19.288  0.00  0.00    +0.000 C 
ATOM     17  O   UNL     1      -0.294  10.132  18.082  0.00  0.00    +0.000 OA
ENDBRANCH  10  11
ENDBRANCH   3   9
BRANCH   5  18
ATOM     18  O   UNL     1       2.508   4.592  20.860  0.00  0.00    +0.000 OA
ATOM     19  C   UNL     1       1.226   4.011  20.693  0.00  0.00    +0.000 C 
ENDBRANCH   5  18
BRANCH   6  20
ATOM     20  O   UNL     1       4.949   3.520  19.748  0.00  0.00    +0.000 OA
ATOM     21  C   UNL     1       4.361   2.240  19.590  0.00  0.00    +0.000 C 
ENDBRANCH   6  20
TORSDOF 5
ENDMDL
MODEL 5
REMARK VINA RESULT:      -6.7      3.899      6.125
REMARK  Name = 
REMARK  8 active torsions:
REMARK  status: ('A' for Active; 'I' for Inactive)
REMARK    1  A    between atoms: C_1  and  O_2
REMARK    2  A    between atoms: O_2  and  C_3
REMARK    3  A    between atoms: C_5  and  C_6
REMARK    4  A    between atoms: C_7  and  C_8
REMARK    5  A    between atoms: C_16  and  O_17
REMARK    6  A    between atoms: O_17  and  C_18
REMARK    7  A    between atoms: C_19  and  O_20
REMARK    8  A    between atoms: O_20  and  C_21
REMARK                            x       y       z     vdW  Elec       q    Type
REMARK                         _______ _______ _______ _____ _____    ______ ____
ROOT
ATOM      1  C   UNL     1       4.959   4.846  18.388  0.00  0.00    +0.000 A 
ATOM      2  C   UNL     1       4.604   6.148  18.003  0.00  0.00    +0.000 A 
ATOM      3  C   UNL     1       3.281   6.570  18.015  0.00  0.00    +0.000 A 
ATOM      4  C   UNL     1       2.293   5.626  18.298  0.00  0.00    +0.000 A 
ATOM      5  C   UNL     1       2.611   4.289  18.594  0.00  0.00    +0.000 A 
ATOM      6  C   UNL     1       3.962   3.885  18.663  0.00  0.00    +0.000 A 
ENDROOT
BRANCH   1   8
ATOM      7  C   UNL     1       7.053   4.741  17.291  0.00  0.00    +0.000 C 
ATOM      8  O   UNL     1       6.288   4.513  18.477  0.00  0.00    +0.000 OA
ENDBRANCH   1   8
BRANCH   3   9
ATOM      9  C   UNL     1       2.908   7.984  17.876  0.00  0.00    +0.000 C 
ATOM     10  C   UNL     1       1.705   8.514  18.158  0.00  0.00    +0.000 C 
BRANCH  10  11
ATOM     11  C   UNL     1       1.298   9.966  18.006  0.00  0.00    +0.000 C 
ATOM     12  C   UNL     1       1.660  10.921  19.138  0.00  0.00    +0.000 C 
ATOM     13  C   UNL     1       0.814  10.589  20.336  0.00  0.00    +0.000 C 
ATOM     14  O   UNL     1       1.208  10.749  21.489  0.00  0.00    +0.000 OA
ATOM     15  C   UNL     1      -0.561  10.124  20.081  0.00  0.00    +0.000 C 
ATOM     16  C   UNL     1      -0.928   9.918  18.819  0.00  0.00    +0.000 C 
ATOM     17  O   UNL     1      -0.111  10.005  17.715  0.00  0.00    +0.000 OA
ENDBRANCH  10  11
ENDBRANCH   3   9
BRANCH   5  18
ATOM     18  O   UNL     1       1.475   3.552  18.822  0.00  0.00    +0.000 OA
ATOM     19  C   UNL     1       0.882   3.555  20.110  0.00  0.00    +0.000 C 
ENDBRANCH   5  18
BRANCH   6  20
ATOM     20  O   UNL     1       4.188   2.573  18.982  0.00  0.00    +0.000 OA
ATOM     21  C   UNL     1       4.413   2.191  20.328  0.00  0.00    +0.000 C 
ENDBRANCH   6  20
TORSDOF 5
ENDMDL
MODEL 6
REMARK VINA RESULT:      -6.6      1.057      3.075
REMARK  Name = 
REMARK  8 active torsions:
REMARK  status: ('A' for Active; 'I' for Inactive)
REMARK    1  A    between atoms: C_1  and  O_2
REMARK    2  A    between atoms: O_2  and  C_3
REMARK    3  A    between atoms: C_5  and  C_6
REMARK    4  A    between atoms: C_7  and  C_8
REMARK    5  A    between atoms: C_16  and  O_17
REMARK    6  A    between atoms: O_17  and  C_18
REMARK    7  A    between atoms: C_19  and  O_20
REMARK    8  A    between atoms: O_20  and  C_21
REMARK                            x       y       z     vdW  Elec       q    Type
REMARK                         _______ _______ _______ _____ _____    ______ ____
ROOT
ATOM      1  C   UNL     1       6.709   5.616  16.066  0.00  0.00    +0.000 A 
ATOM      2  C   UNL     1       5.505   5.217  16.668  0.00  0.00    +0.000 A 
ATOM      3  C   UNL     1       4.736   4.191  16.135  0.00  0.00    +0.000 A 
ATOM      4  C   UNL     1       5.123   3.648  14.910  0.00  0.00    +0.000 A 
ATOM      5  C   UNL     1       6.273   4.093  14.234  0.00  0.00    +0.000 A 
ATOM      6  C   UNL     1       7.098   5.078  14.820  0.00  0.00    +0.000 A 
ENDROOT
BRANCH   1   8
ATOM      7  C   UNL     1       7.547   6.440  18.120  0.00  0.00    +0.000 C 
ATOM      8  O   UNL     1       7.496   6.549  16.695  0.00  0.00    +0.000 OA
ENDBRANCH   1   8
BRANCH   3   9
ATOM      9  C   UNL     1       3.625   3.579  16.876  0.00  0.00    +0.000 C 
ATOM     10  C   UNL     1       2.645   4.240  17.517  0.00  0.00    +0.000 C 
BRANCH  10  11
ATOM     11  C   UNL     1       1.501   3.626  18.298  0.00  0.00    +0.000 C 
ATOM     12  C   UNL     1       1.124   4.279  19.624  0.00  0.00    +0.000 C 
ATOM     13  C   UNL     1       2.222   4.018  20.618  0.00  0.00    +0.000 C 
ATOM     14  O   UNL     1       2.503   4.808  21.515  0.00  0.00    +0.000 OA
ATOM     15  C   UNL     1       2.921   2.723  20.524  0.00  0.00    +0.000 C 
ATOM     16  C   UNL     1       2.619   1.921  19.507  0.00  0.00    +0.000 C 
ATOM     17  O   UNL     1       1.776   2.223  18.462  0.00  0.00    +0.000 OA
ENDBRANCH  10  11
ENDBRANCH   3   9
BRANCH   5  18
ATOM     18  O   UNL     1       6.437   3.422  13.047  0.00  0.00    +0.000 OA
ATOM     19  C   UNL     1       5.346   3.308  12.149  0.00  0.00    +0.000 C 
ENDBRANCH   5  18
BRANCH   6  20
ATOM     20  O   UNL     1       8.211   5.438  14.111  0.00  0.00    +0.000 OA
ATOM     21  C   UNL     1       8.111   5.763  12.735  0.00  0.00    +0.000 C 
ENDBRANCH   6  20
TORSDOF 5
ENDMDL
MODEL 7
REMARK VINA RESULT:      -6.6      0.968      3.439
REMARK  Name = 
REMARK  8 active torsions:
REMARK  status: ('A' for Active; 'I' for Inactive)
REMARK    1  A    between atoms: C_1  and  O_2
REMARK    2  A    between atoms: O_2  and  C_3
REMARK    3  A    between atoms: C_5  and  C_6
REMARK    4  A    between atoms: C_7  and  C_8
REMARK    5  A    between atoms: C_16  and  O_17
REMARK    6  A    between atoms: O_17  and  C_18
REMARK    7  A    between atoms: C_19  and  O_20
REMARK    8  A    between atoms: O_20  and  C_21
REMARK                            x       y       z     vdW  Elec       q    Type
REMARK                         _______ _______ _______ _____ _____    ______ ____
ROOT
ATOM      1  C   UNL     1       6.899   5.653  16.089  0.00  0.00    +0.000 A 
ATOM      2  C   UNL     1       5.808   5.180  16.834  0.00  0.00    +0.000 A 
ATOM      3  C   UNL     1       5.070   4.080  16.416  0.00  0.00    +0.000 A 
ATOM      4  C   UNL     1       5.358   3.532  15.167  0.00  0.00    +0.000 A 
ATOM      5  C   UNL     1       6.384   4.045  14.353  0.00  0.00    +0.000 A 
ATOM      6  C   UNL     1       7.187   5.109  14.818  0.00  0.00    +0.000 A 
ENDROOT
BRANCH   1   8
ATOM      7  C   UNL     1       7.615   6.813  18.023  0.00  0.00    +0.000 C 
ATOM      8  O   UNL     1       7.674   6.664  16.603  0.00  0.00    +0.000 OA
ENDBRANCH   1   8
BRANCH   3   9
ATOM      9  C   UNL     1       4.104   3.406  17.294  0.00  0.00    +0.000 C 
ATOM     10  C   UNL     1       4.331   3.006  18.557  0.00  0.00    +0.000 C 
BRANCH  10  11
ATOM     11  C   UNL     1       3.352   2.296  19.471  0.00  0.00    +0.000 C 
ATOM     12  C   UNL     1       1.961   2.003  18.920  0.00  0.00    +0.000 C 
ATOM     13  C   UNL     1       1.215   3.301  18.781  0.00  0.00    +0.000 C 
ATOM     14  O   UNL     1       0.371   3.488  17.909  0.00  0.00    +0.000 OA
ATOM     15  C   UNL     1       1.481   4.341  19.791  0.00  0.00    +0.000 C 
ATOM     16  C   UNL     1       2.439   4.115  20.686  0.00  0.00    +0.000 C 
ATOM     17  O   UNL     1       3.285   3.030  20.707  0.00  0.00    +0.000 OA
ENDBRANCH  10  11
ENDBRANCH   3   9
BRANCH   5  18
ATOM     18  O   UNL     1       6.466   3.352  13.170  0.00  0.00    +0.000 OA
ATOM     19  C   UNL     1       5.330   3.267  12.326  0.00  0.00    +0.000 C 
ENDBRANCH   5  18
BRANCH   6  20
ATOM     20  O   UNL     1       8.180   5.533  13.977  0.00  0.00    +0.000 OA
ATOM     21  C   UNL     1       7.914   5.737  12.600  0.00  0.00    +0.000 C 
ENDBRANCH   6  20
TORSDOF 5
ENDMDL
MODEL 8
REMARK VINA RESULT:      -6.5      0.295      2.829
REMARK  Name = 
REMARK  8 active torsions:
REMARK  status: ('A' for Active; 'I' for Inactive)
REMARK    1  A    between atoms: C_1  and  O_2
REMARK    2  A    between atoms: O_2  and  C_3
REMARK    3  A    between atoms: C_5  and  C_6
REMARK    4  A    between atoms: C_7  and  C_8
REMARK    5  A    between atoms: C_16  and  O_17
REMARK    6  A    between atoms: O_17  and  C_18
REMARK    7  A    between atoms: C_19  and  O_20
REMARK    8  A    between atoms: O_20  and  C_21
REMARK                            x       y       z     vdW  Elec       q    Type
REMARK                         _______ _______ _______ _____ _____    ______ ____
ROOT
ATOM      1  C   UNL     1       6.796   5.894  16.178  0.00  0.00    +0.000 A 
ATOM      2  C   UNL     1       5.571   5.825  16.858  0.00  0.00    +0.000 A 
ATOM      3  C   UNL     1       4.605   4.889  16.514  0.00  0.00    +0.000 A 
ATOM      4  C   UNL     1       4.830   4.097  15.388  0.00  0.00    +0.000 A 
ATOM      5  C   UNL     1       6.008   4.208  14.628  0.00  0.00    +0.000 A 
ATOM      6  C   UNL     1       7.023   5.103  15.030  0.00  0.00    +0.000 A 
ENDROOT
BRANCH   1   8
ATOM      7  C   UNL     1       7.303   7.798  17.489  0.00  0.00    +0.000 C 
ATOM      8  O   UNL     1       7.768   6.752  16.632  0.00  0.00    +0.000 OA
ENDBRANCH   1   8
BRANCH   3   9
ATOM      9  C   UNL     1       3.438   4.618  17.364  0.00  0.00    +0.000 C 
ATOM     10  C   UNL     1       3.229   5.113  18.597  0.00  0.00    +0.000 C 
BRANCH  10  11
ATOM     11  C   UNL     1       2.040   4.833  19.495  0.00  0.00    +0.000 C 
ATOM     12  C   UNL     1       2.321   4.236  20.869  0.00  0.00    +0.000 C 
ATOM     13  C   UNL     1       2.790   2.818  20.691  0.00  0.00    +0.000 C 
ATOM     14  O   UNL     1       3.584   2.283  21.460  0.00  0.00    +0.000 OA
ATOM     15  C   UNL     1       2.198   2.048  19.582  0.00  0.00    +0.000 C 
ATOM     16  C   UNL     1       1.382   2.683  18.745  0.00  0.00    +0.000 C 
ATOM     17  O   UNL     1       1.103   4.030  18.753  0.00  0.00    +0.000 OA
ENDBRANCH  10  11
ENDBRANCH   3   9
BRANCH   5  18
ATOM     18  O   UNL     1       5.991   3.340  13.565  0.00  0.00    +0.000 OA
ATOM     19  C   UNL     1       5.087   3.558  12.494  0.00  0.00    +0.000 C 
ENDBRANCH   5  18
BRANCH   6  20
ATOM     20  O   UNL     1       8.148   5.133  14.252  0.00  0.00    +0.000 OA
ATOM     21  C   UNL     1       8.101   5.678  12.945  0.00  0.00    +0.000 C 
ENDBRANCH   6  20
TORSDOF 5
ENDMDL
MODEL 9
REMARK VINA RESULT:      -6.5      4.771      6.658
REMARK  Name = 
REMARK  8 active torsions:
REMARK  status: ('A' for Active; 'I' for Inactive)
REMARK    1  A    between atoms: C_1  and  O_2
REMARK    2  A    between atoms: O_2  and  C_3
REMARK    3  A    between atoms: C_5  and  C_6
REMARK    4  A    between atoms: C_7  and  C_8
REMARK    5  A    between atoms: C_16  and  O_17
REMARK    6  A    between atoms: O_17  and  C_18
REMARK    7  A    between atoms: C_19  and  O_20
REMARK    8  A    between atoms: O_20  and  C_21
REMARK                            x       y       z     vdW  Elec       q    Type
REMARK                         _______ _______ _______ _____ _____    ______ ____
ROOT
ATOM      1  C   UNL     1       4.464   6.225  17.872  0.00  0.00    +0.000 A 
ATOM      2  C   UNL     1       3.665   7.311  17.482  0.00  0.00    +0.000 A 
ATOM      3  C   UNL     1       2.567   7.707  18.233  0.00  0.00    +0.000 A 
ATOM      4  C   UNL     1       2.197   6.917  19.322  0.00  0.00    +0.000 A 
ATOM      5  C   UNL     1       2.921   5.767  19.681  0.00  0.00    +0.000 A 
ATOM      6  C   UNL     1       4.086   5.416  18.965  0.00  0.00    +0.000 A 
ENDROOT
BRANCH   1   8
ATOM      7  C   UNL     1       5.408   5.276  15.920  0.00  0.00    +0.000 C 
ATOM      8  O   UNL     1       5.609   5.948  17.166  0.00  0.00    +0.000 OA
ENDBRANCH   1   8
BRANCH   3   9
ATOM      9  C   UNL     1       1.878   8.983  18.001  0.00  0.00    +0.000 C 
ATOM     10  C   UNL     1       1.173   9.677  18.913  0.00  0.00    +0.000 C 
BRANCH  10  11
ATOM     11  C   UNL     1       0.443  10.986  18.687  0.00  0.00    +0.000 C 
ATOM     12  C   UNL     1       1.168  12.270  19.074  0.00  0.00    +0.000 C 
ATOM     13  C   UNL     1       1.262  12.337  20.573  0.00  0.00    +0.000 C 
ATOM     14  O   UNL     1       2.199  12.880  21.154  0.00  0.00    +0.000 OA
ATOM     15  C   UNL     1       0.134  11.782  21.344  0.00  0.00    +0.000 C 
ATOM     16  C   UNL     1      -0.833  11.160  20.677  0.00  0.00    +0.000 C 
ATOM     17  O   UNL     1      -0.842  10.893  19.327  0.00  0.00    +0.000 OA
ENDBRANCH  10  11
ENDBRANCH   3   9
BRANCH   5  18
ATOM     18  O   UNL     1       2.357   5.151  20.772  0.00  0.00    +0.000 OA
ATOM     19  C   UNL     1       1.251   4.282  20.592  0.00  0.00    +0.000 C 
ENDBRANCH   5  18
BRANCH   6  20
ATOM     20  O   UNL     1       4.748   4.298  19.395  0.00  0.00    +0.000 OA
ATOM     21  C   UNL     1       4.361   3.014  18.934  0.00  0.00    +0.000 C 
ENDBRANCH   6  20
TORSDOF 5
ENDMDL
