MODEL 1
REMARK VINA RESULT:      -8.0      0.000      0.000
REMARK  Name = 
REMARK  4 active torsions:
REMARK  status: ('A' for Active; 'I' for Inactive)
REMARK    1  A    between atoms: C_1  and  C_2
REMARK    2  A    between atoms: C_2  and  N_3
REMARK    3  A    between atoms: C_14  and  N_15
REMARK    4  A    between atoms: C_16  and  C_18
REMARK                            x       y       z     vdW  Elec       q    Type
REMARK                         _______ _______ _______ _____ _____    ______ ____
ROOT
ATOM      1  N   UNL     1       3.595   3.414  18.135  0.00  0.00    +0.000 N 
ATOM      2  C   UNL     1       4.683   3.977  17.471  0.00  0.00    +0.000 C 
ATOM      3  O   UNL     1       5.430   3.386  16.706  0.00  0.00    +0.000 OA
ATOM      4  C   UNL     1       4.752   5.481  17.855  0.00  0.00    +0.000 C 
ATOM      5  C   UNL     1       4.567   6.334  16.590  0.00  0.00    +0.000 C 
ATOM      6  C   UNL     1       5.813   6.298  15.708  0.00  0.00    +0.000 C 
ATOM      7  O   UNL     1       6.964   6.689  16.453  0.00  0.00    +0.000 OA
ATOM      8  C   UNL     1       7.241   5.796  17.531  0.00  0.00    +0.000 C 
ATOM      9  C   UNL     1       6.091   5.795  18.535  0.00  0.00    +0.000 C 
ATOM     10  C   UNL     1       3.565   5.596  18.802  0.00  0.00    +0.000 A 
ATOM     11  C   UNL     1       3.075   6.706  19.483  0.00  0.00    +0.000 A 
ATOM     12  C   UNL     1       1.937   6.563  20.296  0.00  0.00    +0.000 A 
ATOM     13  C   UNL     1       1.332   5.298  20.421  0.00  0.00    +0.000 A 
ATOM     14  C   UNL     1       1.818   4.188  19.719  0.00  0.00    +0.000 A 
ATOM     15  C   UNL     1       2.933   4.359  18.920  0.00  0.00    +0.000 A 
ENDROOT
BRANCH  12  16
ATOM     16  N   UNL     1       1.346   7.633  21.005  0.00  0.00    +0.000 N 
ATOM     17  C   UNL     1       0.925   8.844  20.479  0.00  0.00    +0.000 C 
ATOM     18  O   UNL     1       0.995   9.174  19.301  0.00  0.00    +0.000 OA
ATOM     19  H   UNL     1       1.125   7.480  21.985  0.00  0.00    +0.000 HD
BRANCH  17  20
ATOM     20  C   UNL     1       0.323   9.742  21.469  0.00  0.00    +0.000 A 
ATOM     21  C   UNL     1      -0.227  10.975  21.145  0.00  0.00    +0.000 A 
ATOM     22  S   UNL     1      -0.809  11.675  22.592  0.00  0.00    +0.000 S 
ATOM     23  N   UNL     1      -0.331  10.371  23.527  0.00  0.00    +0.000 NA
ATOM     24  N   UNL     1       0.254   9.415  22.822  0.00  0.00    +0.000 NA
ENDBRANCH  17  20
ENDBRANCH  12  16
BRANCH   1  26
ATOM     25  C   UNL     1       3.827   1.078  18.839  0.00  0.00    +0.000 C 
ATOM     26  C   UNL     1       3.150   2.062  17.897  0.00  0.00    +0.000 C 
ENDBRANCH   1  26
TORSDOF 3
ENDMDL
MODEL 2
REMARK VINA RESULT:      -8.0      2.726      4.257
REMARK  Name = 
REMARK  4 active torsions:
REMARK  status: ('A' for Active; 'I' for Inactive)
REMARK    1  A    between atoms: C_1  and  C_2
REMARK    2  A    between atoms: C_2  and  N_3
REMARK    3  A    between atoms: C_14  and  N_15
REMARK    4  A    between atoms: C_16  and  C_18
REMARK                            x       y       z     vdW  Elec       q    Type
REMARK                         _______ _______ _______ _____ _____    ______ ____
ROOT
ATOM      1  N   UNL     1       4.666   4.611  18.067  0.00  0.00    +0.000 N 
ATOM      2  C   UNL     1       3.923   3.698  18.814  0.00  0.00    +0.000 C 
ATOM      3  O   UNL     1       4.264   2.556  19.081  0.00  0.00    +0.000 OA
ATOM      4  C   UNL     1       2.613   4.402  19.262  0.00  0.00    +0.000 C 
ATOM      5  C   UNL     1       2.573   4.465  20.797  0.00  0.00    +0.000 C 
ATOM      6  C   UNL     1       2.279   3.094  21.402  0.00  0.00    +0.000 C 
ATOM      7  O   UNL     1       1.075   2.556  20.857  0.00  0.00    +0.000 OA
ATOM      8  C   UNL     1       1.169   2.334  19.451  0.00  0.00    +0.000 C 
ATOM      9  C   UNL     1       1.392   3.652  18.713  0.00  0.00    +0.000 C 
ATOM     10  C   UNL     1       2.792   5.779  18.637  0.00  0.00    +0.000 A 
ATOM     11  C   UNL     1       1.957   6.892  18.685  0.00  0.00    +0.000 A 
ATOM     12  C   UNL     1       2.355   8.074  18.035  0.00  0.00    +0.000 A 
ATOM     13  C   UNL     1       3.575   8.099  17.332  0.00  0.00    +0.000 A 
ATOM     14  C   UNL     1       4.419   6.982  17.303  0.00  0.00    +0.000 A 
ATOM     15  C   UNL     1       4.007   5.837  17.958  0.00  0.00    +0.000 A 
ENDROOT
BRANCH  12  16
ATOM     16  N   UNL     1       1.595   9.266  18.048  0.00  0.00    +0.000 N 
ATOM     17  C   UNL     1       1.001   9.858  19.151  0.00  0.00    +0.000 C 
ATOM     18  O   UNL     1       1.051   9.437  20.301  0.00  0.00    +0.000 OA
ATOM     19  H   UNL     1       1.541   9.796  17.183  0.00  0.00    +0.000 HD
BRANCH  17  20
ATOM     20  C   UNL     1       0.301  11.108  18.846  0.00  0.00    +0.000 A 
ATOM     21  C   UNL     1       0.869  12.362  19.022  0.00  0.00    +0.000 A 
ATOM     22  S   UNL     1      -0.290  13.524  18.542  0.00  0.00    +0.000 S 
ATOM     23  N   UNL     1      -1.427  12.363  18.141  0.00  0.00    +0.000 NA
ATOM     24  N   UNL     1      -1.000  11.127  18.344  0.00  0.00    +0.000 NA
ENDBRANCH  17  20
ENDBRANCH  12  16
BRANCH   1  26
ATOM     25  C   UNL     1       6.034   3.992  16.130  0.00  0.00    +0.000 C 
ATOM     26  C   UNL     1       6.008   4.337  17.612  0.00  0.00    +0.000 C 
ENDBRANCH   1  26
TORSDOF 3
ENDMDL
MODEL 3
REMARK VINA RESULT:      -7.7      1.816      3.658
REMARK  Name = 
REMARK  4 active torsions:
REMARK  status: ('A' for Active; 'I' for Inactive)
REMARK    1  A    between atoms: C_1  and  C_2
REMARK    2  A    between atoms: C_2  and  N_3
REMARK    3  A    between atoms: C_14  and  N_15
REMARK    4  A    between atoms: C_16  and  C_18
REMARK                            x       y       z     vdW  Elec       q    Type
REMARK                         _______ _______ _______ _____ _____    ______ ____
ROOT
ATOM      1  N   UNL     1       4.185   5.415  17.076  0.00  0.00    +0.000 N 
ATOM      2  C   UNL     1       3.804   4.198  17.637  0.00  0.00    +0.000 C 
ATOM      3  O   UNL     1       4.268   3.106  17.346  0.00  0.00    +0.000 OA
ATOM      4  C   UNL     1       2.716   4.485  18.708  0.00  0.00    +0.000 C 
ATOM      5  C   UNL     1       3.232   4.039  20.085  0.00  0.00    +0.000 C 
ATOM      6  C   UNL     1       3.237   2.518  20.211  0.00  0.00    +0.000 C 
ATOM      7  O   UNL     1       1.942   1.989  19.929  0.00  0.00    +0.000 OA
ATOM      8  C   UNL     1       1.530   2.255  18.589  0.00  0.00    +0.000 C 
ATOM      9  C   UNL     1       1.413   3.758  18.351  0.00  0.00    +0.000 C 
ATOM     10  C   UNL     1       2.596   6.000  18.604  0.00  0.00    +0.000 A 
ATOM     11  C   UNL     1       1.789   6.879  19.320  0.00  0.00    +0.000 A 
ATOM     12  C   UNL     1       1.872   8.257  19.053  0.00  0.00    +0.000 A 
ATOM     13  C   UNL     1       2.752   8.714  18.054  0.00  0.00    +0.000 A 
ATOM     14  C   UNL     1       3.576   7.827  17.349  0.00  0.00    +0.000 A 
ATOM     15  C   UNL     1       3.480   6.479  17.639  0.00  0.00    +0.000 A 
ENDROOT
BRANCH  12  16
ATOM     16  N   UNL     1       1.118   9.233  19.743  0.00  0.00    +0.000 N 
ATOM     17  C   UNL     1       0.853   9.267  21.103  0.00  0.00    +0.000 C 
ATOM     18  O   UNL     1       1.245   8.450  21.927  0.00  0.00    +0.000 OA
ATOM     19  H   UNL     1       0.802  10.040  19.214  0.00  0.00    +0.000 HD
BRANCH  17  20
ATOM     20  C   UNL     1       0.062  10.427  21.522  0.00  0.00    +0.000 A 
ATOM     21  C   UNL     1      -0.671  11.208  20.639  0.00  0.00    +0.000 A 
ATOM     22  S   UNL     1      -1.433  12.438  21.551  0.00  0.00    +0.000 S 
ATOM     23  N   UNL     1      -0.787  11.897  22.997  0.00  0.00    +0.000 NA
ATOM     24  N   UNL     1      -0.016  10.830  22.854  0.00  0.00    +0.000 NA
ENDBRANCH  17  20
ENDBRANCH  12  16
BRANCH   1  26
ATOM     25  C   UNL     1       6.603   5.757  16.866  0.00  0.00    +0.000 C 
ATOM     26  C   UNL     1       5.281   5.535  16.145  0.00  0.00    +0.000 C 
ENDBRANCH   1  26
TORSDOF 3
ENDMDL
MODEL 4
REMARK VINA RESULT:      -7.4      1.660      1.787
REMARK  Name = 
REMARK  4 active torsions:
REMARK  status: ('A' for Active; 'I' for Inactive)
REMARK    1  A    between atoms: C_1  and  C_2
REMARK    2  A    between atoms: C_2  and  N_3
REMARK    3  A    between atoms: C_14  and  N_15
REMARK    4  A    between atoms: C_16  and  C_18
REMARK                            x       y       z     vdW  Elec       q    Type
REMARK                         _______ _______ _______ _____ _____    ______ ____
ROOT
ATOM      1  N   UNL     1       2.795   3.542  19.437  0.00  0.00    +0.000 N 
ATOM      2  C   UNL     1       3.925   3.571  18.621  0.00  0.00    +0.000 C 
ATOM      3  O   UNL     1       4.494   2.591  18.163  0.00  0.00    +0.000 OA
ATOM      4  C   UNL     1       4.305   5.058  18.382  0.00  0.00    +0.000 C 
ATOM      5  C   UNL     1       4.204   5.370  16.881  0.00  0.00    +0.000 C 
ATOM      6  C   UNL     1       5.359   4.743  16.104  0.00  0.00    +0.000 C 
ATOM      7  O   UNL     1       6.611   5.153  16.653  0.00  0.00    +0.000 OA
ATOM      8  C   UNL     1       6.781   4.715  18.000  0.00  0.00    +0.000 C 
ATOM      9  C   UNL     1       5.720   5.336  18.905  0.00  0.00    +0.000 C 
ATOM     10  C   UNL     1       3.226   5.769  19.188  0.00  0.00    +0.000 A 
ATOM     11  C   UNL     1       3.002   7.131  19.368  0.00  0.00    +0.000 A 
ATOM     12  C   UNL     1       1.914   7.548  20.154  0.00  0.00    +0.000 A 
ATOM     13  C   UNL     1       1.087   6.581  20.758  0.00  0.00    +0.000 A 
ATOM     14  C   UNL     1       1.305   5.212  20.559  0.00  0.00    +0.000 A 
ATOM     15  C   UNL     1       2.378   4.831  19.775  0.00  0.00    +0.000 A 
ENDROOT
BRANCH  12  16
ATOM     16  N   UNL     1       1.584   8.905  20.374  0.00  0.00    +0.000 N 
ATOM     17  C   UNL     1       1.009   9.777  19.463  0.00  0.00    +0.000 C 
ATOM     18  O   UNL     1       0.685   9.497  18.315  0.00  0.00    +0.000 OA
ATOM     19  H   UNL     1       1.700   9.268  21.316  0.00  0.00    +0.000 HD
BRANCH  17  20
ATOM     20  C   UNL     1       0.764  11.117  20.001  0.00  0.00    +0.000 A 
ATOM     21  C   UNL     1       0.377  12.195  19.216  0.00  0.00    +0.000 A 
ATOM     22  S   UNL     1       0.204  13.548  20.247  0.00  0.00    +0.000 S 
ATOM     23  N   UNL     1       0.625  12.678  21.614  0.00  0.00    +0.000 NA
ATOM     24  N   UNL     1       0.897  11.408  21.358  0.00  0.00    +0.000 NA
ENDBRANCH  17  20
ENDBRANCH  12  16
BRANCH   1  26
ATOM     25  C   UNL     1       0.861   2.154  18.856  0.00  0.00    +0.000 C 
ATOM     26  C   UNL     1       2.085   2.324  19.744  0.00  0.00    +0.000 C 
ENDBRANCH   1  26
TORSDOF 3
ENDMDL
MODEL 5
REMARK VINA RESULT:      -7.4      3.624      8.038
REMARK  Name = 
REMARK  4 active torsions:
REMARK  status: ('A' for Active; 'I' for Inactive)
REMARK    1  A    between atoms: C_1  and  C_2
REMARK    2  A    between atoms: C_2  and  N_3
REMARK    3  A    between atoms: C_14  and  N_15
REMARK    4  A    between atoms: C_16  and  C_18
REMARK                            x       y       z     vdW  Elec       q    Type
REMARK                         _______ _______ _______ _____ _____    ______ ____
ROOT
ATOM      1  N   UNL     1      -0.157   9.261  21.195  0.00  0.00    +0.000 N 
ATOM      2  C   UNL     1      -0.560  10.430  20.551  0.00  0.00    +0.000 C 
ATOM      3  O   UNL     1      -1.356  11.244  20.993  0.00  0.00    +0.000 OA
ATOM      4  C   UNL     1       0.202  10.520  19.201  0.00  0.00    +0.000 C 
ATOM      5  C   UNL     1       1.082  11.780  19.200  0.00  0.00    +0.000 C 
ATOM      6  C   UNL     1       0.241  13.044  19.037  0.00  0.00    +0.000 C 
ATOM      7  O   UNL     1      -0.570  12.957  17.867  0.00  0.00    +0.000 OA
ATOM      8  C   UNL     1      -1.511  11.886  17.939  0.00  0.00    +0.000 C 
ATOM      9  C   UNL     1      -0.790  10.544  18.031  0.00  0.00    +0.000 C 
ATOM     10  C   UNL     1       1.031   9.243  19.247  0.00  0.00    +0.000 A 
ATOM     11  C   UNL     1       1.947   8.743  18.326  0.00  0.00    +0.000 A 
ATOM     12  C   UNL     1       2.610   7.535  18.606  0.00  0.00    +0.000 A 
ATOM     13  C   UNL     1       2.318   6.847  19.799  0.00  0.00    +0.000 A 
ATOM     14  C   UNL     1       1.409   7.364  20.731  0.00  0.00    +0.000 A 
ATOM     15  C   UNL     1       0.779   8.557  20.434  0.00  0.00    +0.000 A 
ENDROOT
BRANCH  12  16
ATOM     16  N   UNL     1       3.577   6.960  17.751  0.00  0.00    +0.000 N 
ATOM     17  C   UNL     1       3.705   5.618  17.427  0.00  0.00    +0.000 C 
ATOM     18  O   UNL     1       2.983   4.715  17.833  0.00  0.00    +0.000 OA
ATOM     19  H   UNL     1       4.196   7.593  17.252  0.00  0.00    +0.000 HD
BRANCH  17  20
ATOM     20  C   UNL     1       4.795   5.337  16.490  0.00  0.00    +0.000 A 
ATOM     21  C   UNL     1       5.279   4.059  16.245  0.00  0.00    +0.000 A 
ATOM     22  S   UNL     1       6.535   4.196  15.092  0.00  0.00    +0.000 S 
ATOM     23  N   UNL     1       6.377   5.859  14.979  0.00  0.00    +0.000 NA
ATOM     24  N   UNL     1       5.427   6.345  15.763  0.00  0.00    +0.000 NA
ENDBRANCH  17  20
ENDBRANCH  12  16
BRANCH   1  26
ATOM     25  C   UNL     1       0.346   9.593  23.570  0.00  0.00    +0.000 C 
ATOM     26  C   UNL     1      -0.560   8.933  22.541  0.00  0.00    +0.000 C 
ENDBRANCH   1  26
TORSDOF 3
ENDMDL
MODEL 6
REMARK VINA RESULT:      -7.4      2.003      3.764
REMARK  Name = 
REMARK  4 active torsions:
REMARK  status: ('A' for Active; 'I' for Inactive)
REMARK    1  A    between atoms: C_1  and  C_2
REMARK    2  A    between atoms: C_2  and  N_3
REMARK    3  A    between atoms: C_14  and  N_15
REMARK    4  A    between atoms: C_16  and  C_18
REMARK                            x       y       z     vdW  Elec       q    Type
REMARK                         _______ _______ _______ _____ _____    ______ ____
ROOT
ATOM      1  N   UNL     1       4.121   5.595  17.036  0.00  0.00    +0.000 N 
ATOM      2  C   UNL     1       3.789   4.347  17.560  0.00  0.00    +0.000 C 
ATOM      3  O   UNL     1       4.270   3.280  17.208  0.00  0.00    +0.000 OA
ATOM      4  C   UNL     1       2.732   4.562  18.677  0.00  0.00    +0.000 C 
ATOM      5  C   UNL     1       3.306   4.074  20.017  0.00  0.00    +0.000 C 
ATOM      6  C   UNL     1       3.353   2.550  20.079  0.00  0.00    +0.000 C 
ATOM      7  O   UNL     1       2.062   2.000  19.818  0.00  0.00    +0.000 OA
ATOM      8  C   UNL     1       1.598   2.309  18.505  0.00  0.00    +0.000 C 
ATOM      9  C   UNL     1       1.436   3.817  18.334  0.00  0.00    +0.000 C 
ATOM     10  C   UNL     1       2.572   6.076  18.640  0.00  0.00    +0.000 A 
ATOM     11  C   UNL     1       1.768   6.905  19.418  0.00  0.00    +0.000 A 
ATOM     12  C   UNL     1       1.809   8.294  19.205  0.00  0.00    +0.000 A 
ATOM     13  C   UNL     1       2.643   8.814  18.197  0.00  0.00    +0.000 A 
ATOM     14  C   UNL     1       3.463   7.978  17.430  0.00  0.00    +0.000 A 
ATOM     15  C   UNL     1       3.410   6.617  17.667  0.00  0.00    +0.000 A 
ENDROOT
BRANCH  12  16
ATOM     16  N   UNL     1       1.055   9.221  19.960  0.00  0.00    +0.000 N 
ATOM     17  C   UNL     1       0.012  10.011  19.502  0.00  0.00    +0.000 C 
ATOM     18  O   UNL     1      -0.426  10.020  18.358  0.00  0.00    +0.000 OA
ATOM     19  H   UNL     1       1.230   9.263  20.960  0.00  0.00    +0.000 HD
BRANCH  17  20
ATOM     20  C   UNL     1      -0.589  10.855  20.537  0.00  0.00    +0.000 A 
ATOM     21  C   UNL     1      -0.245  10.775  21.880  0.00  0.00    +0.000 A 
ATOM     22  S   UNL     1      -1.182  11.933  22.721  0.00  0.00    +0.000 S 
ATOM     23  N   UNL     1      -1.954  12.456  21.331  0.00  0.00    +0.000 NA
ATOM     24  N   UNL     1      -1.558  11.814  20.244  0.00  0.00    +0.000 NA
ENDBRANCH  17  20
ENDBRANCH  12  16
BRANCH   1  26
ATOM     25  C   UNL     1       6.524   5.992  16.761  0.00  0.00    +0.000 C 
ATOM     26  C   UNL     1       5.182   5.781  16.075  0.00  0.00    +0.000 C 
ENDBRANCH   1  26
TORSDOF 3
ENDMDL
MODEL 7
REMARK VINA RESULT:      -7.4      2.163      3.867
REMARK  Name = 
REMARK  4 active torsions:
REMARK  status: ('A' for Active; 'I' for Inactive)
REMARK    1  A    between atoms: C_1  and  C_2
REMARK    2  A    between atoms: C_2  and  N_3
REMARK    3  A    between atoms: C_14  and  N_15
REMARK    4  A    between atoms: C_16  and  C_18
REMARK                            x       y       z     vdW  Elec       q    Type
REMARK                         _______ _______ _______ _____ _____    ______ ____
ROOT
ATOM      1  N   UNL     1       3.908   4.679  17.375  0.00  0.00    +0.000 N 
ATOM      2  C   UNL     1       3.441   3.651  18.193  0.00  0.00    +0.000 C 
ATOM      3  O   UNL     1       3.726   2.469  18.077  0.00  0.00    +0.000 OA
ATOM      4  C   UNL     1       2.529   4.282  19.280  0.00  0.00    +0.000 C 
ATOM      5  C   UNL     1       3.139   4.019  20.666  0.00  0.00    +0.000 C 
ATOM      6  C   UNL     1       2.964   2.560  21.082  0.00  0.00    +0.000 C 
ATOM      7  O   UNL     1       1.589   2.186  21.023  0.00  0.00    +0.000 OA
ATOM      8  C   UNL     1       1.062   2.265  19.699  0.00  0.00    +0.000 C 
ATOM      9  C   UNL     1       1.112   3.703  19.187  0.00  0.00    +0.000 C 
ATOM     10  C   UNL     1       2.592   5.755  18.897  0.00  0.00    +0.000 A 
ATOM     11  C   UNL     1       1.991   6.857  19.499  0.00  0.00    +0.000 A 
ATOM     12  C   UNL     1       2.219   8.137  18.964  0.00  0.00    +0.000 A 
ATOM     13  C   UNL     1       3.029   8.274  17.821  0.00  0.00    +0.000 A 
ATOM     14  C   UNL     1       3.647   7.164  17.231  0.00  0.00    +0.000 A 
ATOM     15  C   UNL     1       3.413   5.919  17.783  0.00  0.00    +0.000 A 
ENDROOT
BRANCH  12  16
ATOM     16  N   UNL     1       1.680   9.321  19.517  0.00  0.00    +0.000 N 
ATOM     17  C   UNL     1       0.617  10.059  19.020  0.00  0.00    +0.000 C 
ATOM     18  O   UNL     1      -0.031   9.790  18.016  0.00  0.00    +0.000 OA
ATOM     19  H   UNL     1       2.045   9.626  20.415  0.00  0.00    +0.000 HD
BRANCH  17  20
ATOM     20  C   UNL     1       0.276  11.227  19.837  0.00  0.00    +0.000 A 
ATOM     21  C   UNL     1      -0.666  12.173  19.457  0.00  0.00    +0.000 A 
ATOM     22  S   UNL     1      -0.746  13.347  20.698  0.00  0.00    +0.000 S 
ATOM     23  N   UNL     1       0.411  12.577  21.631  0.00  0.00    +0.000 NA
ATOM     24  N   UNL     1       0.874  11.470  21.072  0.00  0.00    +0.000 NA
ENDBRANCH  17  20
ENDBRANCH  12  16
BRANCH   1  26
ATOM     25  C   UNL     1       6.309   4.595  16.894  0.00  0.00    +0.000 C 
ATOM     26  C   UNL     1       4.896   4.469  16.345  0.00  0.00    +0.000 C 
ENDBRANCH   1  26
TORSDOF 3
ENDMDL
MODEL 8
REMARK VINA RESULT:      -7.4      2.387      2.569
REMARK  Name = 
REMARK  4 active torsions:
REMARK  status: ('A' for Active; 'I' for Inactive)
REMARK    1  A    between atoms: C_1  and  C_2
REMARK    2  A    between atoms: C_2  and  N_3
REMARK    3  A    between atoms: C_14  and  N_15
REMARK    4  A    between atoms: C_16  and  C_18
REMARK                            x       y       z     vdW  Elec       q    Type
REMARK                         _______ _______ _______ _____ _____    ______ ____
ROOT
ATOM      1  N   UNL     1       3.243   3.808  20.166  0.00  0.00    +0.000 N 
ATOM      2  C   UNL     1       4.303   3.680  19.270  0.00  0.00    +0.000 C 
ATOM      3  O   UNL     1       4.946   2.661  19.072  0.00  0.00    +0.000 OA
ATOM      4  C   UNL     1       4.494   5.048  18.558  0.00  0.00    +0.000 C 
ATOM      5  C   UNL     1       4.255   4.870  17.051  0.00  0.00    +0.000 C 
ATOM      6  C   UNL     1       5.417   4.136  16.386  0.00  0.00    +0.000 C 
ATOM      7  O   UNL     1       6.649   4.803  16.657  0.00  0.00    +0.000 OA
ATOM      8  C   UNL     1       6.961   4.819  18.049  0.00  0.00    +0.000 C 
ATOM      9  C   UNL     1       5.902   5.595  18.827  0.00  0.00    +0.000 C 
ATOM     10  C   UNL     1       3.400   5.877  19.218  0.00  0.00    +0.000 A 
ATOM     11  C   UNL     1       3.037   7.203  19.002  0.00  0.00    +0.000 A 
ATOM     12  C   UNL     1       1.966   7.746  19.732  0.00  0.00    +0.000 A 
ATOM     13  C   UNL     1       1.298   6.946  20.679  0.00  0.00    +0.000 A 
ATOM     14  C   UNL     1       1.655   5.607  20.879  0.00  0.00    +0.000 A 
ATOM     15  C   UNL     1       2.707   5.096  20.141  0.00  0.00    +0.000 A 
ENDROOT
BRANCH  12  16
ATOM     16  N   UNL     1       1.501   9.071  19.566  0.00  0.00    +0.000 N 
ATOM     17  C   UNL     1       1.537   9.823  18.403  0.00  0.00    +0.000 C 
ATOM     18  O   UNL     1       1.977   9.446  17.323  0.00  0.00    +0.000 OA
ATOM     19  H   UNL     1       1.014   9.498  20.349  0.00  0.00    +0.000 HD
BRANCH  17  20
ATOM     20  C   UNL     1       0.951  11.159  18.543  0.00  0.00    +0.000 A 
ATOM     21  C   UNL     1       1.711  12.313  18.680  0.00  0.00    +0.000 A 
ATOM     22  S   UNL     1       0.627  13.630  18.810  0.00  0.00    +0.000 S 
ATOM     23  N   UNL     1      -0.725  12.651  18.681  0.00  0.00    +0.000 NA
ATOM     24  N   UNL     1      -0.427  11.369  18.544  0.00  0.00    +0.000 NA
ENDBRANCH  17  20
ENDBRANCH  12  16
BRANCH   1  26
ATOM     25  C   UNL     1       1.542   2.044  20.144  0.00  0.00    +0.000 C 
ATOM     26  C   UNL     1       2.699   2.687  20.895  0.00  0.00    +0.000 C 
ENDBRANCH   1  26
TORSDOF 3
ENDMDL
MODEL 9
REMARK VINA RESULT:      -7.2      1.092      1.170
REMARK  Name = 
REMARK  4 active torsions:
REMARK  status: ('A' for Active; 'I' for Inactive)
REMARK    1  A    between atoms: C_1  and  C_2
REMARK    2  A    between atoms: C_2  and  N_3
REMARK    3  A    between atoms: C_14  and  N_15
REMARK    4  A    between atoms: C_16  and  C_18
REMARK                            x       y       z     vdW  Elec       q    Type
REMARK                         _______ _______ _______ _____ _____    ______ ____
ROOT
ATOM      1  N   UNL     1       3.905   3.779  19.180  0.00  0.00    +0.000 N 
ATOM      2  C   UNL     1       4.831   4.274  18.265  0.00  0.00    +0.000 C 
ATOM      3  O   UNL     1       5.653   3.607  17.656  0.00  0.00    +0.000 OA
ATOM      4  C   UNL     1       4.609   5.807  18.141  0.00  0.00    +0.000 C 
ATOM      5  C   UNL     1       4.209   6.145  16.697  0.00  0.00    +0.000 C 
ATOM      6  C   UNL     1       5.403   6.041  15.751  0.00  0.00    +0.000 C 
ATOM      7  O   UNL     1       6.478   6.856  16.212  0.00  0.00    +0.000 OA
ATOM      8  C   UNL     1       6.969   6.436  17.484  0.00  0.00    +0.000 C 
ATOM      9  C   UNL     1       5.881   6.563  18.548  0.00  0.00    +0.000 C 
ATOM     10  C   UNL     1       3.459   6.016  19.118  0.00  0.00    +0.000 A 
ATOM     11  C   UNL     1       2.781   7.183  19.457  0.00  0.00    +0.000 A 
ATOM     12  C   UNL     1       1.726   7.117  20.384  0.00  0.00    +0.000 A 
ATOM     13  C   UNL     1       1.394   5.878  20.965  0.00  0.00    +0.000 A 
ATOM     14  C   UNL     1       2.067   4.704  20.607  0.00  0.00    +0.000 A 
ATOM     15  C   UNL     1       3.094   4.797  19.687  0.00  0.00    +0.000 A 
ENDROOT
BRANCH  12  16
ATOM     16  N   UNL     1       0.957   8.237  20.771  0.00  0.00    +0.000 N 
ATOM     17  C   UNL     1       1.211   9.091  21.833  0.00  0.00    +0.000 C 
ATOM     18  O   UNL     1       2.161   9.008  22.604  0.00  0.00    +0.000 OA
ATOM     19  H   UNL     1       0.182   8.504  20.170  0.00  0.00    +0.000 HD
BRANCH  17  20
ATOM     20  C   UNL     1       0.241  10.181  21.961  0.00  0.00    +0.000 A 
ATOM     21  C   UNL     1      -0.270  10.878  20.874  0.00  0.00    +0.000 A 
ATOM     22  S   UNL     1      -1.360  12.048  21.480  0.00  0.00    +0.000 S 
ATOM     23  N   UNL     1      -1.113  11.592  23.072  0.00  0.00    +0.000 NA
ATOM     24  N   UNL     1      -0.249  10.597  23.198  0.00  0.00    +0.000 NA
ENDBRANCH  17  20
ENDBRANCH  12  16
BRANCH   1  26
ATOM     25  C   UNL     1       2.829   1.724  18.391  0.00  0.00    +0.000 C 
ATOM     26  C   UNL     1       3.733   2.368  19.431  0.00  0.00    +0.000 C 
ENDBRANCH   1  26
TORSDOF 3
ENDMDL
