MODEL 1
REMARK VINA RESULT:      -8.1      0.000      0.000
REMARK  Name = 
REMARK  4 active torsions:
REMARK  status: ('A' for Active; 'I' for Inactive)
REMARK    1  A    between atoms: C_1  and  O_2
REMARK    2  A    between atoms: O_2  and  C_3
REMARK    3  A    between atoms: C_6  and  C_7
REMARK    4  A    between atoms: C_12  and  C_13
REMARK                            x       y       z     vdW  Elec       q    Type
REMARK                         _______ _______ _______ _____ _____    ______ ____
ROOT
ATOM      1  C   UNL     1       3.071   5.284  18.415  0.00  0.00    +0.000 C 
ATOM      2  C   UNL     1       3.438   4.417  19.624  0.00  0.00    +0.000 C 
ATOM      3  C   UNL     1       2.421   4.572  20.732  0.00  0.00    +0.000 C 
ATOM      4  O   UNL     1       2.188   3.672  21.534  0.00  0.00    +0.000 OA
ATOM      5  C   UNL     1       1.757   5.885  20.907  0.00  0.00    +0.000 C 
ATOM      6  C   UNL     1       1.992   6.885  20.044  0.00  0.00    +0.000 C 
ATOM      7  C   UNL     1       2.871   6.756  18.827  0.00  0.00    +0.000 C 
ENDROOT
BRANCH   6   8
ATOM      8  C   UNL     1       1.348   8.184  20.274  0.00  0.00    +0.000 A 
ATOM      9  C   UNL     1       1.386   9.174  19.282  0.00  0.00    +0.000 A 
ATOM     10  C   UNL     1       0.807  10.423  19.511  0.00  0.00    +0.000 A 
ATOM     11  C   UNL     1       0.188  10.692  20.732  0.00  0.00    +0.000 A 
ATOM     12  C   UNL     1       0.148   9.708  21.718  0.00  0.00    +0.000 A 
ATOM     13 CL   UNL     1      -0.613  10.041  23.226  0.00  0.00    +0.000 Cl
ATOM     14  C   UNL     1       0.726   8.458  21.498  0.00  0.00    +0.000 A 
ENDBRANCH   6   8
BRANCH   1  18
ATOM     15  C   UNL     1       5.983   4.860  15.222  0.00  0.00    +0.000 A 
ATOM     16  C   UNL     1       5.481   3.738  15.880  0.00  0.00    +0.000 A 
ATOM     17  C   UNL     1       4.536   3.875  16.902  0.00  0.00    +0.000 A 
ATOM     18  C   UNL     1       4.090   5.144  17.296  0.00  0.00    +0.000 A 
ATOM     19  C   UNL     1       4.620   6.267  16.642  0.00  0.00    +0.000 A 
ATOM     20  C   UNL     1       5.559   6.126  15.614  0.00  0.00    +0.000 A 
BRANCH  15  22
ATOM     21  C   UNL     1       6.428   3.886  13.114  0.00  0.00    +0.000 C 
ATOM     22  O   UNL     1       6.907   4.604  14.246  0.00  0.00    +0.000 OA
ENDBRANCH  15  22
ENDBRANCH   1  18
TORSDOF 3
ENDMDL
MODEL 2
REMARK VINA RESULT:      -8.1      0.620      1.135
REMARK  Name = 
REMARK  4 active torsions:
REMARK  status: ('A' for Active; 'I' for Inactive)
REMARK    1  A    between atoms: C_1  and  O_2
REMARK    2  A    between atoms: O_2  and  C_3
REMARK    3  A    between atoms: C_6  and  C_7
REMARK    4  A    between atoms: C_12  and  C_13
REMARK                            x       y       z     vdW  Elec       q    Type
REMARK                         _______ _______ _______ _____ _____    ______ ____
ROOT
ATOM      1  C   UNL     1       3.392   5.230  18.366  0.00  0.00    +0.000 C 
ATOM      2  C   UNL     1       3.602   4.261  19.534  0.00  0.00    +0.000 C 
ATOM      3  C   UNL     1       2.458   4.341  20.520  0.00  0.00    +0.000 C 
ATOM      4  O   UNL     1       2.123   3.383  21.209  0.00  0.00    +0.000 OA
ATOM      5  C   UNL     1       1.787   5.646  20.722  0.00  0.00    +0.000 C 
ATOM      6  C   UNL     1       2.132   6.710  19.980  0.00  0.00    +0.000 C 
ATOM      7  C   UNL     1       3.153   6.667  18.873  0.00  0.00    +0.000 C 
ENDROOT
BRANCH   6   8
ATOM      8  C   UNL     1       1.474   7.997  20.238  0.00  0.00    +0.000 A 
ATOM      9  C   UNL     1       1.425   8.977  19.237  0.00  0.00    +0.000 A 
ATOM     10  C   UNL     1       0.833  10.214  19.490  0.00  0.00    +0.000 A 
ATOM     11  C   UNL     1       0.285  10.482  20.745  0.00  0.00    +0.000 A 
ATOM     12  C   UNL     1       0.331   9.508  21.741  0.00  0.00    +0.000 A 
ATOM     13 CL   UNL     1      -0.342   9.840  23.290  0.00  0.00    +0.000 Cl
ATOM     14  C   UNL     1       0.923   8.269  21.496  0.00  0.00    +0.000 A 
ENDBRANCH   6   8
BRANCH   1  18
ATOM     15  C   UNL     1       6.679   5.072  15.533  0.00  0.00    +0.000 A 
ATOM     16  C   UNL     1       6.519   6.171  16.376  0.00  0.00    +0.000 A 
ATOM     17  C   UNL     1       5.465   6.217  17.295  0.00  0.00    +0.000 A 
ATOM     18  C   UNL     1       4.540   5.167  17.372  0.00  0.00    +0.000 A 
ATOM     19  C   UNL     1       4.698   4.077  16.503  0.00  0.00    +0.000 A 
ATOM     20  C   UNL     1       5.759   4.029  15.591  0.00  0.00    +0.000 A 
BRANCH  15  22
ATOM     21  C   UNL     1       7.433   4.954  13.295  0.00  0.00    +0.000 C 
ATOM     22  O   UNL     1       7.740   5.142  14.672  0.00  0.00    +0.000 OA
ENDBRANCH  15  22
ENDBRANCH   1  18
TORSDOF 3
ENDMDL
MODEL 3
REMARK VINA RESULT:      -8.0      4.696      8.261
REMARK  Name = 
REMARK  4 active torsions:
REMARK  status: ('A' for Active; 'I' for Inactive)
REMARK    1  A    between atoms: C_1  and  O_2
REMARK    2  A    between atoms: O_2  and  C_3
REMARK    3  A    between atoms: C_6  and  C_7
REMARK    4  A    between atoms: C_12  and  C_13
REMARK                            x       y       z     vdW  Elec       q    Type
REMARK                         _______ _______ _______ _____ _____    ______ ____
ROOT
ATOM      1  C   UNL     1       4.812   5.513  17.513  0.00  0.00    +0.000 C 
ATOM      2  C   UNL     1       6.004   5.850  18.414  0.00  0.00    +0.000 C 
ATOM      3  C   UNL     1       7.114   6.505  17.624  0.00  0.00    +0.000 C 
ATOM      4  O   UNL     1       7.899   7.298  18.135  0.00  0.00    +0.000 OA
ATOM      5  C   UNL     1       7.314   6.100  16.212  0.00  0.00    +0.000 C 
ATOM      6  C   UNL     1       6.470   5.236  15.628  0.00  0.00    +0.000 C 
ATOM      7  C   UNL     1       5.251   4.663  16.303  0.00  0.00    +0.000 C 
ENDROOT
BRANCH   6   8
ATOM      8  C   UNL     1       6.725   4.827  14.241  0.00  0.00    +0.000 A 
ATOM      9  C   UNL     1       7.693   5.493  13.476  0.00  0.00    +0.000 A 
ATOM     10  C   UNL     1       7.912   5.131  12.147  0.00  0.00    +0.000 A 
ATOM     11  C   UNL     1       7.166   4.103  11.571  0.00  0.00    +0.000 A 
ATOM     12  C   UNL     1       6.205   3.438  12.330  0.00  0.00    +0.000 A 
ATOM     13 CL   UNL     1       5.282   2.171  11.619  0.00  0.00    +0.000 Cl
ATOM     14  C   UNL     1       5.978   3.795  13.659  0.00  0.00    +0.000 A 
ENDBRANCH   6   8
BRANCH   1  18
ATOM     15  C   UNL     1       1.624   3.608  19.764  0.00  0.00    +0.000 A 
ATOM     16  C   UNL     1       2.780   4.052  20.404  0.00  0.00    +0.000 A 
ATOM     17  C   UNL     1       3.803   4.673  19.679  0.00  0.00    +0.000 A 
ATOM     18  C   UNL     1       3.691   4.845  18.293  0.00  0.00    +0.000 A 
ATOM     19  C   UNL     1       2.533   4.375  17.656  0.00  0.00    +0.000 A 
ATOM     20  C   UNL     1       1.508   3.761  18.385  0.00  0.00    +0.000 A 
BRANCH  15  22
ATOM     21  C   UNL     1       1.177   2.560  21.836  0.00  0.00    +0.000 C 
ATOM     22  O   UNL     1       0.697   3.009  20.573  0.00  0.00    +0.000 OA
ENDBRANCH  15  22
ENDBRANCH   1  18
TORSDOF 3
ENDMDL
MODEL 4
REMARK VINA RESULT:      -8.0      3.441      7.394
REMARK  Name = 
REMARK  4 active torsions:
REMARK  status: ('A' for Active; 'I' for Inactive)
REMARK    1  A    between atoms: C_1  and  O_2
REMARK    2  A    between atoms: O_2  and  C_3
REMARK    3  A    between atoms: C_6  and  C_7
REMARK    4  A    between atoms: C_12  and  C_13
REMARK                            x       y       z     vdW  Elec       q    Type
REMARK                         _______ _______ _______ _____ _____    ______ ____
ROOT
ATOM      1  C   UNL     1       2.608   6.428  20.064  0.00  0.00    +0.000 C 
ATOM      2  C   UNL     1       1.744   5.222  20.443  0.00  0.00    +0.000 C 
ATOM      3  C   UNL     1       2.563   3.951  20.465  0.00  0.00    +0.000 C 
ATOM      4  O   UNL     1       2.279   3.005  21.193  0.00  0.00    +0.000 OA
ATOM      5  C   UNL     1       3.685   3.815  19.508  0.00  0.00    +0.000 C 
ATOM      6  C   UNL     1       4.019   4.835  18.702  0.00  0.00    +0.000 C 
ATOM      7  C   UNL     1       3.350   6.185  18.733  0.00  0.00    +0.000 C 
ENDROOT
BRANCH   6   8
ATOM      8  C   UNL     1       5.110   4.648  17.738  0.00  0.00    +0.000 A 
ATOM      9  C   UNL     1       6.445   4.728  18.160  0.00  0.00    +0.000 A 
ATOM     10  C   UNL     1       7.485   4.587  17.241  0.00  0.00    +0.000 A 
ATOM     11  C   UNL     1       7.199   4.365  15.893  0.00  0.00    +0.000 A 
ATOM     12  C   UNL     1       5.873   4.283  15.473  0.00  0.00    +0.000 A 
ATOM     13 CL   UNL     1       5.521   4.013  13.810  0.00  0.00    +0.000 Cl
ATOM     14  C   UNL     1       4.828   4.426  16.385  0.00  0.00    +0.000 A 
ENDBRANCH   6   8
BRANCH   1  18
ATOM     15  C   UNL     1       0.294  10.101  19.940  0.00  0.00    +0.000 A 
ATOM     16  C   UNL     1       1.018   9.678  18.826  0.00  0.00    +0.000 A 
ATOM     17  C   UNL     1       1.756   8.490  18.864  0.00  0.00    +0.000 A 
ATOM     18  C   UNL     1       1.795   7.712  20.029  0.00  0.00    +0.000 A 
ATOM     19  C   UNL     1       1.082   8.159  21.151  0.00  0.00    +0.000 A 
ATOM     20  C   UNL     1       0.337   9.343  21.108  0.00  0.00    +0.000 A 
BRANCH  15  22
ATOM     21  C   UNL     1      -1.058  11.451  18.548  0.00  0.00    +0.000 C 
ATOM     22  O   UNL     1      -0.382  11.280  19.789  0.00  0.00    +0.000 OA
ENDBRANCH  15  22
ENDBRANCH   1  18
TORSDOF 3
ENDMDL
MODEL 5
REMARK VINA RESULT:      -7.9      3.665      7.628
REMARK  Name = 
REMARK  4 active torsions:
REMARK  status: ('A' for Active; 'I' for Inactive)
REMARK    1  A    between atoms: C_1  and  O_2
REMARK    2  A    between atoms: O_2  and  C_3
REMARK    3  A    between atoms: C_6  and  C_7
REMARK    4  A    between atoms: C_12  and  C_13
REMARK                            x       y       z     vdW  Elec       q    Type
REMARK                         _______ _______ _______ _____ _____    ______ ____
ROOT
ATOM      1  C   UNL     1       3.042   6.048  18.867  0.00  0.00    +0.000 C 
ATOM      2  C   UNL     1       2.130   4.832  19.057  0.00  0.00    +0.000 C 
ATOM      3  C   UNL     1       2.875   3.545  18.784  0.00  0.00    +0.000 C 
ATOM      4  O   UNL     1       2.574   2.488  19.331  0.00  0.00    +0.000 OA
ATOM      5  C   UNL     1       3.940   3.547  17.754  0.00  0.00    +0.000 C 
ATOM      6  C   UNL     1       4.292   4.689  17.143  0.00  0.00    +0.000 C 
ATOM      7  C   UNL     1       3.703   6.036  17.474  0.00  0.00    +0.000 C 
ENDROOT
BRANCH   6   8
ATOM      8  C   UNL     1       5.322   4.644  16.098  0.00  0.00    +0.000 A 
ATOM      9  C   UNL     1       6.574   5.235  16.318  0.00  0.00    +0.000 A 
ATOM     10  C   UNL     1       7.544   5.226  15.314  0.00  0.00    +0.000 A 
ATOM     11  C   UNL     1       7.269   4.629  14.083  0.00  0.00    +0.000 A 
ATOM     12  C   UNL     1       6.025   4.040  13.864  0.00  0.00    +0.000 A 
ATOM     13 CL   UNL     1       5.685   3.306  12.345  0.00  0.00    +0.000 Cl
ATOM     14  C   UNL     1       5.050   4.046  14.862  0.00  0.00    +0.000 A 
ENDBRANCH   6   8
BRANCH   1  18
ATOM     15  C   UNL     1       0.935   9.775  19.592  0.00  0.00    +0.000 A 
ATOM     16  C   UNL     1       1.489   9.502  18.342  0.00  0.00    +0.000 A 
ATOM     17  C   UNL     1       2.159   8.297  18.107  0.00  0.00    +0.000 A 
ATOM     18  C   UNL     1       2.303   7.350  19.129  0.00  0.00    +0.000 A 
ATOM     19  C   UNL     1       1.762   7.645  20.390  0.00  0.00    +0.000 A 
ATOM     20  C   UNL     1       1.084   8.848  20.620  0.00  0.00    +0.000 A 
BRANCH  15  22
ATOM     21  C   UNL     1      -0.831  11.176  18.877  0.00  0.00    +0.000 C 
ATOM     22  O   UNL     1       0.311  10.987  19.706  0.00  0.00    +0.000 OA
ENDBRANCH  15  22
ENDBRANCH   1  18
TORSDOF 3
ENDMDL
MODEL 6
REMARK VINA RESULT:      -7.9      3.647      7.623
REMARK  Name = 
REMARK  4 active torsions:
REMARK  status: ('A' for Active; 'I' for Inactive)
REMARK    1  A    between atoms: C_1  and  O_2
REMARK    2  A    between atoms: O_2  and  C_3
REMARK    3  A    between atoms: C_6  and  C_7
REMARK    4  A    between atoms: C_12  and  C_13
REMARK                            x       y       z     vdW  Elec       q    Type
REMARK                         _______ _______ _______ _____ _____    ______ ____
ROOT
ATOM      1  C   UNL     1       3.071   6.178  18.871  0.00  0.00    +0.000 C 
ATOM      2  C   UNL     1       2.192   4.952  19.141  0.00  0.00    +0.000 C 
ATOM      3  C   UNL     1       2.964   3.670  18.920  0.00  0.00    +0.000 C 
ATOM      4  O   UNL     1       2.699   2.637  19.526  0.00  0.00    +0.000 OA
ATOM      5  C   UNL     1       4.009   3.645  17.870  0.00  0.00    +0.000 C 
ATOM      6  C   UNL     1       4.321   4.761  17.195  0.00  0.00    +0.000 C 
ATOM      7  C   UNL     1       3.705   6.109  17.467  0.00  0.00    +0.000 C 
ENDROOT
BRANCH   6   8
ATOM      8  C   UNL     1       5.333   4.687  16.133  0.00  0.00    +0.000 A 
ATOM      9  C   UNL     1       6.607   5.235  16.335  0.00  0.00    +0.000 A 
ATOM     10  C   UNL     1       7.559   5.198  15.316  0.00  0.00    +0.000 A 
ATOM     11  C   UNL     1       7.245   4.615  14.088  0.00  0.00    +0.000 A 
ATOM     12  C   UNL     1       5.979   4.069  13.886  0.00  0.00    +0.000 A 
ATOM     13 CL   UNL     1       5.591   3.353  12.370  0.00  0.00    +0.000 Cl
ATOM     14  C   UNL     1       5.021   4.103  14.899  0.00  0.00    +0.000 A 
ENDBRANCH   6   8
BRANCH   1  18
ATOM     15  C   UNL     1       0.876   9.872  19.496  0.00  0.00    +0.000 A 
ATOM     16  C   UNL     1       1.038   8.957  20.534  0.00  0.00    +0.000 A 
ATOM     17  C   UNL     1       1.754   7.771  20.335  0.00  0.00    +0.000 A 
ATOM     18  C   UNL     1       2.304   7.473  19.081  0.00  0.00    +0.000 A 
ATOM     19  C   UNL     1       2.115   8.391  18.037  0.00  0.00    +0.000 A 
ATOM     20  C   UNL     1       1.406   9.580  18.242  0.00  0.00    +0.000 A 
BRANCH  15  22
ATOM     21  C   UNL     1      -1.187  11.016  19.323  0.00  0.00    +0.000 C 
ATOM     22  O   UNL     1       0.152  10.991  19.806  0.00  0.00    +0.000 OA
ENDBRANCH  15  22
ENDBRANCH   1  18
TORSDOF 3
ENDMDL
MODEL 7
REMARK VINA RESULT:      -7.9      3.436      7.509
REMARK  Name = 
REMARK  4 active torsions:
REMARK  status: ('A' for Active; 'I' for Inactive)
REMARK    1  A    between atoms: C_1  and  O_2
REMARK    2  A    between atoms: O_2  and  C_3
REMARK    3  A    between atoms: C_6  and  C_7
REMARK    4  A    between atoms: C_12  and  C_13
REMARK                            x       y       z     vdW  Elec       q    Type
REMARK                         _______ _______ _______ _____ _____    ______ ____
ROOT
ATOM      1  C   UNL     1       2.612   6.380  20.054  0.00  0.00    +0.000 C 
ATOM      2  C   UNL     1       1.710   5.182  20.369  0.00  0.00    +0.000 C 
ATOM      3  C   UNL     1       2.496   3.890  20.350  0.00  0.00    +0.000 C 
ATOM      4  O   UNL     1       2.176   2.922  21.033  0.00  0.00    +0.000 OA
ATOM      5  C   UNL     1       3.630   3.764  19.405  0.00  0.00    +0.000 C 
ATOM      6  C   UNL     1       4.002   4.808  18.648  0.00  0.00    +0.000 C 
ATOM      7  C   UNL     1       3.368   6.172  18.726  0.00  0.00    +0.000 C 
ENDROOT
BRANCH   6   8
ATOM      8  C   UNL     1       5.104   4.632  17.693  0.00  0.00    +0.000 A 
ATOM      9  C   UNL     1       6.434   4.728  18.126  0.00  0.00    +0.000 A 
ATOM     10  C   UNL     1       7.483   4.597  17.216  0.00  0.00    +0.000 A 
ATOM     11  C   UNL     1       7.211   4.371  15.866  0.00  0.00    +0.000 A 
ATOM     12  C   UNL     1       5.890   4.274  15.434  0.00  0.00    +0.000 A 
ATOM     13 CL   UNL     1       5.555   3.999  13.769  0.00  0.00    +0.000 Cl
ATOM     14  C   UNL     1       4.836   4.406  16.338  0.00  0.00    +0.000 A 
ENDBRANCH   6   8
BRANCH   1  18
ATOM     15  C   UNL     1       0.379  10.104  20.099  0.00  0.00    +0.000 A 
ATOM     16  C   UNL     1       0.410   9.279  21.223  0.00  0.00    +0.000 A 
ATOM     17  C   UNL     1       1.138   8.084  21.210  0.00  0.00    +0.000 A 
ATOM     18  C   UNL     1       1.833   7.685  20.061  0.00  0.00    +0.000 A 
ATOM     19  C   UNL     1       1.776   8.512  18.929  0.00  0.00    +0.000 A 
ATOM     20  C   UNL     1       1.055   9.711  18.947  0.00  0.00    +0.000 A 
BRANCH  15  22
ATOM     21  C   UNL     1      -0.089  12.044  21.367  0.00  0.00    +0.000 C 
ATOM     22  O   UNL     1      -0.370  11.241  20.226  0.00  0.00    +0.000 OA
ENDBRANCH  15  22
ENDBRANCH   1  18
TORSDOF 3
ENDMDL
MODEL 8
REMARK VINA RESULT:      -7.9      1.103      1.501
REMARK  Name = 
REMARK  4 active torsions:
REMARK  status: ('A' for Active; 'I' for Inactive)
REMARK    1  A    between atoms: C_1  and  O_2
REMARK    2  A    between atoms: O_2  and  C_3
REMARK    3  A    between atoms: C_6  and  C_7
REMARK    4  A    between atoms: C_12  and  C_13
REMARK                            x       y       z     vdW  Elec       q    Type
REMARK                         _______ _______ _______ _____ _____    ______ ____
ROOT
ATOM      1  C   UNL     1       2.888   5.398  18.460  0.00  0.00    +0.000 C 
ATOM      2  C   UNL     1       3.132   4.390  19.588  0.00  0.00    +0.000 C 
ATOM      3  C   UNL     1       2.096   4.535  20.680  0.00  0.00    +0.000 C 
ATOM      4  O   UNL     1       1.753   3.590  21.384  0.00  0.00    +0.000 OA
ATOM      5  C   UNL     1       1.550   5.883  20.965  0.00  0.00    +0.000 C 
ATOM      6  C   UNL     1       1.906   6.933  20.209  0.00  0.00    +0.000 C 
ATOM      7  C   UNL     1       2.810   6.837  19.008  0.00  0.00    +0.000 C 
ENDROOT
BRANCH   6   8
ATOM      8  C   UNL     1       1.377   8.260  20.548  0.00  0.00    +0.000 A 
ATOM      9  C   UNL     1       1.023   8.560  21.871  0.00  0.00    +0.000 A 
ATOM     10  C   UNL     1       0.486   9.808  22.191  0.00  0.00    +0.000 A 
ATOM     11  C   UNL     1       0.298  10.764  21.193  0.00  0.00    +0.000 A 
ATOM     12  C   UNL     1       0.651  10.467  19.878  0.00  0.00    +0.000 A 
ATOM     13 CL   UNL     1       0.416  11.646  18.645  0.00  0.00    +0.000 Cl
ATOM     14  C   UNL     1       1.186   9.222  19.549  0.00  0.00    +0.000 A 
ENDBRANCH   6   8
BRANCH   1  18
ATOM     15  C   UNL     1       5.859   5.003  15.317  0.00  0.00    +0.000 A 
ATOM     16  C   UNL     1       5.306   3.874  15.920  0.00  0.00    +0.000 A 
ATOM     17  C   UNL     1       4.342   4.002  16.926  0.00  0.00    +0.000 A 
ATOM     18  C   UNL     1       3.928   5.269  17.359  0.00  0.00    +0.000 A 
ATOM     19  C   UNL     1       4.508   6.398  16.762  0.00  0.00    +0.000 A 
ATOM     20  C   UNL     1       5.466   6.267  15.750  0.00  0.00    +0.000 A 
BRANCH  15  22
ATOM     21  C   UNL     1       6.394   3.871  13.312  0.00  0.00    +0.000 C 
ATOM     22  O   UNL     1       6.796   4.755  14.353  0.00  0.00    +0.000 OA
ENDBRANCH  15  22
ENDBRANCH   1  18
TORSDOF 3
ENDMDL
MODEL 9
REMARK VINA RESULT:      -7.7      1.300      1.874
REMARK  Name = 
REMARK  4 active torsions:
REMARK  status: ('A' for Active; 'I' for Inactive)
REMARK    1  A    between atoms: C_1  and  O_2
REMARK    2  A    between atoms: O_2  and  C_3
REMARK    3  A    between atoms: C_6  and  C_7
REMARK    4  A    between atoms: C_12  and  C_13
REMARK                            x       y       z     vdW  Elec       q    Type
REMARK                         _______ _______ _______ _____ _____    ______ ____
ROOT
ATOM      1  C   UNL     1       3.411   5.159  18.456  0.00  0.00    +0.000 C 
ATOM      2  C   UNL     1       3.651   4.173  19.603  0.00  0.00    +0.000 C 
ATOM      3  C   UNL     1       2.511   4.205  20.596  0.00  0.00    +0.000 C 
ATOM      4  O   UNL     1       2.203   3.225  21.268  0.00  0.00    +0.000 OA
ATOM      5  C   UNL     1       1.808   5.489  20.827  0.00  0.00    +0.000 C 
ATOM      6  C   UNL     1       2.123   6.575  20.104  0.00  0.00    +0.000 C 
ATOM      7  C   UNL     1       3.138   6.580  18.991  0.00  0.00    +0.000 C 
ENDROOT
BRANCH   6   8
ATOM      8  C   UNL     1       1.434   7.839  20.391  0.00  0.00    +0.000 A 
ATOM      9  C   UNL     1       0.695   7.986  21.573  0.00  0.00    +0.000 A 
ATOM     10  C   UNL     1       0.008   9.173  21.832  0.00  0.00    +0.000 A 
ATOM     11  C   UNL     1       0.054  10.221  20.912  0.00  0.00    +0.000 A 
ATOM     12  C   UNL     1       0.790  10.077  19.738  0.00  0.00    +0.000 A 
ATOM     13 CL   UNL     1       0.844  11.368  18.601  0.00  0.00    +0.000 Cl
ATOM     14  C   UNL     1       1.477   8.893  19.470  0.00  0.00    +0.000 A 
ENDBRANCH   6   8
BRANCH   1  18
ATOM     15  C   UNL     1       6.689   5.137  15.607  0.00  0.00    +0.000 A 
ATOM     16  C   UNL     1       6.650   6.072  16.640  0.00  0.00    +0.000 A 
ATOM     17  C   UNL     1       5.598   6.073  17.563  0.00  0.00    +0.000 A 
ATOM     18  C   UNL     1       4.554   5.144  17.455  0.00  0.00    +0.000 A 
ATOM     19  C   UNL     1       4.592   4.222  16.398  0.00  0.00    +0.000 A 
ATOM     20  C   UNL     1       5.650   4.218  15.482  0.00  0.00    +0.000 A 
BRANCH  15  22
ATOM     21  C   UNL     1       7.498   4.949  13.394  0.00  0.00    +0.000 C 
ATOM     22  O   UNL     1       7.760   5.238  14.763  0.00  0.00    +0.000 OA
ENDBRANCH  15  22
ENDBRANCH   1  18
TORSDOF 3
ENDMDL
