MODEL 1
REMARK VINA RESULT:      -5.8      0.000      0.000
REMARK  Name = 
REMARK  6 active torsions:
REMARK  status: ('A' for Active; 'I' for Inactive)
REMARK    1  A    between atoms: C_1  and  O_2
REMARK    2  A    between atoms: O_2  and  C_3
REMARK    3  A    between atoms: C_7  and  C_8
REMARK    4  A    between atoms: N_9  and  N_10
REMARK    5  A    between atoms: N_10  and  C_11
REMARK    6  A    between atoms: C_11  and  N_12
REMARK                            x       y       z     vdW  Elec       q    Type
REMARK                         _______ _______ _______ _____ _____    ______ ____
ROOT
ATOM      1  C   UNL     1       4.841   3.976  18.460  0.00  0.00    +0.000 C 
ATOM      2  N   UNL     1       5.956   4.308  19.027  0.00  0.00    +0.000 NA
ENDROOT
BRANCH   1   7
ATOM      3  C   UNL     1       1.930   5.343  20.405  0.00  0.00    +0.000 A 
ATOM      4  C   UNL     1       1.203   4.174  20.656  0.00  0.00    +0.000 A 
ATOM      5  C   UNL     1       1.654   2.941  20.184  0.00  0.00    +0.000 A 
ATOM      6  C   UNL     1       2.840   2.871  19.457  0.00  0.00    +0.000 A 
ATOM      7  C   UNL     1       3.570   4.034  19.206  0.00  0.00    +0.000 A 
ATOM      8  C   UNL     1       3.118   5.271  19.672  0.00  0.00    +0.000 A 
BRANCH   3  10
ATOM      9  C   UNL     1       1.801   7.709  20.318  0.00  0.00    +0.000 C 
ATOM     10  O   UNL     1       1.397   6.489  20.931  0.00  0.00    +0.000 OA
ENDBRANCH   3  10
ENDBRANCH   1   7
BRANCH   2  11
ATOM     11  N   UNL     1       7.066   4.226  18.241  0.00  0.00    +0.000 N 
ATOM     12  H   UNL     1       7.738   3.473  18.357  0.00  0.00    +0.000 HD
BRANCH  11  13
ATOM     13  C   UNL     1       7.307   5.172  17.281  0.00  0.00    +0.000 C 
ATOM     14  S   UNL     1       7.307   6.797  17.609  0.00  0.00    +0.000 S 
BRANCH  13  15
ATOM     15  N   UNL     1       7.548   4.687  16.039  0.00  0.00    +0.000 N 
ATOM     16  H   UNL     1       8.495   4.769  15.694  0.00  0.00    +0.000 HD
ATOM     17  H   UNL     1       6.845   4.184  15.519  0.00  0.00    +0.000 HD
ENDBRANCH  13  15
ENDBRANCH  11  13
ENDBRANCH   2  11
TORSDOF 5
ENDMDL
MODEL 2
REMARK VINA RESULT:      -5.7      2.195      2.697
REMARK  Name = 
REMARK  6 active torsions:
REMARK  status: ('A' for Active; 'I' for Inactive)
REMARK    1  A    between atoms: C_1  and  O_2
REMARK    2  A    between atoms: O_2  and  C_3
REMARK    3  A    between atoms: C_7  and  C_8
REMARK    4  A    between atoms: N_9  and  N_10
REMARK    5  A    between atoms: N_10  and  C_11
REMARK    6  A    between atoms: C_11  and  N_12
REMARK                            x       y       z     vdW  Elec       q    Type
REMARK                         _______ _______ _______ _____ _____    ______ ____
ROOT
ATOM      1  C   UNL     1       5.066   4.290  17.920  0.00  0.00    +0.000 C 
ATOM      2  N   UNL     1       5.993   4.059  18.794  0.00  0.00    +0.000 NA
ENDROOT
BRANCH   1   7
ATOM      3  C   UNL     1       2.050   2.802  19.599  0.00  0.00    +0.000 A 
ATOM      4  C   UNL     1       1.030   3.224  18.740  0.00  0.00    +0.000 A 
ATOM      5  C   UNL     1       1.320   4.003  17.619  0.00  0.00    +0.000 A 
ATOM      6  C   UNL     1       2.639   4.362  17.350  0.00  0.00    +0.000 A 
ATOM      7  C   UNL     1       3.660   3.940  18.202  0.00  0.00    +0.000 A 
ATOM      8  C   UNL     1       3.373   3.167  19.329  0.00  0.00    +0.000 A 
BRANCH   3  10
ATOM      9  C   UNL     1       1.574   2.684  21.919  0.00  0.00    +0.000 C 
ATOM     10  O   UNL     1       1.646   2.031  20.655  0.00  0.00    +0.000 OA
ENDBRANCH   3  10
ENDBRANCH   1   7
BRANCH   2  11
ATOM     11  N   UNL     1       7.252   4.431  18.430  0.00  0.00    +0.000 N 
ATOM     12  H   UNL     1       7.820   3.843  17.829  0.00  0.00    +0.000 HD
BRANCH  11  13
ATOM     13  C   UNL     1       7.786   5.607  18.885  0.00  0.00    +0.000 C 
ATOM     14  S   UNL     1       7.745   7.008  17.999  0.00  0.00    +0.000 S 
BRANCH  13  15
ATOM     15  N   UNL     1       8.354   5.547  20.113  0.00  0.00    +0.000 N 
ATOM     16  H   UNL     1       8.555   6.430  20.565  0.00  0.00    +0.000 HD
ATOM     17  H   UNL     1       8.484   4.672  20.597  0.00  0.00    +0.000 HD
ENDBRANCH  13  15
ENDBRANCH  11  13
ENDBRANCH   2  11
TORSDOF 5
ENDMDL
MODEL 3
REMARK VINA RESULT:      -5.7      3.811      5.741
REMARK  Name = 
REMARK  6 active torsions:
REMARK  status: ('A' for Active; 'I' for Inactive)
REMARK    1  A    between atoms: C_1  and  O_2
REMARK    2  A    between atoms: O_2  and  C_3
REMARK    3  A    between atoms: C_7  and  C_8
REMARK    4  A    between atoms: N_9  and  N_10
REMARK    5  A    between atoms: N_10  and  C_11
REMARK    6  A    between atoms: C_11  and  N_12
REMARK                            x       y       z     vdW  Elec       q    Type
REMARK                         _______ _______ _______ _____ _____    ______ ____
ROOT
ATOM      1  C   UNL     1       4.352   4.615  19.333  0.00  0.00    +0.000 C 
ATOM      2  N   UNL     1       3.269   5.283  19.575  0.00  0.00    +0.000 NA
ENDROOT
BRANCH   1   7
ATOM      3  C   UNL     1       6.747   6.043  16.813  0.00  0.00    +0.000 A 
ATOM      4  C   UNL     1       6.472   5.244  15.698  0.00  0.00    +0.000 A 
ATOM      5  C   UNL     1       5.513   4.232  15.768  0.00  0.00    +0.000 A 
ATOM      6  C   UNL     1       4.821   4.016  16.958  0.00  0.00    +0.000 A 
ATOM      7  C   UNL     1       5.092   4.813  18.071  0.00  0.00    +0.000 A 
ATOM      8  C   UNL     1       6.055   5.822  18.007  0.00  0.00    +0.000 A 
BRANCH   3  10
ATOM      9  C   UNL     1       7.778   8.018  17.622  0.00  0.00    +0.000 C 
ATOM     10  O   UNL     1       7.695   7.011  16.619  0.00  0.00    +0.000 OA
ENDBRANCH   3  10
ENDBRANCH   1   7
BRANCH   2  11
ATOM     11  N   UNL     1       2.675   5.027  20.775  0.00  0.00    +0.000 N 
ATOM     12  H   UNL     1       2.753   5.680  21.549  0.00  0.00    +0.000 HD
BRANCH  11  13
ATOM     13  C   UNL     1       1.969   3.870  20.966  0.00  0.00    +0.000 C 
ATOM     14  S   UNL     1       0.889   3.288  19.850  0.00  0.00    +0.000 S 
BRANCH  13  15
ATOM     15  N   UNL     1       2.213   3.230  22.135  0.00  0.00    +0.000 N 
ATOM     16  H   UNL     1       2.265   2.221  22.098  0.00  0.00    +0.000 HD
ATOM     17  H   UNL     1       2.428   3.734  22.982  0.00  0.00    +0.000 HD
ENDBRANCH  13  15
ENDBRANCH  11  13
ENDBRANCH   2  11
TORSDOF 5
ENDMDL
MODEL 4
REMARK VINA RESULT:      -5.7      3.823      5.739
REMARK  Name = 
REMARK  6 active torsions:
REMARK  status: ('A' for Active; 'I' for Inactive)
REMARK    1  A    between atoms: C_1  and  O_2
REMARK    2  A    between atoms: O_2  and  C_3
REMARK    3  A    between atoms: C_7  and  C_8
REMARK    4  A    between atoms: N_9  and  N_10
REMARK    5  A    between atoms: N_10  and  C_11
REMARK    6  A    between atoms: C_11  and  N_12
REMARK                            x       y       z     vdW  Elec       q    Type
REMARK                         _______ _______ _______ _____ _____    ______ ____
ROOT
ATOM      1  C   UNL     1       4.680   3.954  19.160  0.00  0.00    +0.000 C 
ATOM      2  N   UNL     1       3.972   2.873  19.231  0.00  0.00    +0.000 NA
ENDROOT
BRANCH   1   7
ATOM      3  C   UNL     1       6.724   5.879  16.661  0.00  0.00    +0.000 A 
ATOM      4  C   UNL     1       6.297   5.300  15.462  0.00  0.00    +0.000 A 
ATOM      5  C   UNL     1       5.351   4.274  15.465  0.00  0.00    +0.000 A 
ATOM      6  C   UNL     1       4.824   3.823  16.673  0.00  0.00    +0.000 A 
ATOM      7  C   UNL     1       5.245   4.401  17.871  0.00  0.00    +0.000 A 
ATOM      8  C   UNL     1       6.197   5.423  17.873  0.00  0.00    +0.000 A 
BRANCH   3  10
ATOM      9  C   UNL     1       7.710   7.818  17.605  0.00  0.00    +0.000 C 
ATOM     10  O   UNL     1       7.643   6.886  16.531  0.00  0.00    +0.000 OA
ENDBRANCH   3  10
ENDBRANCH   1   7
BRANCH   2  11
ATOM     11  N   UNL     1       3.493   2.562  20.468  0.00  0.00    +0.000 N 
ATOM     12  H   UNL     1       4.088   2.130  21.168  0.00  0.00    +0.000 HD
BRANCH  11  13
ATOM     13  C   UNL     1       2.186   2.812  20.788  0.00  0.00    +0.000 C 
ATOM     14  S   UNL     1       1.011   3.034  19.639  0.00  0.00    +0.000 S 
BRANCH  13  15
ATOM     15  N   UNL     1       1.916   2.868  22.115  0.00  0.00    +0.000 N 
ATOM     16  H   UNL     1       1.409   3.679  22.443  0.00  0.00    +0.000 HD
ATOM     17  H   UNL     1       2.122   2.097  22.732  0.00  0.00    +0.000 HD
ENDBRANCH  13  15
ENDBRANCH  11  13
ENDBRANCH   2  11
TORSDOF 5
ENDMDL
MODEL 5
REMARK VINA RESULT:      -5.6      3.873      5.901
REMARK  Name = 
REMARK  6 active torsions:
REMARK  status: ('A' for Active; 'I' for Inactive)
REMARK    1  A    between atoms: C_1  and  O_2
REMARK    2  A    between atoms: O_2  and  C_3
REMARK    3  A    between atoms: C_7  and  C_8
REMARK    4  A    between atoms: N_9  and  N_10
REMARK    5  A    between atoms: N_10  and  C_11
REMARK    6  A    between atoms: C_11  and  N_12
REMARK                            x       y       z     vdW  Elec       q    Type
REMARK                         _______ _______ _______ _____ _____    ______ ____
ROOT
ATOM      1  C   UNL     1       3.337   5.093  17.923  0.00  0.00    +0.000 C 
ATOM      2  N   UNL     1       3.191   4.412  19.014  0.00  0.00    +0.000 NA
ENDROOT
BRANCH   1   7
ATOM      3  C   UNL     1       6.722   5.934  16.521  0.00  0.00    +0.000 A 
ATOM      4  C   UNL     1       6.918   4.869  15.635  0.00  0.00    +0.000 A 
ATOM      5  C   UNL     1       5.953   3.870  15.501  0.00  0.00    +0.000 A 
ATOM      6  C   UNL     1       4.782   3.933  16.253  0.00  0.00    +0.000 A 
ATOM      7  C   UNL     1       4.582   4.995  17.136  0.00  0.00    +0.000 A 
ATOM      8  C   UNL     1       5.548   5.994  17.278  0.00  0.00    +0.000 A 
BRANCH   3  10
ATOM      9  C   UNL     1       7.676   7.808  17.617  0.00  0.00    +0.000 C 
ATOM     10  O   UNL     1       7.729   6.860  16.556  0.00  0.00    +0.000 OA
ENDBRANCH   3  10
ENDBRANCH   1   7
BRANCH   2  11
ATOM     11  N   UNL     1       1.998   4.572  19.653  0.00  0.00    +0.000 N 
ATOM     12  H   UNL     1       1.519   5.468  19.655  0.00  0.00    +0.000 HD
BRANCH  11  13
ATOM     13  C   UNL     1       1.425   3.526  20.325  0.00  0.00    +0.000 C 
ATOM     14  S   UNL     1       2.073   2.894  21.714  0.00  0.00    +0.000 S 
BRANCH  13  15
ATOM     15  N   UNL     1       0.286   3.040  19.775  0.00  0.00    +0.000 N 
ATOM     16  H   UNL     1       0.060   3.358  18.841  0.00  0.00    +0.000 HD
ATOM     17  H   UNL     1      -0.261   2.325  20.229  0.00  0.00    +0.000 HD
ENDBRANCH  13  15
ENDBRANCH  11  13
ENDBRANCH   2  11
TORSDOF 5
ENDMDL
MODEL 6
REMARK VINA RESULT:      -5.6      2.204      2.951
REMARK  Name = 
REMARK  6 active torsions:
REMARK  status: ('A' for Active; 'I' for Inactive)
REMARK    1  A    between atoms: C_1  and  O_2
REMARK    2  A    between atoms: O_2  and  C_3
REMARK    3  A    between atoms: C_7  and  C_8
REMARK    4  A    between atoms: N_9  and  N_10
REMARK    5  A    between atoms: N_10  and  C_11
REMARK    6  A    between atoms: C_11  and  N_12
REMARK                            x       y       z     vdW  Elec       q    Type
REMARK                         _______ _______ _______ _____ _____    ______ ____
ROOT
ATOM      1  C   UNL     1       4.205   3.880  17.064  0.00  0.00    +0.000 C 
ATOM      2  N   UNL     1       5.461   4.149  16.902  0.00  0.00    +0.000 NA
ENDROOT
BRANCH   1   7
ATOM      3  C   UNL     1       1.837   4.329  19.948  0.00  0.00    +0.000 A 
ATOM      4  C   UNL     1       1.919   5.711  20.150  0.00  0.00    +0.000 A 
ATOM      5  C   UNL     1       2.754   6.497  19.354  0.00  0.00    +0.000 A 
ATOM      6  C   UNL     1       3.510   5.903  18.348  0.00  0.00    +0.000 A 
ATOM      7  C   UNL     1       3.429   4.525  18.141  0.00  0.00    +0.000 A 
ATOM      8  C   UNL     1       2.600   3.733  18.940  0.00  0.00    +0.000 A 
BRANCH   3  10
ATOM      9  C   UNL     1       1.551   2.675  21.623  0.00  0.00    +0.000 C 
ATOM     10  O   UNL     1       0.974   3.666  20.778  0.00  0.00    +0.000 OA
ENDBRANCH   3  10
ENDBRANCH   1   7
BRANCH   2  11
ATOM     11  N   UNL     1       6.074   3.504  15.870  0.00  0.00    +0.000 N 
ATOM     12  H   UNL     1       6.195   2.496  15.879  0.00  0.00    +0.000 HD
BRANCH  11  13
ATOM     13  C   UNL     1       6.556   4.208  14.800  0.00  0.00    +0.000 C 
ATOM     14  S   UNL     1       6.138   3.853  13.236  0.00  0.00    +0.000 S 
BRANCH  13  15
ATOM     15  N   UNL     1       7.403   5.220  15.108  0.00  0.00    +0.000 N 
ATOM     16  H   UNL     1       7.366   5.572  16.055  0.00  0.00    +0.000 HD
ATOM     17  H   UNL     1       8.102   5.544  14.458  0.00  0.00    +0.000 HD
ENDBRANCH  13  15
ENDBRANCH  11  13
ENDBRANCH   2  11
TORSDOF 5
ENDMDL
MODEL 7
REMARK VINA RESULT:      -5.6      3.895      5.931
REMARK  Name = 
REMARK  6 active torsions:
REMARK  status: ('A' for Active; 'I' for Inactive)
REMARK    1  A    between atoms: C_1  and  O_2
REMARK    2  A    between atoms: O_2  and  C_3
REMARK    3  A    between atoms: C_7  and  C_8
REMARK    4  A    between atoms: N_9  and  N_10
REMARK    5  A    between atoms: N_10  and  C_11
REMARK    6  A    between atoms: C_11  and  N_12
REMARK                            x       y       z     vdW  Elec       q    Type
REMARK                         _______ _______ _______ _____ _____    ______ ____
ROOT
ATOM      1  C   UNL     1       4.911   3.711  19.275  0.00  0.00    +0.000 C 
ATOM      2  N   UNL     1       4.081   2.932  18.660  0.00  0.00    +0.000 NA
ENDROOT
BRANCH   1   7
ATOM      3  C   UNL     1       6.379   5.641  16.403  0.00  0.00    +0.000 A 
ATOM      4  C   UNL     1       7.334   6.421  17.064  0.00  0.00    +0.000 A 
ATOM      5  C   UNL     1       7.494   6.328  18.447  0.00  0.00    +0.000 A 
ATOM      6  C   UNL     1       6.698   5.449  19.177  0.00  0.00    +0.000 A 
ATOM      7  C   UNL     1       5.746   4.667  18.521  0.00  0.00    +0.000 A 
ATOM      8  C   UNL     1       5.579   4.761  17.138  0.00  0.00    +0.000 A 
BRANCH   3  10
ATOM      9  C   UNL     1       6.697   4.680  14.258  0.00  0.00    +0.000 C 
ATOM     10  O   UNL     1       6.325   5.807  15.045  0.00  0.00    +0.000 OA
ENDBRANCH   3  10
ENDBRANCH   1   7
BRANCH   2  11
ATOM     11  N   UNL     1       3.354   2.098  19.456  0.00  0.00    +0.000 N 
ATOM     12  H   UNL     1       3.789   1.310  19.926  0.00  0.00    +0.000 HD
BRANCH  11  13
ATOM     13  C   UNL     1       2.011   2.297  19.627  0.00  0.00    +0.000 C 
ATOM     14  S   UNL     1       1.379   3.004  20.987  0.00  0.00    +0.000 S 
BRANCH  13  15
ATOM     15  N   UNL     1       1.229   1.877  18.603  0.00  0.00    +0.000 N 
ATOM     16  H   UNL     1       1.140   0.877  18.480  0.00  0.00    +0.000 HD
ATOM     17  H   UNL     1       0.685   2.521  18.051  0.00  0.00    +0.000 HD
ENDBRANCH  13  15
ENDBRANCH  11  13
ENDBRANCH   2  11
TORSDOF 5
ENDMDL
MODEL 8
REMARK VINA RESULT:      -5.6      1.103      1.103
REMARK  Name = 
REMARK  6 active torsions:
REMARK  status: ('A' for Active; 'I' for Inactive)
REMARK    1  A    between atoms: C_1  and  O_2
REMARK    2  A    between atoms: O_2  and  C_3
REMARK    3  A    between atoms: C_7  and  C_8
REMARK    4  A    between atoms: N_9  and  N_10
REMARK    5  A    between atoms: N_10  and  C_11
REMARK    6  A    between atoms: C_11  and  N_12
REMARK                            x       y       z     vdW  Elec       q    Type
REMARK                         _______ _______ _______ _____ _____    ______ ____
ROOT
ATOM      1  C   UNL     1       4.935   3.949  18.338  0.00  0.00    +0.000 C 
ATOM      2  N   UNL     1       6.084   4.384  18.746  0.00  0.00    +0.000 NA
ENDROOT
BRANCH   1   7
ATOM      3  C   UNL     1       2.124   5.340  20.409  0.00  0.00    +0.000 A 
ATOM      4  C   UNL     1       1.550   4.165  20.906  0.00  0.00    +0.000 A 
ATOM      5  C   UNL     1       2.071   2.917  20.559  0.00  0.00    +0.000 A 
ATOM      6  C   UNL     1       3.174   2.840  19.712  0.00  0.00    +0.000 A 
ATOM      7  C   UNL     1       3.751   4.010  19.216  0.00  0.00    +0.000 A 
ATOM      8  C   UNL     1       3.229   5.260  19.556  0.00  0.00    +0.000 A 
BRANCH   3  10
ATOM      9  C   UNL     1       1.895   7.682  20.118  0.00  0.00    +0.000 C 
ATOM     10  O   UNL     1       1.537   6.503  20.831  0.00  0.00    +0.000 OA
ENDBRANCH   3  10
ENDBRANCH   1   7
BRANCH   2  11
ATOM     11  N   UNL     1       7.104   4.287  17.849  0.00  0.00    +0.000 N 
ATOM     12  H   UNL     1       7.913   3.702  18.034  0.00  0.00    +0.000 HD
BRANCH  11  13
ATOM     13  C   UNL     1       7.067   4.994  16.677  0.00  0.00    +0.000 C 
ATOM     14  S   UNL     1       6.615   4.310  15.236  0.00  0.00    +0.000 S 
BRANCH  13  15
ATOM     15  N   UNL     1       7.425   6.297  16.775  0.00  0.00    +0.000 N 
ATOM     16  H   UNL     1       7.237   6.882  15.972  0.00  0.00    +0.000 HD
ATOM     17  H   UNL     1       7.772   6.689  17.637  0.00  0.00    +0.000 HD
ENDBRANCH  13  15
ENDBRANCH  11  13
ENDBRANCH   2  11
TORSDOF 5
ENDMDL
MODEL 9
REMARK VINA RESULT:      -5.5      2.864      3.844
REMARK  Name = 
REMARK  6 active torsions:
REMARK  status: ('A' for Active; 'I' for Inactive)
REMARK    1  A    between atoms: C_1  and  O_2
REMARK    2  A    between atoms: O_2  and  C_3
REMARK    3  A    between atoms: C_7  and  C_8
REMARK    4  A    between atoms: N_9  and  N_10
REMARK    5  A    between atoms: N_10  and  C_11
REMARK    6  A    between atoms: C_11  and  N_12
REMARK                            x       y       z     vdW  Elec       q    Type
REMARK                         _______ _______ _______ _____ _____    ______ ____
ROOT
ATOM      1  C   UNL     1       5.755   4.625  16.306  0.00  0.00    +0.000 C 
ATOM      2  N   UNL     1       6.307   5.532  15.565  0.00  0.00    +0.000 NA
ENDROOT
BRANCH   1   7
ATOM      3  C   UNL     1       2.308   4.098  17.709  0.00  0.00    +0.000 A 
ATOM      4  C   UNL     1       2.038   5.364  18.240  0.00  0.00    +0.000 A 
ATOM      5  C   UNL     1       2.982   6.388  18.151  0.00  0.00    +0.000 A 
ATOM      6  C   UNL     1       4.204   6.150  17.527  0.00  0.00    +0.000 A 
ATOM      7  C   UNL     1       4.476   4.889  16.994  0.00  0.00    +0.000 A 
ATOM      8  C   UNL     1       3.537   3.860  17.086  0.00  0.00    +0.000 A 
BRANCH   3  10
ATOM      9  C   UNL     1       1.429   2.260  18.921  0.00  0.00    +0.000 C 
ATOM     10  O   UNL     1       1.302   3.180  17.842  0.00  0.00    +0.000 OA
ENDBRANCH   3  10
ENDBRANCH   1   7
BRANCH   2  11
ATOM     11  N   UNL     1       7.480   5.175  14.972  0.00  0.00    +0.000 N 
ATOM     12  H   UNL     1       8.322   5.026  15.520  0.00  0.00    +0.000 HD
BRANCH  11  13
ATOM     13  C   UNL     1       7.553   5.026  13.613  0.00  0.00    +0.000 C 
ATOM     14  S   UNL     1       6.642   3.914  12.787  0.00  0.00    +0.000 S 
BRANCH  13  15
ATOM     15  N   UNL     1       8.424   5.853  12.986  0.00  0.00    +0.000 N 
ATOM     16  H   UNL     1       8.420   5.836  11.974  0.00  0.00    +0.000 HD
ATOM     17  H   UNL     1       8.981   6.522  13.494  0.00  0.00    +0.000 HD
ENDBRANCH  13  15
ENDBRANCH  11  13
ENDBRANCH   2  11
TORSDOF 5
ENDMDL
