MODEL 1
REMARK VINA RESULT:      -6.8      0.000      0.000
REMARK  Name = 
REMARK  12 active torsions:
REMARK  status: ('A' for Active; 'I' for Inactive)
REMARK    1  A    between atoms: C_1  and  C_2
REMARK    2  A    between atoms: C_2  and  O_3
REMARK    3  A    between atoms: O_3  and  C_4
REMARK    4  A    between atoms: C_13  and  C_14
REMARK    5  A    between atoms: C_14  and  C_15
REMARK    6  A    between atoms: C_16  and  C_17
REMARK    7  A    between atoms: C_17  and  C_18
REMARK    8  A    between atoms: C_23  and  O_25
REMARK    9  A    between atoms: O_25  and  C_26
REMARK   10  A    between atoms: C_26  and  C_27
REMARK   11  A    between atoms: C_26  and  C_28
REMARK   12  A    between atoms: C_26  and  C_29
REMARK                            x       y       z     vdW  Elec       q    Type
REMARK                         _______ _______ _______ _____ _____    ______ ____
ROOT
ATOM      1  C   UNL     1       5.129   5.045  17.017  0.00  0.00    +0.000 C 
ATOM      2  C   UNL     1       4.065   5.003  17.847  0.00  0.00    +0.000 C 
ATOM      3  C   UNL     1       3.435   6.244  18.138  0.00  0.00    +0.000 A 
ATOM      4  C   UNL     1       3.544   7.362  17.340  0.00  0.00    +0.000 A 
ATOM      5  C   UNL     1       2.703   8.356  17.870  0.00  0.00    +0.000 A 
ATOM      6  C   UNL     1       2.379   9.644  17.437  0.00  0.00    +0.000 A 
ATOM      7  C   UNL     1       1.567  10.408  18.247  0.00  0.00    +0.000 A 
ATOM      8  N   UNL     1       1.133   9.975  19.438  0.00  0.00    +0.000 N 
ATOM      9  N   UNL     1       0.425  10.871  20.116  0.00  0.00    +0.000 NA
ATOM     10  C   UNL     1      -0.050  10.613  21.349  0.00  0.00    +0.000 A 
ATOM     11  C   UNL     1       0.180   9.403  21.999  0.00  0.00    +0.000 A 
ATOM     12  C   UNL     1       0.946   8.481  21.281  0.00  0.00    +0.000 A 
ATOM     13  C   UNL     1       1.408   8.738  19.951  0.00  0.00    +0.000 A 
ATOM     14  C   UNL     1       2.172   7.871  19.077  0.00  0.00    +0.000 A 
ATOM     15  N   UNL     1       2.571   6.506  19.184  0.00  0.00    +0.000 N 
ATOM     16  C   UNL     1       2.077   5.593  20.128  0.00  0.00    +0.000 C 
ATOM     17  O   UNL     1       0.938   5.737  20.555  0.00  0.00    +0.000 OA
ATOM     18  C   UNL     1       4.441   7.332  16.142  0.00  0.00    +0.000 C 
ATOM     19  C   UNL     1       5.621   6.371  16.436  0.00  0.00    +0.000 C 
ENDROOT
BRANCH  10  20
ATOM     20  C   UNL     1      -0.795  11.788  21.937  0.00  0.00    +0.000 C 
ATOM     21  C   UNL     1      -1.831  12.343  20.970  0.00  0.00    +0.000 C 
ENDBRANCH  10  20
BRANCH  11  22
ATOM     22  C   UNL     1      -0.374   9.102  23.383  0.00  0.00    +0.000 C 
ATOM     23  C   UNL     1       0.551   9.224  24.601  0.00  0.00    +0.000 C 
ENDBRANCH  11  22
BRANCH   1  24
ATOM     24  O   UNL     1       5.687   3.857  16.591  0.00  0.00    +0.000 OA
BRANCH  24  26
ATOM     25  C   UNL     1       6.034   3.808  14.241  0.00  0.00    +0.000 C 
ATOM     26  C   UNL     1       6.707   3.953  15.595  0.00  0.00    +0.000 C 
ENDBRANCH  24  26
ENDBRANCH   1  24
BRANCH  16  27
ATOM     27  O   UNL     1       3.002   4.679  20.519  0.00  0.00    +0.000 OA
BRANCH  27  28
ATOM     28  C   UNL     1       2.604   3.279  20.529  0.00  0.00    +0.000 C 
ATOM     29  C   UNL     1       1.632   2.990  19.374  0.00  0.00    +0.000 C 
ATOM     30  C   UNL     1       3.864   2.420  20.305  0.00  0.00    +0.000 C 
ATOM     31  C   UNL     1       2.034   2.897  21.897  0.00  0.00    +0.000 C 
ENDBRANCH  27  28
ENDBRANCH  16  27
TORSDOF 6
ENDMDL
MODEL 2
REMARK VINA RESULT:      -6.5      3.699      6.880
REMARK  Name = 
REMARK  12 active torsions:
REMARK  status: ('A' for Active; 'I' for Inactive)
REMARK    1  A    between atoms: C_1  and  C_2
REMARK    2  A    between atoms: C_2  and  O_3
REMARK    3  A    between atoms: O_3  and  C_4
REMARK    4  A    between atoms: C_13  and  C_14
REMARK    5  A    between atoms: C_14  and  C_15
REMARK    6  A    between atoms: C_16  and  C_17
REMARK    7  A    between atoms: C_17  and  C_18
REMARK    8  A    between atoms: C_23  and  O_25
REMARK    9  A    between atoms: O_25  and  C_26
REMARK   10  A    between atoms: C_26  and  C_27
REMARK   11  A    between atoms: C_26  and  C_28
REMARK   12  A    between atoms: C_26  and  C_29
REMARK                            x       y       z     vdW  Elec       q    Type
REMARK                         _______ _______ _______ _____ _____    ______ ____
ROOT
ATOM      1  C   UNL     1       1.602   8.642  18.771  0.00  0.00    +0.000 C 
ATOM      2  C   UNL     1       0.866   9.738  18.494  0.00  0.00    +0.000 C 
ATOM      3  C   UNL     1       0.065  10.252  19.550  0.00  0.00    +0.000 A 
ATOM      4  C   UNL     1       0.303   9.996  20.883  0.00  0.00    +0.000 A 
ATOM      5  C   UNL     1      -0.608  10.755  21.639  0.00  0.00    +0.000 A 
ATOM      6  C   UNL     1      -0.774  10.928  23.015  0.00  0.00    +0.000 A 
ATOM      7  C   UNL     1      -1.839  11.692  23.441  0.00  0.00    +0.000 A 
ATOM      8  N   UNL     1      -2.729  12.218  22.589  0.00  0.00    +0.000 N 
ATOM      9  N   UNL     1      -3.732  12.859  23.180  0.00  0.00    +0.000 NA
ATOM     10  C   UNL     1      -4.735  13.410  22.471  0.00  0.00    +0.000 A 
ATOM     11  C   UNL     1      -4.798  13.331  21.082  0.00  0.00    +0.000 A 
ATOM     12  C   UNL     1      -3.749  12.632  20.480  0.00  0.00    +0.000 A 
ATOM     13  C   UNL     1      -2.657  12.091  21.231  0.00  0.00    +0.000 A 
ATOM     14  C   UNL     1      -1.491  11.383  20.745  0.00  0.00    +0.000 A 
ATOM     15  N   UNL     1      -0.996  11.128  19.431  0.00  0.00    +0.000 N 
ATOM     16  C   UNL     1      -1.457  11.751  18.261  0.00  0.00    +0.000 C 
ATOM     17  O   UNL     1      -1.911  12.887  18.332  0.00  0.00    +0.000 OA
ATOM     18  C   UNL     1       1.402   9.057  21.272  0.00  0.00    +0.000 C 
ATOM     19  C   UNL     1       1.558   7.994  20.155  0.00  0.00    +0.000 C 
ENDROOT
BRANCH  10  20
ATOM     20  C   UNL     1      -5.776  14.056  23.354  0.00  0.00    +0.000 C 
ATOM     21  C   UNL     1      -6.706  13.025  23.979  0.00  0.00    +0.000 C 
ENDBRANCH  10  20
BRANCH  11  22
ATOM     22  C   UNL     1      -5.921  13.971  20.279  0.00  0.00    +0.000 C 
ATOM     23  C   UNL     1      -7.222  13.190  20.060  0.00  0.00    +0.000 C 
ENDBRANCH  11  22
BRANCH   1  24
ATOM     24  O   UNL     1       2.502   8.189  17.827  0.00  0.00    +0.000 OA
BRANCH  24  26
ATOM     25  C   UNL     1       4.315   6.767  17.249  0.00  0.00    +0.000 C 
ATOM     26  C   UNL     1       3.006   6.865  18.011  0.00  0.00    +0.000 C 
ENDBRANCH  24  26
ENDBRANCH   1  24
BRANCH  16  27
ATOM     27  O   UNL     1      -1.411  10.941  17.173  0.00  0.00    +0.000 OA
BRANCH  27  28
ATOM     28  C   UNL     1      -2.668  10.380  16.698  0.00  0.00    +0.000 C 
ATOM     29  C   UNL     1      -3.603  11.497  16.208  0.00  0.00    +0.000 C 
ATOM     30  C   UNL     1      -2.361   9.467  15.494  0.00  0.00    +0.000 C 
ATOM     31  C   UNL     1      -3.303   9.502  17.780  0.00  0.00    +0.000 C 
ENDBRANCH  27  28
ENDBRANCH  16  27
TORSDOF 6
ENDMDL
MODEL 3
REMARK VINA RESULT:      -6.3      3.753      7.288
REMARK  Name = 
REMARK  12 active torsions:
REMARK  status: ('A' for Active; 'I' for Inactive)
REMARK    1  A    between atoms: C_1  and  C_2
REMARK    2  A    between atoms: C_2  and  O_3
REMARK    3  A    between atoms: O_3  and  C_4
REMARK    4  A    between atoms: C_13  and  C_14
REMARK    5  A    between atoms: C_14  and  C_15
REMARK    6  A    between atoms: C_16  and  C_17
REMARK    7  A    between atoms: C_17  and  C_18
REMARK    8  A    between atoms: C_23  and  O_25
REMARK    9  A    between atoms: O_25  and  C_26
REMARK   10  A    between atoms: C_26  and  C_27
REMARK   11  A    between atoms: C_26  and  C_28
REMARK   12  A    between atoms: C_26  and  C_29
REMARK                            x       y       z     vdW  Elec       q    Type
REMARK                         _______ _______ _______ _____ _____    ______ ____
ROOT
ATOM      1  C   UNL     1       1.310   8.646  19.651  0.00  0.00    +0.000 C 
ATOM      2  C   UNL     1       0.651   9.714  19.156  0.00  0.00    +0.000 C 
ATOM      3  C   UNL     1      -0.204  10.408  20.054  0.00  0.00    +0.000 A 
ATOM      4  C   UNL     1      -0.082  10.348  21.425  0.00  0.00    +0.000 A 
ATOM      5  C   UNL     1      -1.012  11.242  21.982  0.00  0.00    +0.000 A 
ATOM      6  C   UNL     1      -1.276  11.626  23.299  0.00  0.00    +0.000 A 
ATOM      7  C   UNL     1      -2.333  12.483  23.518  0.00  0.00    +0.000 A 
ATOM      8  N   UNL     1      -3.129  12.906  22.526  0.00  0.00    +0.000 N 
ATOM      9  N   UNL     1      -4.142  13.665  22.930  0.00  0.00    +0.000 NA
ATOM     10  C   UNL     1      -5.060  14.139  22.066  0.00  0.00    +0.000 A 
ATOM     11  C   UNL     1      -5.019  13.854  20.704  0.00  0.00    +0.000 A 
ATOM     12  C   UNL     1      -3.960  13.036  20.301  0.00  0.00    +0.000 A 
ATOM     13  C   UNL     1      -2.957  12.575  21.212  0.00  0.00    +0.000 A 
ATOM     14  C   UNL     1      -1.792  11.760  20.935  0.00  0.00    +0.000 A 
ATOM     15  N   UNL     1      -1.209  11.294  19.719  0.00  0.00    +0.000 N 
ATOM     16  C   UNL     1      -1.548  11.751  18.436  0.00  0.00    +0.000 C 
ATOM     17  O   UNL     1      -1.951  12.900  18.301  0.00  0.00    +0.000 OA
ATOM     18  C   UNL     1       0.937   9.438  22.038  0.00  0.00    +0.000 C 
ATOM     19  C   UNL     1       1.128   8.215  21.107  0.00  0.00    +0.000 C 
ENDROOT
BRANCH  10  20
ATOM     20  C   UNL     1      -6.134  14.946  22.755  0.00  0.00    +0.000 C 
ATOM     21  C   UNL     1      -5.580  15.740  23.930  0.00  0.00    +0.000 C 
ENDBRANCH  10  20
BRANCH  11  22
ATOM     22  C   UNL     1      -6.043  14.406  19.724  0.00  0.00    +0.000 C 
ATOM     23  C   UNL     1      -6.421  13.575  18.492  0.00  0.00    +0.000 C 
ENDBRANCH  11  22
BRANCH   1  24
ATOM     24  O   UNL     1       2.259   8.024  18.863  0.00  0.00    +0.000 OA
BRANCH  24  26
ATOM     25  C   UNL     1       2.359   5.754  18.169  0.00  0.00    +0.000 C 
ATOM     26  C   UNL     1       2.689   6.729  19.285  0.00  0.00    +0.000 C 
ENDBRANCH  24  26
ENDBRANCH   1  24
BRANCH  16  27
ATOM     27  O   UNL     1      -1.456  10.785  17.486  0.00  0.00    +0.000 OA
BRANCH  27  28
ATOM     28  C   UNL     1      -2.698  10.280  16.918  0.00  0.00    +0.000 C 
ATOM     29  C   UNL     1      -3.389   9.323  17.902  0.00  0.00    +0.000 C 
ATOM     30  C   UNL     1      -3.642  11.477  16.689  0.00  0.00    +0.000 C 
ATOM     31  C   UNL     1      -2.438   9.644  15.550  0.00  0.00    +0.000 C 
ENDBRANCH  27  28
ENDBRANCH  16  27
TORSDOF 6
ENDMDL
MODEL 4
REMARK VINA RESULT:      -6.2      6.542      8.988
REMARK  Name = 
REMARK  12 active torsions:
REMARK  status: ('A' for Active; 'I' for Inactive)
REMARK    1  A    between atoms: C_1  and  C_2
REMARK    2  A    between atoms: C_2  and  O_3
REMARK    3  A    between atoms: O_3  and  C_4
REMARK    4  A    between atoms: C_13  and  C_14
REMARK    5  A    between atoms: C_14  and  C_15
REMARK    6  A    between atoms: C_16  and  C_17
REMARK    7  A    between atoms: C_17  and  C_18
REMARK    8  A    between atoms: C_23  and  O_25
REMARK    9  A    between atoms: O_25  and  C_26
REMARK   10  A    between atoms: C_26  and  C_27
REMARK   11  A    between atoms: C_26  and  C_28
REMARK   12  A    between atoms: C_26  and  C_29
REMARK                            x       y       z     vdW  Elec       q    Type
REMARK                         _______ _______ _______ _____ _____    ______ ____
ROOT
ATOM      1  C   UNL     1      -2.742  10.229  17.364  0.00  0.00    +0.000 C 
ATOM      2  C   UNL     1      -3.349  11.273  17.966  0.00  0.00    +0.000 C 
ATOM      3  C   UNL     1      -2.642  11.893  19.032  0.00  0.00    +0.000 A 
ATOM      4  C   UNL     1      -1.277  11.799  19.200  0.00  0.00    +0.000 A 
ATOM      5  C   UNL     1      -0.916  12.625  20.279  0.00  0.00    +0.000 A 
ATOM      6  C   UNL     1       0.321  12.955  20.838  0.00  0.00    +0.000 A 
ATOM      7  C   UNL     1       0.323  13.745  21.967  0.00  0.00    +0.000 A 
ATOM      8  N   UNL     1      -0.808  14.153  22.559  0.00  0.00    +0.000 N 
ATOM      9  N   UNL     1      -0.616  14.842  23.678  0.00  0.00    +0.000 NA
ATOM     10  C   UNL     1      -1.648  15.289  24.420  0.00  0.00    +0.000 A 
ATOM     11  C   UNL     1      -2.975  15.046  24.074  0.00  0.00    +0.000 A 
ATOM     12  C   UNL     1      -3.156  14.300  22.907  0.00  0.00    +0.000 A 
ATOM     13  C   UNL     1      -2.061  13.869  22.094  0.00  0.00    +0.000 A 
ATOM     14  C   UNL     1      -2.096  13.129  20.849  0.00  0.00    +0.000 A 
ATOM     15  N   UNL     1      -3.169  12.731  19.995  0.00  0.00    +0.000 N 
ATOM     16  C   UNL     1      -4.486  13.205  20.082  0.00  0.00    +0.000 C 
ATOM     17  O   UNL     1      -4.685  14.333  20.516  0.00  0.00    +0.000 OA
ATOM     18  C   UNL     1      -0.476  10.931  18.281  0.00  0.00    +0.000 C 
ATOM     19  C   UNL     1      -1.366   9.747  17.823  0.00  0.00    +0.000 C 
ENDROOT
BRANCH  10  20
ATOM     20  C   UNL     1      -1.191  16.015  25.662  0.00  0.00    +0.000 C 
ATOM     21  C   UNL     1      -1.051  17.513  25.423  0.00  0.00    +0.000 C 
ENDBRANCH  10  20
BRANCH  11  22
ATOM     22  C   UNL     1      -4.141  15.569  24.900  0.00  0.00    +0.000 C 
ATOM     23  C   UNL     1      -5.417  16.026  24.183  0.00  0.00    +0.000 C 
ENDBRANCH  11  22
BRANCH   1  24
ATOM     24  O   UNL     1      -3.320   9.684  16.234  0.00  0.00    +0.000 OA
BRANCH  24  26
ATOM     25  C   UNL     1      -3.152   9.994  13.885  0.00  0.00    +0.000 C 
ATOM     26  C   UNL     1      -3.653  10.596  15.186  0.00  0.00    +0.000 C 
ENDBRANCH  24  26
ENDBRANCH   1  24
BRANCH  16  27
ATOM     27  O   UNL     1      -5.411  12.273  19.734  0.00  0.00    +0.000 OA
BRANCH  27  28
ATOM     28  C   UNL     1      -6.625  12.198  20.533  0.00  0.00    +0.000 C 
ATOM     29  C   UNL     1      -7.689  13.163  19.985  0.00  0.00    +0.000 C 
ATOM     30  C   UNL     1      -7.188  10.768  20.417  0.00  0.00    +0.000 C 
ATOM     31  C   UNL     1      -6.306  12.439  22.011  0.00  0.00    +0.000 C 
ENDBRANCH  27  28
ENDBRANCH  16  27
TORSDOF 6
ENDMDL
MODEL 5
REMARK VINA RESULT:      -6.0      6.166      9.230
REMARK  Name = 
REMARK  12 active torsions:
REMARK  status: ('A' for Active; 'I' for Inactive)
REMARK    1  A    between atoms: C_1  and  C_2
REMARK    2  A    between atoms: C_2  and  O_3
REMARK    3  A    between atoms: O_3  and  C_4
REMARK    4  A    between atoms: C_13  and  C_14
REMARK    5  A    between atoms: C_14  and  C_15
REMARK    6  A    between atoms: C_16  and  C_17
REMARK    7  A    between atoms: C_17  and  C_18
REMARK    8  A    between atoms: C_23  and  O_25
REMARK    9  A    between atoms: O_25  and  C_26
REMARK   10  A    between atoms: C_26  and  C_27
REMARK   11  A    between atoms: C_26  and  C_28
REMARK   12  A    between atoms: C_26  and  C_29
REMARK                            x       y       z     vdW  Elec       q    Type
REMARK                         _______ _______ _______ _____ _____    ______ ____
ROOT
ATOM      1  C   UNL     1      -3.812  10.919  17.257  0.00  0.00    +0.000 C 
ATOM      2  C   UNL     1      -3.164  11.166  18.415  0.00  0.00    +0.000 C 
ATOM      3  C   UNL     1      -3.806  12.045  19.329  0.00  0.00    +0.000 A 
ATOM      4  C   UNL     1      -5.160  12.303  19.319  0.00  0.00    +0.000 A 
ATOM      5  C   UNL     1      -5.453  13.118  20.426  0.00  0.00    +0.000 A 
ATOM      6  C   UNL     1      -6.655  13.622  20.931  0.00  0.00    +0.000 A 
ATOM      7  C   UNL     1      -6.588  14.477  22.010  0.00  0.00    +0.000 A 
ATOM      8  N   UNL     1      -5.423  14.869  22.542  0.00  0.00    +0.000 N 
ATOM      9  N   UNL     1      -5.546  15.753  23.526  0.00  0.00    +0.000 NA
ATOM     10  C   UNL     1      -4.472  16.282  24.141  0.00  0.00    +0.000 A 
ATOM     11  C   UNL     1      -3.168  15.953  23.779  0.00  0.00    +0.000 A 
ATOM     12  C   UNL     1      -3.058  15.040  22.728  0.00  0.00    +0.000 A 
ATOM     13  C   UNL     1      -4.200  14.441  22.109  0.00  0.00    +0.000 A 
ATOM     14  C   UNL     1      -4.239  13.459  21.044  0.00  0.00    +0.000 A 
ATOM     15  N   UNL     1      -3.220  12.701  20.394  0.00  0.00    +0.000 N 
ATOM     16  C   UNL     1      -1.895  12.581  20.842  0.00  0.00    +0.000 C 
ATOM     17  O   UNL     1      -1.665  12.664  22.043  0.00  0.00    +0.000 OA
ATOM     18  C   UNL     1      -6.017  11.712  18.244  0.00  0.00    +0.000 C 
ATOM     19  C   UNL     1      -5.164  11.567  16.958  0.00  0.00    +0.000 C 
ENDROOT
BRANCH  10  20
ATOM     20  C   UNL     1      -4.853  17.287  25.202  0.00  0.00    +0.000 C 
ATOM     21  C   UNL     1      -5.648  18.449  24.622  0.00  0.00    +0.000 C 
ENDBRANCH  10  20
BRANCH  11  22
ATOM     22  C   UNL     1      -1.954  16.534  24.488  0.00  0.00    +0.000 C 
ATOM     23  C   UNL     1      -1.437  15.854  25.762  0.00  0.00    +0.000 C 
ENDBRANCH  11  22
BRANCH   1  24
ATOM     24  O   UNL     1      -3.301   9.965  16.400  0.00  0.00    +0.000 OA
BRANCH  24  26
ATOM     25  C   UNL     1      -3.554  10.006  14.038  0.00  0.00    +0.000 C 
ATOM     26  C   UNL     1      -2.687  10.446  15.204  0.00  0.00    +0.000 C 
ENDBRANCH  24  26
ENDBRANCH   1  24
BRANCH  16  27
ATOM     27  O   UNL     1      -0.999  12.467  19.829  0.00  0.00    +0.000 OA
BRANCH  27  28
ATOM     28  C   UNL     1       0.114  11.547  20.015  0.00  0.00    +0.000 C 
ATOM     29  C   UNL     1      -0.361  10.265  20.718  0.00  0.00    +0.000 C 
ATOM     30  C   UNL     1       0.644  11.147  18.624  0.00  0.00    +0.000 C 
ATOM     31  C   UNL     1       1.261  12.241  20.753  0.00  0.00    +0.000 C 
ENDBRANCH  27  28
ENDBRANCH  16  27
TORSDOF 6
ENDMDL
MODEL 6
REMARK VINA RESULT:      -6.0      6.235      8.798
REMARK  Name = 
REMARK  12 active torsions:
REMARK  status: ('A' for Active; 'I' for Inactive)
REMARK    1  A    between atoms: C_1  and  C_2
REMARK    2  A    between atoms: C_2  and  O_3
REMARK    3  A    between atoms: O_3  and  C_4
REMARK    4  A    between atoms: C_13  and  C_14
REMARK    5  A    between atoms: C_14  and  C_15
REMARK    6  A    between atoms: C_16  and  C_17
REMARK    7  A    between atoms: C_17  and  C_18
REMARK    8  A    between atoms: C_23  and  O_25
REMARK    9  A    between atoms: O_25  and  C_26
REMARK   10  A    between atoms: C_26  and  C_27
REMARK   11  A    between atoms: C_26  and  C_28
REMARK   12  A    between atoms: C_26  and  C_29
REMARK                            x       y       z     vdW  Elec       q    Type
REMARK                         _______ _______ _______ _____ _____    ______ ____
ROOT
ATOM      1  C   UNL     1      -2.239  10.097  16.872  0.00  0.00    +0.000 C 
ATOM      2  C   UNL     1      -2.971  11.104  17.391  0.00  0.00    +0.000 C 
ATOM      3  C   UNL     1      -2.547  11.619  18.646  0.00  0.00    +0.000 A 
ATOM      4  C   UNL     1      -1.267  11.478  19.137  0.00  0.00    +0.000 A 
ATOM      5  C   UNL     1      -1.181  12.205  20.337  0.00  0.00    +0.000 A 
ATOM      6  C   UNL     1      -0.119  12.459  21.209  0.00  0.00    +0.000 A 
ATOM      7  C   UNL     1      -0.392  13.156  22.365  0.00  0.00    +0.000 A 
ATOM      8  N   UNL     1      -1.633  13.543  22.692  0.00  0.00    +0.000 N 
ATOM      9  N   UNL     1      -1.721  14.136  23.878  0.00  0.00    +0.000 NA
ATOM     10  C   UNL     1      -2.902  14.548  24.377  0.00  0.00    +0.000 A 
ATOM     11  C   UNL     1      -4.103  14.367  23.696  0.00  0.00    +0.000 A 
ATOM     12  C   UNL     1      -3.994  13.721  22.463  0.00  0.00    +0.000 A 
ATOM     13  C   UNL     1      -2.733  13.329  21.911  0.00  0.00    +0.000 A 
ATOM     14  C   UNL     1      -2.463  12.692  20.638  0.00  0.00    +0.000 A 
ATOM     15  N   UNL     1      -3.292  12.390  19.517  0.00  0.00    +0.000 N 
ATOM     16  C   UNL     1      -4.588  12.889  19.315  0.00  0.00    +0.000 C 
ATOM     17  O   UNL     1      -4.882  13.984  19.780  0.00  0.00    +0.000 OA
ATOM     18  C   UNL     1      -0.267  10.665  18.374  0.00  0.00    +0.000 C 
ATOM     19  C   UNL     1      -1.022   9.545  17.614  0.00  0.00    +0.000 C 
ENDROOT
BRANCH  10  20
ATOM     20  C   UNL     1      -2.763  15.161  25.750  0.00  0.00    +0.000 C 
ATOM     21  C   UNL     1      -1.710  16.260  25.775  0.00  0.00    +0.000 C 
ENDBRANCH  10  20
BRANCH  11  22
ATOM     22  C   UNL     1      -5.435  14.851  24.250  0.00  0.00    +0.000 C 
ATOM     23  C   UNL     1      -6.705  14.046  23.949  0.00  0.00    +0.000 C 
ENDBRANCH  11  22
BRANCH   1  24
ATOM     24  O   UNL     1      -2.522   9.658  15.593  0.00  0.00    +0.000 OA
BRANCH  24  26
ATOM     25  C   UNL     1      -3.694   9.806  13.532  0.00  0.00    +0.000 C 
ATOM     26  C   UNL     1      -3.196  10.583  14.738  0.00  0.00    +0.000 C 
ENDBRANCH  24  26
ENDBRANCH   1  24
BRANCH  16  27
ATOM     27  O   UNL     1      -5.402  12.012  18.674  0.00  0.00    +0.000 OA
BRANCH  27  28
ATOM     28  C   UNL     1      -6.657  11.661  19.321  0.00  0.00    +0.000 C 
ATOM     29  C   UNL     1      -7.033  10.203  19.009  0.00  0.00    +0.000 C 
ATOM     30  C   UNL     1      -6.459  11.774  20.846  0.00  0.00    +0.000 C 
ATOM     31  C   UNL     1      -7.754  12.656  18.933  0.00  0.00    +0.000 C 
ENDBRANCH  27  28
ENDBRANCH  16  27
TORSDOF 6
ENDMDL
MODEL 7
REMARK VINA RESULT:      -5.9      6.657      9.134
REMARK  Name = 
REMARK  12 active torsions:
REMARK  status: ('A' for Active; 'I' for Inactive)
REMARK    1  A    between atoms: C_1  and  C_2
REMARK    2  A    between atoms: C_2  and  O_3
REMARK    3  A    between atoms: O_3  and  C_4
REMARK    4  A    between atoms: C_13  and  C_14
REMARK    5  A    between atoms: C_14  and  C_15
REMARK    6  A    between atoms: C_16  and  C_17
REMARK    7  A    between atoms: C_17  and  C_18
REMARK    8  A    between atoms: C_23  and  O_25
REMARK    9  A    between atoms: O_25  and  C_26
REMARK   10  A    between atoms: C_26  and  C_27
REMARK   11  A    between atoms: C_26  and  C_28
REMARK   12  A    between atoms: C_26  and  C_29
REMARK                            x       y       z     vdW  Elec       q    Type
REMARK                         _______ _______ _______ _____ _____    ______ ____
ROOT
ATOM      1  C   UNL     1      -3.705  10.877  17.061  0.00  0.00    +0.000 C 
ATOM      2  C   UNL     1      -3.046  10.939  18.237  0.00  0.00    +0.000 C 
ATOM      3  C   UNL     1      -3.530  11.874  19.191  0.00  0.00    +0.000 A 
ATOM      4  C   UNL     1      -4.812  12.380  19.182  0.00  0.00    +0.000 A 
ATOM      5  C   UNL     1      -4.971  13.177  20.329  0.00  0.00    +0.000 A 
ATOM      6  C   UNL     1      -6.067  13.870  20.849  0.00  0.00    +0.000 A 
ATOM      7  C   UNL     1      -5.864  14.640  21.973  0.00  0.00    +0.000 A 
ATOM      8  N   UNL     1      -4.656  14.779  22.538  0.00  0.00    +0.000 N 
ATOM      9  N   UNL     1      -4.632  15.619  23.567  0.00  0.00    +0.000 NA
ATOM     10  C   UNL     1      -3.490  15.905  24.221  0.00  0.00    +0.000 A 
ATOM     11  C   UNL     1      -2.264  15.357  23.854  0.00  0.00    +0.000 A 
ATOM     12  C   UNL     1      -2.304  14.495  22.755  0.00  0.00    +0.000 A 
ATOM     13  C   UNL     1      -3.526  14.153  22.093  0.00  0.00    +0.000 A 
ATOM     14  C   UNL     1      -3.727  13.252  20.976  0.00  0.00    +0.000 A 
ATOM     15  N   UNL     1      -2.853  12.352  20.296  0.00  0.00    +0.000 N 
ATOM     16  C   UNL     1      -1.584  11.963  20.750  0.00  0.00    +0.000 C 
ATOM     17  O   UNL     1      -1.365  11.939  21.955  0.00  0.00    +0.000 OA
ATOM     18  C   UNL     1      -5.743  12.017  18.068  0.00  0.00    +0.000 C 
ATOM     19  C   UNL     1      -4.906  11.781  16.785  0.00  0.00    +0.000 C 
ENDROOT
BRANCH  10  20
ATOM     20  C   UNL     1      -3.699  16.907  25.331  0.00  0.00    +0.000 C 
ATOM     21  C   UNL     1      -5.023  17.644  25.187  0.00  0.00    +0.000 C 
ENDBRANCH  10  20
BRANCH  11  22
ATOM     22  C   UNL     1      -0.977  15.663  24.606  0.00  0.00    +0.000 C 
ATOM     23  C   UNL     1      -0.141  16.880  24.189  0.00  0.00    +0.000 C 
ENDBRANCH  11  22
BRANCH   1  24
ATOM     24  O   UNL     1      -3.364   9.890  16.158  0.00  0.00    +0.000 OA
BRANCH  24  26
ATOM     25  C   UNL     1      -3.787   9.888  13.820  0.00  0.00    +0.000 C 
ATOM     26  C   UNL     1      -2.825  10.327  14.909  0.00  0.00    +0.000 C 
ENDBRANCH  24  26
ENDBRANCH   1  24
BRANCH  16  27
ATOM     27  O   UNL     1      -0.705  11.736  19.740  0.00  0.00    +0.000 OA
BRANCH  27  28
ATOM     28  C   UNL     1       0.233  12.800  19.412  0.00  0.00    +0.000 C 
ATOM     29  C   UNL     1       0.660  13.551  20.684  0.00  0.00    +0.000 C 
ATOM     30  C   UNL     1       1.495  12.157  18.804  0.00  0.00    +0.000 C 
ATOM     31  C   UNL     1      -0.361  13.724  18.345  0.00  0.00    +0.000 C 
ENDBRANCH  27  28
ENDBRANCH  16  27
TORSDOF 6
ENDMDL
MODEL 8
REMARK VINA RESULT:      -5.9      3.922      7.627
REMARK  Name = 
REMARK  12 active torsions:
REMARK  status: ('A' for Active; 'I' for Inactive)
REMARK    1  A    between atoms: C_1  and  C_2
REMARK    2  A    between atoms: C_2  and  O_3
REMARK    3  A    between atoms: O_3  and  C_4
REMARK    4  A    between atoms: C_13  and  C_14
REMARK    5  A    between atoms: C_14  and  C_15
REMARK    6  A    between atoms: C_16  and  C_17
REMARK    7  A    between atoms: C_17  and  C_18
REMARK    8  A    between atoms: C_23  and  O_25
REMARK    9  A    between atoms: O_25  and  C_26
REMARK   10  A    between atoms: C_26  and  C_27
REMARK   11  A    between atoms: C_26  and  C_28
REMARK   12  A    between atoms: C_26  and  C_29
REMARK                            x       y       z     vdW  Elec       q    Type
REMARK                         _______ _______ _______ _____ _____    ______ ____
ROOT
ATOM      1  C   UNL     1       0.979   8.777  20.167  0.00  0.00    +0.000 C 
ATOM      2  C   UNL     1       0.401   9.860  19.607  0.00  0.00    +0.000 C 
ATOM      3  C   UNL     1      -0.504  10.593  20.422  0.00  0.00    +0.000 A 
ATOM      4  C   UNL     1      -0.502  10.545  21.800  0.00  0.00    +0.000 A 
ATOM      5  C   UNL     1      -1.445  11.476  22.267  0.00  0.00    +0.000 A 
ATOM      6  C   UNL     1      -1.807  11.884  23.553  0.00  0.00    +0.000 A 
ATOM      7  C   UNL     1      -2.850  12.777  23.672  0.00  0.00    +0.000 A 
ATOM      8  N   UNL     1      -3.544  13.214  22.613  0.00  0.00    +0.000 N 
ATOM      9  N   UNL     1      -4.562  14.010  22.921  0.00  0.00    +0.000 NA
ATOM     10  C   UNL     1      -5.386  14.502  21.978  0.00  0.00    +0.000 A 
ATOM     11  C   UNL     1      -5.239  14.200  20.627  0.00  0.00    +0.000 A 
ATOM     12  C   UNL     1      -4.178  13.343  20.324  0.00  0.00    +0.000 A 
ATOM     13  C   UNL     1      -3.272  12.861  21.321  0.00  0.00    +0.000 A 
ATOM     14  C   UNL     1      -2.115  12.006  21.152  0.00  0.00    +0.000 A 
ATOM     15  N   UNL     1      -1.447  11.506  19.994  0.00  0.00    +0.000 N 
ATOM     16  C   UNL     1      -1.660  11.958  18.683  0.00  0.00    +0.000 C 
ATOM     17  O   UNL     1      -2.011  13.118  18.504  0.00  0.00    +0.000 OA
ATOM     18  C   UNL     1       0.431   9.610  22.506  0.00  0.00    +0.000 C 
ATOM     19  C   UNL     1       0.660   8.370  21.605  0.00  0.00    +0.000 C 
ENDROOT
BRANCH  10  20
ATOM     20  C   UNL     1      -6.488  15.353  22.564  0.00  0.00    +0.000 C 
ATOM     21  C   UNL     1      -7.057  14.743  23.838  0.00  0.00    +0.000 C 
ENDBRANCH  10  20
BRANCH  11  22
ATOM     22  C   UNL     1      -6.158  14.773  19.558  0.00  0.00    +0.000 C 
ATOM     23  C   UNL     1      -7.488  14.069  19.261  0.00  0.00    +0.000 C 
ENDBRANCH  11  22
BRANCH   1  24
ATOM     24  O   UNL     1       1.970   8.116  19.468  0.00  0.00    +0.000 OA
BRANCH  24  26
ATOM     25  C   UNL     1       3.279   7.653  17.540  0.00  0.00    +0.000 C 
ATOM     26  C   UNL     1       2.165   8.513  18.110  0.00  0.00    +0.000 C 
ENDBRANCH  24  26
ENDBRANCH   1  24
BRANCH  16  27
ATOM     27  O   UNL     1      -1.520  10.979  17.754  0.00  0.00    +0.000 OA
BRANCH  27  28
ATOM     28  C   UNL     1      -2.731  10.465  17.129  0.00  0.00    +0.000 C 
ATOM     29  C   UNL     1      -2.406   9.835  15.766  0.00  0.00    +0.000 C 
ATOM     30  C   UNL     1      -3.303   9.355  18.033  0.00  0.00    +0.000 C 
ATOM     31  C   UNL     1      -3.792  11.566  17.040  0.00  0.00    +0.000 C 
ENDBRANCH  27  28
ENDBRANCH  16  27
TORSDOF 6
ENDMDL
MODEL 9
REMARK VINA RESULT:      -5.9      6.664      9.169
REMARK  Name = 
REMARK  12 active torsions:
REMARK  status: ('A' for Active; 'I' for Inactive)
REMARK    1  A    between atoms: C_1  and  C_2
REMARK    2  A    between atoms: C_2  and  O_3
REMARK    3  A    between atoms: O_3  and  C_4
REMARK    4  A    between atoms: C_13  and  C_14
REMARK    5  A    between atoms: C_14  and  C_15
REMARK    6  A    between atoms: C_16  and  C_17
REMARK    7  A    between atoms: C_17  and  C_18
REMARK    8  A    between atoms: C_23  and  O_25
REMARK    9  A    between atoms: O_25  and  C_26
REMARK   10  A    between atoms: C_26  and  C_27
REMARK   11  A    between atoms: C_26  and  C_28
REMARK   12  A    between atoms: C_26  and  C_29
REMARK                            x       y       z     vdW  Elec       q    Type
REMARK                         _______ _______ _______ _____ _____    ______ ____
ROOT
ATOM      1  C   UNL     1      -2.729  10.411  17.735  0.00  0.00    +0.000 C 
ATOM      2  C   UNL     1      -3.339  11.422  18.389  0.00  0.00    +0.000 C 
ATOM      3  C   UNL     1      -2.555  12.129  19.341  0.00  0.00    +0.000 A 
ATOM      4  C   UNL     1      -1.177  12.150  19.332  0.00  0.00    +0.000 A 
ATOM      5  C   UNL     1      -0.751  13.036  20.337  0.00  0.00    +0.000 A 
ATOM      6  C   UNL     1       0.515  13.481  20.724  0.00  0.00    +0.000 A 
ATOM      7  C   UNL     1       0.596  14.304  21.826  0.00  0.00    +0.000 A 
ATOM      8  N   UNL     1      -0.480  14.638  22.551  0.00  0.00    +0.000 N 
ATOM      9  N   UNL     1      -0.205  15.375  23.622  0.00  0.00    +0.000 NA
ATOM     10  C   UNL     1      -1.166  15.762  24.481  0.00  0.00    +0.000 A 
ATOM     11  C   UNL     1      -2.502  15.403  24.317  0.00  0.00    +0.000 A 
ATOM     12  C   UNL     1      -2.768  14.608  23.199  0.00  0.00    +0.000 A 
ATOM     13  C   UNL     1      -1.754  14.241  22.259  0.00  0.00    +0.000 A 
ATOM     14  C   UNL     1      -1.887  13.462  21.045  0.00  0.00    +0.000 A 
ATOM     15  N   UNL     1      -3.022  12.952  20.347  0.00  0.00    +0.000 N 
ATOM     16  C   UNL     1      -4.353  13.322  20.594  0.00  0.00    +0.000 C 
ATOM     17  O   UNL     1      -4.588  14.444  21.027  0.00  0.00    +0.000 OA
ATOM     18  C   UNL     1      -0.431  11.320  18.335  0.00  0.00    +0.000 C 
ATOM     19  C   UNL     1      -1.270  10.055  18.022  0.00  0.00    +0.000 C 
ENDROOT
BRANCH  10  20
ATOM     20  C   UNL     1      -0.616  16.561  25.638  0.00  0.00    +0.000 C 
ATOM     21  C   UNL     1       0.724  17.200  25.299  0.00  0.00    +0.000 C 
ENDBRANCH  10  20
BRANCH  11  22
ATOM     22  C   UNL     1      -3.592  15.857  25.276  0.00  0.00    +0.000 C 
ATOM     23  C   UNL     1      -4.686  16.805  24.768  0.00  0.00    +0.000 C 
ENDBRANCH  11  22
BRANCH   1  24
ATOM     24  O   UNL     1      -3.400   9.786  16.702  0.00  0.00    +0.000 OA
BRANCH  24  26
ATOM     25  C   UNL     1      -2.951  10.066  14.386  0.00  0.00    +0.000 C 
ATOM     26  C   UNL     1      -3.731  10.598  15.575  0.00  0.00    +0.000 C 
ENDBRANCH  24  26
ENDBRANCH   1  24
BRANCH  16  27
ATOM     27  O   UNL     1      -5.234  12.309  20.389  0.00  0.00    +0.000 OA
BRANCH  27  28
ATOM     28  C   UNL     1      -6.507  12.640  19.766  0.00  0.00    +0.000 C 
ATOM     29  C   UNL     1      -7.472  13.239  20.802  0.00  0.00    +0.000 C 
ATOM     30  C   UNL     1      -6.250  13.715  18.691  0.00  0.00    +0.000 C 
ATOM     31  C   UNL     1      -7.085  11.416  19.051  0.00  0.00    +0.000 C 
ENDBRANCH  27  28
ENDBRANCH  16  27
TORSDOF 6
ENDMDL
