MODEL 1
REMARK VINA RESULT:      -7.0      0.000      0.000
REMARK  Name = 
REMARK  3 active torsions:
REMARK  status: ('A' for Active; 'I' for Inactive)
REMARK    1  A    between atoms: C_1  and  N_2
REMARK    2  A    between atoms: C_9  and  N_10
REMARK    3  A    between atoms: N_13  and  C_14
REMARK                            x       y       z     vdW  Elec       q    Type
REMARK                         _______ _______ _______ _____ _____    ______ ____
ROOT
ATOM      1  N   UNL     1       2.948   7.028  18.939  0.00  0.00    +0.000 N 
ATOM      2  C   UNL     1       1.951   7.961  18.825  0.00  0.00    +0.000 C 
ATOM      3  O   UNL     1       1.440   8.285  17.763  0.00  0.00    +0.000 OA
ATOM      4  N   UNL     1       1.579   8.483  20.031  0.00  0.00    +0.000 N 
ATOM      5  H   UNL     1       3.234   6.733  19.860  0.00  0.00    +0.000 HD
ATOM      6  H   UNL     1       2.167   8.289  20.828  0.00  0.00    +0.000 HD
ENDROOT
BRANCH   1  15
ATOM      7  C   UNL     1       8.251   5.448  19.612  0.00  0.00    +0.000 C 
ATOM      8  N   UNL     1       7.369   6.075  18.665  0.00  0.00    +0.000 N 
ATOM      9  N   UNL     1       7.811   7.077  17.878  0.00  0.00    +0.000 NA
ATOM     10  N   UNL     1       6.793   7.488  17.127  0.00  0.00    +0.000 NA
ATOM     11  C   UNL     1       5.710   6.738  17.462  0.00  0.00    +0.000 A 
ATOM     12  C   UNL     1       6.050   5.831  18.435  0.00  0.00    +0.000 A 
ATOM     13  C   UNL     1       5.144   4.864  19.093  0.00  0.00    +0.000 C 
ATOM     14  C   UNL     1       3.812   4.794  18.308  0.00  0.00    +0.000 C 
ATOM     15  C   UNL     1       3.314   6.177  17.801  0.00  0.00    +0.000 C 
ATOM     16  C   UNL     1       4.356   6.863  16.878  0.00  0.00    +0.000 C 
ENDBRANCH   1  15
BRANCH   4  17
ATOM     17  C   UNL     1       0.638   9.601  20.110  0.00  0.00    +0.000 C 
ATOM     18  C   UNL     1      -0.060   9.635  21.479  0.00  0.00    +0.000 C 
ATOM     19  C   UNL     1      -0.073  11.090  21.877  0.00  0.00    +0.000 C 
ATOM     20  O   UNL     1      -0.553  11.524  22.912  0.00  0.00    +0.000 OA
ATOM     21  N   UNL     1       0.582  11.820  20.905  0.00  0.00    +0.000 N 
ATOM     22  C   UNL     1       0.990  13.201  21.074  0.00  0.00    +0.000 C 
ATOM     23  C   UNL     1       1.223  13.885  19.726  0.00  0.00    +0.000 C 
ATOM     24  C   UNL     1       2.007  13.004  18.744  0.00  0.00    +0.000 C 
ATOM     25  C   UNL     1       1.375  11.611  18.624  0.00  0.00    +0.000 C 
ATOM     26  C   UNL     1       1.327  10.970  20.008  0.00  0.00    +0.000 C 
ENDBRANCH   4  17
TORSDOF 2
ENDMDL
MODEL 2
REMARK VINA RESULT:      -7.0      2.313      7.928
REMARK  Name = 
REMARK  3 active torsions:
REMARK  status: ('A' for Active; 'I' for Inactive)
REMARK    1  A    between atoms: C_1  and  N_2
REMARK    2  A    between atoms: C_9  and  N_10
REMARK    3  A    between atoms: N_13  and  C_14
REMARK                            x       y       z     vdW  Elec       q    Type
REMARK                         _______ _______ _______ _____ _____    ______ ____
ROOT
ATOM      1  N   UNL     1       1.351   9.046  19.589  0.00  0.00    +0.000 N 
ATOM      2  C   UNL     1       1.784   7.752  19.710  0.00  0.00    +0.000 C 
ATOM      3  O   UNL     1       1.509   7.028  20.655  0.00  0.00    +0.000 OA
ATOM      4  N   UNL     1       2.549   7.352  18.652  0.00  0.00    +0.000 N 
ATOM      5  H   UNL     1       1.524   9.538  18.725  0.00  0.00    +0.000 HD
ATOM      6  H   UNL     1       2.866   8.061  18.008  0.00  0.00    +0.000 HD
ENDROOT
BRANCH   1  15
ATOM      7  C   UNL     1       0.678  14.451  18.405  0.00  0.00    +0.000 C 
ATOM      8  N   UNL     1       0.955  13.559  19.498  0.00  0.00    +0.000 N 
ATOM      9  N   UNL     1       1.806  13.922  20.480  0.00  0.00    +0.000 NA
ATOM     10  N   UNL     1       1.900  12.909  21.337  0.00  0.00    +0.000 NA
ATOM     11  C   UNL     1       1.107  11.907  20.873  0.00  0.00    +0.000 A 
ATOM     12  C   UNL     1       0.493  12.296  19.707  0.00  0.00    +0.000 A 
ATOM     13  C   UNL     1      -0.414  11.476  18.873  0.00  0.00    +0.000 C 
ATOM     14  C   UNL     1      -0.833  10.213  19.663  0.00  0.00    +0.000 C 
ATOM     15  C   UNL     1       0.323   9.581  20.489  0.00  0.00    +0.000 C 
ATOM     16  C   UNL     1       0.917  10.586  21.512  0.00  0.00    +0.000 C 
ENDBRANCH   1  15
BRANCH   4  17
ATOM     17  C   UNL     1       3.231   6.058  18.661  0.00  0.00    +0.000 C 
ATOM     18  C   UNL     1       2.241   4.913  18.394  0.00  0.00    +0.000 C 
ATOM     19  C   UNL     1       2.955   3.992  17.437  0.00  0.00    +0.000 C 
ATOM     20  O   UNL     1       2.489   2.956  16.990  0.00  0.00    +0.000 OA
ATOM     21  N   UNL     1       4.182   4.542  17.126  0.00  0.00    +0.000 N 
ATOM     22  C   UNL     1       5.025   4.072  16.044  0.00  0.00    +0.000 C 
ATOM     23  C   UNL     1       6.479   4.502  16.239  0.00  0.00    +0.000 C 
ATOM     24  C   UNL     1       6.608   5.964  16.686  0.00  0.00    +0.000 C 
ATOM     25  C   UNL     1       5.716   6.252  17.900  0.00  0.00    +0.000 C 
ATOM     26  C   UNL     1       4.270   5.923  17.538  0.00  0.00    +0.000 C 
ENDBRANCH   4  17
TORSDOF 2
ENDMDL
MODEL 3
REMARK VINA RESULT:      -6.9      2.736      8.267
REMARK  Name = 
REMARK  3 active torsions:
REMARK  status: ('A' for Active; 'I' for Inactive)
REMARK    1  A    between atoms: C_1  and  N_2
REMARK    2  A    between atoms: C_9  and  N_10
REMARK    3  A    between atoms: N_13  and  C_14
REMARK                            x       y       z     vdW  Elec       q    Type
REMARK                         _______ _______ _______ _____ _____    ______ ____
ROOT
ATOM      1  N   UNL     1       1.211   9.478  18.894  0.00  0.00    +0.000 N 
ATOM      2  C   UNL     1       1.993   8.560  18.243  0.00  0.00    +0.000 C 
ATOM      3  O   UNL     1       2.465   8.737  17.131  0.00  0.00    +0.000 OA
ATOM      4  N   UNL     1       2.197   7.428  18.979  0.00  0.00    +0.000 N 
ATOM      5  H   UNL     1       0.957   9.306  19.855  0.00  0.00    +0.000 HD
ATOM      6  H   UNL     1       1.632   7.297  19.805  0.00  0.00    +0.000 HD
ENDROOT
BRANCH   1  15
ATOM      7  C   UNL     1      -1.080  12.591  22.911  0.00  0.00    +0.000 C 
ATOM      8  N   UNL     1      -1.248  12.223  21.532  0.00  0.00    +0.000 N 
ATOM      9  N   UNL     1      -2.482  12.058  21.012  0.00  0.00    +0.000 NA
ATOM     10  N   UNL     1      -2.346  11.695  19.740  0.00  0.00    +0.000 NA
ATOM     11  C   UNL     1      -1.015  11.624  19.475  0.00  0.00    +0.000 A 
ATOM     12  C   UNL     1      -0.295  11.957  20.597  0.00  0.00    +0.000 A 
ATOM     13  C   UNL     1       1.179  11.961  20.729  0.00  0.00    +0.000 C 
ATOM     14  C   UNL     1       1.819  11.841  19.325  0.00  0.00    +0.000 C 
ATOM     15  C   UNL     1       1.078  10.848  18.385  0.00  0.00    +0.000 C 
ATOM     16  C   UNL     1      -0.408  11.246  18.180  0.00  0.00    +0.000 C 
ENDBRANCH   1  15
BRANCH   4  17
ATOM     17  C   UNL     1       2.877   6.268  18.403  0.00  0.00    +0.000 C 
ATOM     18  C   UNL     1       4.381   6.301  18.717  0.00  0.00    +0.000 C 
ATOM     19  C   UNL     1       4.735   4.883  19.091  0.00  0.00    +0.000 C 
ATOM     20  O   UNL     1       5.853   4.504  19.405  0.00  0.00    +0.000 OA
ATOM     21  N   UNL     1       3.587   4.118  19.063  0.00  0.00    +0.000 N 
ATOM     22  C   UNL     1       3.496   2.781  19.614  0.00  0.00    +0.000 C 
ATOM     23  C   UNL     1       2.318   2.008  19.019  0.00  0.00    +0.000 C 
ATOM     24  C   UNL     1       1.040   2.853  18.933  0.00  0.00    +0.000 C 
ATOM     25  C   UNL     1       1.309   4.193  18.236  0.00  0.00    +0.000 C 
ATOM     26  C   UNL     1       2.400   4.937  19.002  0.00  0.00    +0.000 C 
ENDBRANCH   4  17
TORSDOF 2
ENDMDL
MODEL 4
REMARK VINA RESULT:      -6.8      2.452      7.957
REMARK  Name = 
REMARK  3 active torsions:
REMARK  status: ('A' for Active; 'I' for Inactive)
REMARK    1  A    between atoms: C_1  and  N_2
REMARK    2  A    between atoms: C_9  and  N_10
REMARK    3  A    between atoms: N_13  and  C_14
REMARK                            x       y       z     vdW  Elec       q    Type
REMARK                         _______ _______ _______ _____ _____    ______ ____
ROOT
ATOM      1  N   UNL     1       1.519   8.938  19.339  0.00  0.00    +0.000 N 
ATOM      2  C   UNL     1       2.028   7.671  19.226  0.00  0.00    +0.000 C 
ATOM      3  O   UNL     1       1.954   6.828  20.107  0.00  0.00    +0.000 OA
ATOM      4  N   UNL     1       2.619   7.447  18.015  0.00  0.00    +0.000 N 
ATOM      5  H   UNL     1       1.517   9.535  18.526  0.00  0.00    +0.000 HD
ATOM      6  H   UNL     1       2.786   8.245  17.421  0.00  0.00    +0.000 HD
ENDROOT
BRANCH   1  15
ATOM      7  C   UNL     1      -0.149  14.204  18.588  0.00  0.00    +0.000 C 
ATOM      8  N   UNL     1       0.474  13.342  19.556  0.00  0.00    +0.000 N 
ATOM      9  N   UNL     1       1.450  13.809  20.360  0.00  0.00    +0.000 NA
ATOM     10  N   UNL     1       1.864  12.805  21.129  0.00  0.00    +0.000 NA
ATOM     11  C   UNL     1       1.143  11.705  20.787  0.00  0.00    +0.000 A 
ATOM     12  C   UNL     1       0.250  12.020  19.791  0.00  0.00    +0.000 A 
ATOM     13  C   UNL     1      -0.684  11.090  19.119  0.00  0.00    +0.000 C 
ATOM     14  C   UNL     1      -0.746   9.763  19.913  0.00  0.00    +0.000 C 
ATOM     15  C   UNL     1       0.636   9.296  20.455  0.00  0.00    +0.000 C 
ATOM     16  C   UNL     1       1.281  10.359  21.384  0.00  0.00    +0.000 C 
ENDBRANCH   1  15
BRANCH   4  17
ATOM     17  C   UNL     1       3.355   6.210  17.753  0.00  0.00    +0.000 C 
ATOM     18  C   UNL     1       4.789   6.300  18.296  0.00  0.00    +0.000 C 
ATOM     19  C   UNL     1       5.046   4.964  18.948  0.00  0.00    +0.000 C 
ATOM     20  O   UNL     1       6.090   4.645  19.495  0.00  0.00    +0.000 OA
ATOM     21  N   UNL     1       3.899   4.201  18.860  0.00  0.00    +0.000 N 
ATOM     22  C   UNL     1       3.691   2.972  19.600  0.00  0.00    +0.000 C 
ATOM     23  C   UNL     1       2.605   2.108  18.957  0.00  0.00    +0.000 C 
ATOM     24  C   UNL     1       1.377   2.924  18.530  0.00  0.00    +0.000 C 
ATOM     25  C   UNL     1       1.785   4.131  17.676  0.00  0.00    +0.000 C 
ATOM     26  C   UNL     1       2.756   4.995  18.476  0.00  0.00    +0.000 C 
ENDBRANCH   4  17
TORSDOF 2
ENDMDL
MODEL 5
REMARK VINA RESULT:      -6.8      2.492      7.797
REMARK  Name = 
REMARK  3 active torsions:
REMARK  status: ('A' for Active; 'I' for Inactive)
REMARK    1  A    between atoms: C_1  and  N_2
REMARK    2  A    between atoms: C_9  and  N_10
REMARK    3  A    between atoms: N_13  and  C_14
REMARK                            x       y       z     vdW  Elec       q    Type
REMARK                         _______ _______ _______ _____ _____    ______ ____
ROOT
ATOM      1  N   UNL     1       1.085  10.681  19.690  0.00  0.00    +0.000 N 
ATOM      2  C   UNL     1       1.188   9.592  18.864  0.00  0.00    +0.000 C 
ATOM      3  O   UNL     1       0.582   9.479  17.809  0.00  0.00    +0.000 OA
ATOM      4  N   UNL     1       2.052   8.649  19.343  0.00  0.00    +0.000 N 
ATOM      5  H   UNL     1       1.705  10.750  20.482  0.00  0.00    +0.000 HD
ATOM      6  H   UNL     1       2.371   8.746  20.295  0.00  0.00    +0.000 HD
ENDROOT
BRANCH   1  15
ATOM      7  C   UNL     1       4.360  15.020  20.923  0.00  0.00    +0.000 C 
ATOM      8  N   UNL     1       3.023  14.524  21.106  0.00  0.00    +0.000 N 
ATOM      9  N   UNL     1       2.362  14.747  22.260  0.00  0.00    +0.000 NA
ATOM     10  N   UNL     1       1.171  14.161  22.172  0.00  0.00    +0.000 NA
ATOM     11  C   UNL     1       1.101  13.561  20.954  0.00  0.00    +0.000 A 
ATOM     12  C   UNL     1       2.264  13.779  20.256  0.00  0.00    +0.000 A 
ATOM     13  C   UNL     1       2.595  13.259  18.911  0.00  0.00    +0.000 C 
ATOM     14  C   UNL     1       1.316  12.687  18.254  0.00  0.00    +0.000 C 
ATOM     15  C   UNL     1       0.406  11.902  19.242  0.00  0.00    +0.000 C 
ATOM     16  C   UNL     1      -0.046  12.784  20.436  0.00  0.00    +0.000 C 
ENDBRANCH   1  15
BRANCH   4  17
ATOM     17  C   UNL     1       2.187   7.349  18.686  0.00  0.00    +0.000 C 
ATOM     18  C   UNL     1       3.293   7.384  17.620  0.00  0.00    +0.000 C 
ATOM     19  C   UNL     1       4.048   6.090  17.794  0.00  0.00    +0.000 C 
ATOM     20  O   UNL     1       5.006   5.747  17.120  0.00  0.00    +0.000 OA
ATOM     21  N   UNL     1       3.505   5.402  18.860  0.00  0.00    +0.000 N 
ATOM     22  C   UNL     1       4.134   4.252  19.481  0.00  0.00    +0.000 C 
ATOM     23  C   UNL     1       3.122   3.415  20.264  0.00  0.00    +0.000 C 
ATOM     24  C   UNL     1       2.171   4.275  21.108  0.00  0.00    +0.000 C 
ATOM     25  C   UNL     1       1.528   5.381  20.262  0.00  0.00    +0.000 C 
ATOM     26  C   UNL     1       2.632   6.238  19.649  0.00  0.00    +0.000 C 
ENDBRANCH   4  17
TORSDOF 2
ENDMDL
MODEL 6
REMARK VINA RESULT:      -6.7      1.608      2.339
REMARK  Name = 
REMARK  3 active torsions:
REMARK  status: ('A' for Active; 'I' for Inactive)
REMARK    1  A    between atoms: C_1  and  N_2
REMARK    2  A    between atoms: C_9  and  N_10
REMARK    3  A    between atoms: N_13  and  C_14
REMARK                            x       y       z     vdW  Elec       q    Type
REMARK                         _______ _______ _______ _____ _____    ______ ____
ROOT
ATOM      1  N   UNL     1       2.533   7.428  18.875  0.00  0.00    +0.000 N 
ATOM      2  C   UNL     1       1.600   8.429  18.804  0.00  0.00    +0.000 C 
ATOM      3  O   UNL     1       1.095   8.815  17.761  0.00  0.00    +0.000 OA
ATOM      4  N   UNL     1       1.285   8.942  20.030  0.00  0.00    +0.000 N 
ATOM      5  H   UNL     1       2.814   7.089  19.782  0.00  0.00    +0.000 HD
ATOM      6  H   UNL     1       1.872   8.686  20.810  0.00  0.00    +0.000 HD
ENDROOT
BRANCH   1  15
ATOM      7  C   UNL     1       3.390   2.225  20.683  0.00  0.00    +0.000 C 
ATOM      8  N   UNL     1       3.997   3.262  19.894  0.00  0.00    +0.000 N 
ATOM      9  N   UNL     1       5.332   3.447  19.916  0.00  0.00    +0.000 NA
ATOM     10  N   UNL     1       5.618   4.479  19.128  0.00  0.00    +0.000 NA
ATOM     11  C   UNL     1       4.445   4.943  18.622  0.00  0.00    +0.000 A 
ATOM     12  C   UNL     1       3.399   4.185  19.092  0.00  0.00    +0.000 A 
ATOM     13  C   UNL     1       1.963   4.394  18.806  0.00  0.00    +0.000 C 
ATOM     14  C   UNL     1       1.813   5.403  17.642  0.00  0.00    +0.000 C 
ATOM     15  C   UNL     1       2.821   6.586  17.708  0.00  0.00    +0.000 C 
ATOM     16  C   UNL     1       4.292   6.091  17.702  0.00  0.00    +0.000 C 
ENDBRANCH   1  15
BRANCH   4  17
ATOM     17  C   UNL     1       0.424  10.118  20.156  0.00  0.00    +0.000 C 
ATOM     18  C   UNL     1      -0.297  10.128  21.513  0.00  0.00    +0.000 C 
ATOM     19  C   UNL     1      -0.215  11.556  21.990  0.00  0.00    +0.000 C 
ATOM     20  O   UNL     1      -0.684  11.967  23.040  0.00  0.00    +0.000 OA
ATOM     21  N   UNL     1       0.509  12.289  21.071  0.00  0.00    +0.000 N 
ATOM     22  C   UNL     1       1.010  13.626  21.323  0.00  0.00    +0.000 C 
ATOM     23  C   UNL     1       1.317  14.363  20.019  0.00  0.00    +0.000 C 
ATOM     24  C   UNL     1       2.056  13.483  19.002  0.00  0.00    +0.000 C 
ATOM     25  C   UNL     1       1.329  12.148  18.795  0.00  0.00    +0.000 C 
ATOM     26  C   UNL     1       1.210  11.437  20.141  0.00  0.00    +0.000 C 
ENDBRANCH   4  17
TORSDOF 2
ENDMDL
MODEL 7
REMARK VINA RESULT:      -6.7      2.698      3.880
REMARK  Name = 
REMARK  3 active torsions:
REMARK  status: ('A' for Active; 'I' for Inactive)
REMARK    1  A    between atoms: C_1  and  N_2
REMARK    2  A    between atoms: C_9  and  N_10
REMARK    3  A    between atoms: N_13  and  C_14
REMARK                            x       y       z     vdW  Elec       q    Type
REMARK                         _______ _______ _______ _____ _____    ______ ____
ROOT
ATOM      1  N   UNL     1       2.642   7.224  19.117  0.00  0.00    +0.000 N 
ATOM      2  C   UNL     1       2.237   8.252  18.308  0.00  0.00    +0.000 C 
ATOM      3  O   UNL     1       2.819   8.584  17.286  0.00  0.00    +0.000 OA
ATOM      4  N   UNL     1       1.102   8.862  18.762  0.00  0.00    +0.000 N 
ATOM      5  H   UNL     1       2.044   6.938  19.877  0.00  0.00    +0.000 HD
ATOM      6  H   UNL     1       0.791   8.639  19.696  0.00  0.00    +0.000 HD
ENDROOT
BRANCH   1  15
ATOM      7  C   UNL     1       0.413   2.118  18.916  0.00  0.00    +0.000 C 
ATOM      8  N   UNL     1       1.514   2.850  19.481  0.00  0.00    +0.000 N 
ATOM      9  N   UNL     1       1.967   2.559  20.717  0.00  0.00    +0.000 NA
ATOM     10  N   UNL     1       2.961   3.398  20.999  0.00  0.00    +0.000 NA
ATOM     11  C   UNL     1       3.115   4.222  19.928  0.00  0.00    +0.000 A 
ATOM     12  C   UNL     1       2.209   3.892  18.949  0.00  0.00    +0.000 A 
ATOM     13  C   UNL     1       2.030   4.577  17.649  0.00  0.00    +0.000 C 
ATOM     14  C   UNL     1       3.224   5.530  17.404  0.00  0.00    +0.000 C 
ATOM     15  C   UNL     1       3.687   6.291  18.679  0.00  0.00    +0.000 C 
ATOM     16  C   UNL     1       4.103   5.316  19.813  0.00  0.00    +0.000 C 
ENDBRANCH   1  15
BRANCH   4  17
ATOM     17  C   UNL     1       0.593  10.077  18.124  0.00  0.00    +0.000 C 
ATOM     18  C   UNL     1      -0.943  10.088  18.112  0.00  0.00    +0.000 C 
ATOM     19  C   UNL     1      -1.329  11.497  18.485  0.00  0.00    +0.000 C 
ATOM     20  O   UNL     1      -2.477  11.903  18.578  0.00  0.00    +0.000 OA
ATOM     21  N   UNL     1      -0.180  12.216  18.745  0.00  0.00    +0.000 N 
ATOM     22  C   UNL     1      -0.171  13.519  19.381  0.00  0.00    +0.000 C 
ATOM     23  C   UNL     1       1.127  14.273  19.095  0.00  0.00    +0.000 C 
ATOM     24  C   UNL     1       2.370  13.384  19.231  0.00  0.00    +0.000 C 
ATOM     25  C   UNL     1       2.218  12.093  18.415  0.00  0.00    +0.000 C 
ATOM     26  C   UNL     1       0.970  11.354  18.888  0.00  0.00    +0.000 C 
ENDBRANCH   4  17
TORSDOF 2
ENDMDL
MODEL 8
REMARK VINA RESULT:      -6.6      1.309      1.662
REMARK  Name = 
REMARK  3 active torsions:
REMARK  status: ('A' for Active; 'I' for Inactive)
REMARK    1  A    between atoms: C_1  and  N_2
REMARK    2  A    between atoms: C_9  and  N_10
REMARK    3  A    between atoms: N_13  and  C_14
REMARK                            x       y       z     vdW  Elec       q    Type
REMARK                         _______ _______ _______ _____ _____    ______ ____
ROOT
ATOM      1  N   UNL     1       3.195   5.788  20.140  0.00  0.00    +0.000 N 
ATOM      2  C   UNL     1       2.111   6.586  19.884  0.00  0.00    +0.000 C 
ATOM      3  O   UNL     1       1.503   6.588  18.825  0.00  0.00    +0.000 OA
ATOM      4  N   UNL     1       1.774   7.373  20.949  0.00  0.00    +0.000 N 
ATOM      5  H   UNL     1       3.568   5.761  21.077  0.00  0.00    +0.000 HD
ATOM      6  H   UNL     1       2.430   7.433  21.714  0.00  0.00    +0.000 HD
ENDROOT
BRANCH   1  15
ATOM      7  C   UNL     1       7.931   7.224  17.575  0.00  0.00    +0.000 C 
ATOM      8  N   UNL     1       6.585   6.793  17.307  0.00  0.00    +0.000 N 
ATOM      9  N   UNL     1       5.911   7.275  16.243  0.00  0.00    +0.000 NA
ATOM     10  N   UNL     1       4.694   6.738  16.250  0.00  0.00    +0.000 NA
ATOM     11  C   UNL     1       4.614   5.924  17.337  0.00  0.00    +0.000 A 
ATOM     12  C   UNL     1       5.804   5.940  18.023  0.00  0.00    +0.000 A 
ATOM     13  C   UNL     1       6.105   5.219  19.280  0.00  0.00    +0.000 C 
ATOM     14  C   UNL     1       4.989   4.183  19.556  0.00  0.00    +0.000 C 
ATOM     15  C   UNL     1       3.561   4.702  19.225  0.00  0.00    +0.000 C 
ATOM     16  C   UNL     1       3.433   5.130  17.739  0.00  0.00    +0.000 C 
ENDBRANCH   1  15
BRANCH   4  17
ATOM     17  C   UNL     1       0.742   8.403  20.828  0.00  0.00    +0.000 C 
ATOM     18  C   UNL     1       0.145   8.745  22.201  0.00  0.00    +0.000 C 
ATOM     19  C   UNL     1       0.025  10.249  22.214  0.00  0.00    +0.000 C 
ATOM     20  O   UNL     1      -0.416  10.905  23.144  0.00  0.00    +0.000 OA
ATOM     21  N   UNL     1       0.538  10.743  21.031  0.00  0.00    +0.000 N 
ATOM     22  C   UNL     1       0.827  12.145  20.802  0.00  0.00    +0.000 C 
ATOM     23  C   UNL     1       0.898  12.466  19.309  0.00  0.00    +0.000 C 
ATOM     24  C   UNL     1       1.687  11.416  18.516  0.00  0.00    +0.000 C 
ATOM     25  C   UNL     1       1.179  10.000  18.815  0.00  0.00    +0.000 C 
ATOM     26  C   UNL     1       1.292   9.742  20.315  0.00  0.00    +0.000 C 
ENDBRANCH   4  17
TORSDOF 2
ENDMDL
MODEL 9
REMARK VINA RESULT:      -6.5      2.845      4.143
REMARK  Name = 
REMARK  3 active torsions:
REMARK  status: ('A' for Active; 'I' for Inactive)
REMARK    1  A    between atoms: C_1  and  N_2
REMARK    2  A    between atoms: C_9  and  N_10
REMARK    3  A    between atoms: N_13  and  C_14
REMARK                            x       y       z     vdW  Elec       q    Type
REMARK                         _______ _______ _______ _____ _____    ______ ____
ROOT
ATOM      1  N   UNL     1       2.380   7.248  19.419  0.00  0.00    +0.000 N 
ATOM      2  C   UNL     1       1.977   8.430  18.856  0.00  0.00    +0.000 C 
ATOM      3  O   UNL     1       2.564   8.982  17.938  0.00  0.00    +0.000 OA
ATOM      4  N   UNL     1       0.837   8.921  19.426  0.00  0.00    +0.000 N 
ATOM      5  H   UNL     1       1.778   6.799  20.092  0.00  0.00    +0.000 HD
ATOM      6  H   UNL     1       0.520   8.495  20.284  0.00  0.00    +0.000 HD
ENDROOT
BRANCH   1  15
ATOM      7  C   UNL     1       0.472   2.033  18.933  0.00  0.00    +0.000 C 
ATOM      8  N   UNL     1       1.577   2.788  19.458  0.00  0.00    +0.000 N 
ATOM      9  N   UNL     1       2.173   2.419  20.610  0.00  0.00    +0.000 NA
ATOM     10  N   UNL     1       3.135   3.299  20.875  0.00  0.00    +0.000 NA
ATOM     11  C   UNL     1       3.124   4.227  19.881  0.00  0.00    +0.000 A 
ATOM     12  C   UNL     1       2.145   3.923  18.966  0.00  0.00    +0.000 A 
ATOM     13  C   UNL     1       1.790   4.709  17.764  0.00  0.00    +0.000 C 
ATOM     14  C   UNL     1       2.888   5.766  17.499  0.00  0.00    +0.000 C 
ATOM     15  C   UNL     1       3.432   6.438  18.793  0.00  0.00    +0.000 C 
ATOM     16  C   UNL     1       4.024   5.397  19.779  0.00  0.00    +0.000 C 
ENDBRANCH   1  15
BRANCH   4  17
ATOM     17  C   UNL     1       0.328  10.246  19.071  0.00  0.00    +0.000 C 
ATOM     18  C   UNL     1      -0.741  10.147  17.971  0.00  0.00    +0.000 C 
ATOM     19  C   UNL     1      -1.829  11.103  18.393  0.00  0.00    +0.000 C 
ATOM     20  O   UNL     1      -2.856  11.309  17.767  0.00  0.00    +0.000 OA
ATOM     21  N   UNL     1      -1.485  11.654  19.611  0.00  0.00    +0.000 N 
ATOM     22  C   UNL     1      -2.403  12.409  20.442  0.00  0.00    +0.000 C 
ATOM     23  C   UNL     1      -1.656  13.294  21.440  0.00  0.00    +0.000 C 
ATOM     24  C   UNL     1      -0.486  12.566  22.116  0.00  0.00    +0.000 C 
ATOM     25  C   UNL     1       0.429  11.907  21.076  0.00  0.00    +0.000 C 
ATOM     26  C   UNL     1      -0.397  10.939  20.234  0.00  0.00    +0.000 C 
ENDBRANCH   4  17
TORSDOF 2
ENDMDL
