MODEL 1
REMARK VINA RESULT:      -7.1      0.000      0.000
REMARK  Name = 
REMARK  5 active torsions:
REMARK  status: ('A' for Active; 'I' for Inactive)
REMARK    1  A    between atoms: C_1  and  N_2
REMARK    2  A    between atoms: C_4  and  C_5
REMARK    3  A    between atoms: C_5  and  C_6
REMARK    4  A    between atoms: C_7  and  N_8
REMARK    5  A    between atoms: C_17  and  C_19
REMARK                            x       y       z     vdW  Elec       q    Type
REMARK                         _______ _______ _______ _____ _____    ______ ____
ROOT
ATOM      1  C   UNL     1       3.130   6.605  18.160  0.00  0.00    +0.000 C 
ATOM      2  C   UNL     1       2.858   5.266  18.942  0.00  0.00    +0.000 C 
ATOM      3  C   UNL     1       2.863   5.807  20.389  0.00  0.00    +0.000 C 
ATOM      4  C   UNL     1       2.220   7.185  20.300  0.00  0.00    +0.000 C 
ATOM      5  N   UNL     1       2.351   7.599  18.916  0.00  0.00    +0.000 N 
ATOM      6  C   UNL     1       1.773   8.726  18.339  0.00  0.00    +0.000 C 
ATOM      7  O   UNL     1       1.861   8.919  17.122  0.00  0.00    +0.000 OA
ENDROOT
BRANCH   2   8
ATOM      8  N   UNL     1       1.559   4.589  18.653  0.00  0.00    +0.000 NA
ATOM      9  C   UNL     1       1.014   3.846  19.825  0.00  0.00    +0.000 C 
ATOM     10  C   UNL     1       1.730   2.519  20.142  0.00  0.00    +0.000 C 
ATOM     11  O   UNL     1       1.751   1.649  19.008  0.00  0.00    +0.000 OA
ATOM     12  C   UNL     1       2.361   2.300  17.886  0.00  0.00    +0.000 C 
ATOM     13  C   UNL     1       1.627   3.608  17.538  0.00  0.00    +0.000 C 
ENDBRANCH   2   8
BRANCH   6  14
ATOM     14  C   UNL     1       1.046   9.645  19.210  0.00  0.00    +0.000 A 
ATOM     15  C   UNL     1      -0.153   9.498  19.892  0.00  0.00    +0.000 A 
ATOM     16  C   UNL     1      -0.372  10.699  20.615  0.00  0.00    +0.000 A 
ATOM     17  C   UNL     1       0.677  11.528  20.300  0.00  0.00    +0.000 A 
ATOM     18  O   UNL     1       1.524  10.910  19.444  0.00  0.00    +0.000 OA
ENDBRANCH   6  14
BRANCH   1  19
ATOM     19  C   UNL     1       4.613   7.056  18.175  0.00  0.00    +0.000 C 
BRANCH  19  23
ATOM     20  C   UNL     1       6.434   4.312  14.392  0.00  0.00    +0.000 C 
ATOM     21  N   UNL     1       6.294   5.254  15.476  0.00  0.00    +0.000 N 
ATOM     22  C   UNL     1       5.133   5.647  16.076  0.00  0.00    +0.000 A 
ATOM     23  C   UNL     1       5.495   6.459  17.134  0.00  0.00    +0.000 A 
ATOM     24  C   UNL     1       6.906   6.505  17.058  0.00  0.00    +0.000 A 
ATOM     25  N   UNL     1       7.389   5.793  16.037  0.00  0.00    +0.000 NA
ENDBRANCH  19  23
ENDBRANCH   1  19
TORSDOF 4
ENDMDL
MODEL 2
REMARK VINA RESULT:      -6.9      0.966      1.028
REMARK  Name = 
REMARK  5 active torsions:
REMARK  status: ('A' for Active; 'I' for Inactive)
REMARK    1  A    between atoms: C_1  and  N_2
REMARK    2  A    between atoms: C_4  and  C_5
REMARK    3  A    between atoms: C_5  and  C_6
REMARK    4  A    between atoms: C_7  and  N_8
REMARK    5  A    between atoms: C_17  and  C_19
REMARK                            x       y       z     vdW  Elec       q    Type
REMARK                         _______ _______ _______ _____ _____    ______ ____
ROOT
ATOM      1  C   UNL     1       3.369   6.134  18.525  0.00  0.00    +0.000 C 
ATOM      2  C   UNL     1       2.691   5.114  19.516  0.00  0.00    +0.000 C 
ATOM      3  C   UNL     1       2.456   6.048  20.725  0.00  0.00    +0.000 C 
ATOM      4  C   UNL     1       2.105   7.400  20.121  0.00  0.00    +0.000 C 
ATOM      5  N   UNL     1       2.623   7.380  18.765  0.00  0.00    +0.000 N 
ATOM      6  C   UNL     1       2.402   8.347  17.789  0.00  0.00    +0.000 C 
ATOM      7  O   UNL     1       2.801   8.168  16.633  0.00  0.00    +0.000 OA
ENDROOT
BRANCH   2   8
ATOM      8  N   UNL     1       1.396   4.523  19.067  0.00  0.00    +0.000 NA
ATOM      9  C   UNL     1       0.794   3.602  20.073  0.00  0.00    +0.000 C 
ATOM     10  C   UNL     1       1.478   2.227  20.185  0.00  0.00    +0.000 C 
ATOM     11  O   UNL     1       1.534   1.563  18.920  0.00  0.00    +0.000 OA
ATOM     12  C   UNL     1       2.198   2.383  17.950  0.00  0.00    +0.000 C 
ATOM     13  C   UNL     1       1.496   3.746  17.804  0.00  0.00    +0.000 C 
ENDBRANCH   2   8
BRANCH   6  14
ATOM     14  C   UNL     1       1.666   9.549  18.169  0.00  0.00    +0.000 A 
ATOM     15  C   UNL     1       0.311   9.761  18.377  0.00  0.00    +0.000 A 
ATOM     16  C   UNL     1       0.156  11.118  18.762  0.00  0.00    +0.000 A 
ATOM     17  C   UNL     1       1.412  11.671  18.722  0.00  0.00    +0.000 A 
ATOM     18  O   UNL     1       2.323  10.740  18.350  0.00  0.00    +0.000 OA
ENDBRANCH   6  14
BRANCH   1  19
ATOM     19  C   UNL     1       4.864   6.412  18.827  0.00  0.00    +0.000 C 
BRANCH  19  23
ATOM     20  C   UNL     1       7.117   4.802  14.646  0.00  0.00    +0.000 C 
ATOM     21  N   UNL     1       6.834   5.164  16.013  0.00  0.00    +0.000 N 
ATOM     22  C   UNL     1       5.763   5.878  16.468  0.00  0.00    +0.000 A 
ATOM     23  C   UNL     1       5.846   5.871  17.847  0.00  0.00    +0.000 A 
ATOM     24  C   UNL     1       7.028   5.143  18.112  0.00  0.00    +0.000 A 
ATOM     25  N   UNL     1       7.640   4.733  16.999  0.00  0.00    +0.000 NA
ENDBRANCH  19  23
ENDBRANCH   1  19
TORSDOF 4
ENDMDL
MODEL 3
REMARK VINA RESULT:      -6.4      2.340      6.266
REMARK  Name = 
REMARK  5 active torsions:
REMARK  status: ('A' for Active; 'I' for Inactive)
REMARK    1  A    between atoms: C_1  and  N_2
REMARK    2  A    between atoms: C_4  and  C_5
REMARK    3  A    between atoms: C_5  and  C_6
REMARK    4  A    between atoms: C_7  and  N_8
REMARK    5  A    between atoms: C_17  and  C_19
REMARK                            x       y       z     vdW  Elec       q    Type
REMARK                         _______ _______ _______ _____ _____    ______ ____
ROOT
ATOM      1  C   UNL     1       3.441   6.052  18.313  0.00  0.00    +0.000 C 
ATOM      2  C   UNL     1       2.603   4.832  18.852  0.00  0.00    +0.000 C 
ATOM      3  C   UNL     1       2.196   4.186  17.508  0.00  0.00    +0.000 C 
ATOM      4  C   UNL     1       3.396   4.385  16.592  0.00  0.00    +0.000 C 
ATOM      5  N   UNL     1       4.154   5.485  17.157  0.00  0.00    +0.000 N 
ATOM      6  C   UNL     1       5.409   5.917  16.738  0.00  0.00    +0.000 C 
ATOM      7  O   UNL     1       6.009   6.794  17.368  0.00  0.00    +0.000 OA
ENDROOT
BRANCH   2   8
ATOM      8  N   UNL     1       3.346   3.844  19.689  0.00  0.00    +0.000 NA
ATOM      9  C   UNL     1       2.983   2.431  19.386  0.00  0.00    +0.000 C 
ATOM     10  C   UNL     1       1.612   1.982  19.926  0.00  0.00    +0.000 C 
ATOM     11  O   UNL     1       1.506   2.199  21.336  0.00  0.00    +0.000 OA
ATOM     12  C   UNL     1       1.752   3.575  21.654  0.00  0.00    +0.000 C 
ATOM     13  C   UNL     1       3.138   4.019  21.151  0.00  0.00    +0.000 C 
ENDBRANCH   2   8
BRANCH   6  14
ATOM     14  C   UNL     1       5.993   5.284  15.559  0.00  0.00    +0.000 A 
ATOM     15  C   UNL     1       5.495   4.309  14.708  0.00  0.00    +0.000 A 
ATOM     16  C   UNL     1       6.476   4.090  13.706  0.00  0.00    +0.000 A 
ATOM     17  C   UNL     1       7.534   4.905  14.025  0.00  0.00    +0.000 A 
ATOM     18  O   UNL     1       7.259   5.614  15.146  0.00  0.00    +0.000 OA
ENDBRANCH   6  14
BRANCH   1  19
ATOM     19  C   UNL     1       2.578   7.235  17.803  0.00  0.00    +0.000 C 
BRANCH  19  23
ATOM     20  C   UNL     1       0.702   9.086  22.070  0.00  0.00    +0.000 C 
ATOM     21  N   UNL     1       1.181   8.942  20.717  0.00  0.00    +0.000 N 
ATOM     22  C   UNL     1       1.869   7.884  20.198  0.00  0.00    +0.000 A 
ATOM     23  C   UNL     1       2.004   8.131  18.845  0.00  0.00    +0.000 A 
ATOM     24  C   UNL     1       1.380   9.386  18.666  0.00  0.00    +0.000 A 
ATOM     25  N   UNL     1       0.901   9.889  19.806  0.00  0.00    +0.000 NA
ENDBRANCH  19  23
ENDBRANCH   1  19
TORSDOF 4
ENDMDL
MODEL 4
REMARK VINA RESULT:      -6.3      2.200      6.231
REMARK  Name = 
REMARK  5 active torsions:
REMARK  status: ('A' for Active; 'I' for Inactive)
REMARK    1  A    between atoms: C_1  and  N_2
REMARK    2  A    between atoms: C_4  and  C_5
REMARK    3  A    between atoms: C_5  and  C_6
REMARK    4  A    between atoms: C_7  and  N_8
REMARK    5  A    between atoms: C_17  and  C_19
REMARK                            x       y       z     vdW  Elec       q    Type
REMARK                         _______ _______ _______ _____ _____    ______ ____
ROOT
ATOM      1  C   UNL     1       3.398   6.411  18.473  0.00  0.00    +0.000 C 
ATOM      2  C   UNL     1       2.533   5.248  19.088  0.00  0.00    +0.000 C 
ATOM      3  C   UNL     1       2.103   4.531  17.789  0.00  0.00    +0.000 C 
ATOM      4  C   UNL     1       3.303   4.642  16.858  0.00  0.00    +0.000 C 
ATOM      5  N   UNL     1       4.091   5.756  17.352  0.00  0.00    +0.000 N 
ATOM      6  C   UNL     1       5.355   6.129  16.902  0.00  0.00    +0.000 C 
ATOM      7  O   UNL     1       5.980   7.027  17.475  0.00  0.00    +0.000 OA
ENDROOT
BRANCH   2   8
ATOM      8  N   UNL     1       3.254   4.296  19.983  0.00  0.00    +0.000 NA
ATOM      9  C   UNL     1       3.319   2.912  19.434  0.00  0.00    +0.000 C 
ATOM     10  C   UNL     1       2.001   2.119  19.515  0.00  0.00    +0.000 C 
ATOM     11  O   UNL     1       1.502   2.066  20.854  0.00  0.00    +0.000 OA
ATOM     12  C   UNL     1       1.333   3.388  21.381  0.00  0.00    +0.000 C 
ATOM     13  C   UNL     1       2.656   4.174  21.339  0.00  0.00    +0.000 C 
ENDBRANCH   2   8
BRANCH   6  14
ATOM     14  C   UNL     1       5.917   5.409  15.763  0.00  0.00    +0.000 A 
ATOM     15  C   UNL     1       5.380   4.417  14.957  0.00  0.00    +0.000 A 
ATOM     16  C   UNL     1       6.357   4.100  13.978  0.00  0.00    +0.000 A 
ATOM     17  C   UNL     1       7.450   4.880  14.266  0.00  0.00    +0.000 A 
ATOM     18  O   UNL     1       7.201   5.656  15.347  0.00  0.00    +0.000 OA
ENDBRANCH   6  14
BRANCH   1  19
ATOM     19  C   UNL     1       2.563   7.582  17.892  0.00  0.00    +0.000 C 
BRANCH  19  23
ATOM     20  C   UNL     1       0.115  11.311  20.185  0.00  0.00    +0.000 C 
ATOM     21  N   UNL     1       0.745  10.048  19.885  0.00  0.00    +0.000 N 
ATOM     22  C   UNL     1       1.173   9.615  18.663  0.00  0.00    +0.000 A 
ATOM     23  C   UNL     1       1.818   8.412  18.879  0.00  0.00    +0.000 A 
ATOM     24  C   UNL     1       1.691   8.204  20.271  0.00  0.00    +0.000 A 
ATOM     25  N   UNL     1       1.020   9.186  20.878  0.00  0.00    +0.000 NA
ENDBRANCH  19  23
ENDBRANCH   1  19
TORSDOF 4
ENDMDL
MODEL 5
REMARK VINA RESULT:      -6.2      3.484      4.597
REMARK  Name = 
REMARK  5 active torsions:
REMARK  status: ('A' for Active; 'I' for Inactive)
REMARK    1  A    between atoms: C_1  and  N_2
REMARK    2  A    between atoms: C_4  and  C_5
REMARK    3  A    between atoms: C_5  and  C_6
REMARK    4  A    between atoms: C_7  and  N_8
REMARK    5  A    between atoms: C_17  and  C_19
REMARK                            x       y       z     vdW  Elec       q    Type
REMARK                         _______ _______ _______ _____ _____    ______ ____
ROOT
ATOM      1  C   UNL     1       4.685   4.372  16.882  0.00  0.00    +0.000 C 
ATOM      2  C   UNL     1       3.976   3.784  18.160  0.00  0.00    +0.000 C 
ATOM      3  C   UNL     1       5.185   3.728  19.122  0.00  0.00    +0.000 C 
ATOM      4  C   UNL     1       6.016   4.959  18.787  0.00  0.00    +0.000 C 
ATOM      5  N   UNL     1       5.631   5.350  17.444  0.00  0.00    +0.000 N 
ATOM      6  C   UNL     1       6.023   6.512  16.784  0.00  0.00    +0.000 C 
ATOM      7  O   UNL     1       5.542   6.794  15.682  0.00  0.00    +0.000 OA
ENDROOT
BRANCH   2   8
ATOM      8  N   UNL     1       2.890   4.620  18.752  0.00  0.00    +0.000 NA
ATOM      9  C   UNL     1       2.778   4.471  20.231  0.00  0.00    +0.000 C 
ATOM     10  C   UNL     1       2.136   3.153  20.704  0.00  0.00    +0.000 C 
ATOM     11  O   UNL     1       0.847   2.956  20.116  0.00  0.00    +0.000 OA
ATOM     12  C   UNL     1       0.934   2.994  18.686  0.00  0.00    +0.000 C 
ATOM     13  C   UNL     1       1.539   4.325  18.204  0.00  0.00    +0.000 C 
ENDBRANCH   2   8
BRANCH   6  14
ATOM     14  C   UNL     1       6.988   7.384  17.446  0.00  0.00    +0.000 A 
ATOM     15  C   UNL     1       7.966   7.109  18.391  0.00  0.00    +0.000 A 
ATOM     16  C   UNL     1       8.638   8.329  18.662  0.00  0.00    +0.000 A 
ATOM     17  C   UNL     1       8.006   9.287  17.907  0.00  0.00    +0.000 A 
ATOM     18  O   UNL     1       7.003   8.731  17.187  0.00  0.00    +0.000 OA
ENDBRANCH   6  14
BRANCH   1  19
ATOM     19  C   UNL     1       5.504   3.331  16.077  0.00  0.00    +0.000 C 
BRANCH  19  23
ATOM     20  C   UNL     1       8.292   5.651  12.613  0.00  0.00    +0.000 C 
ATOM     21  N   UNL     1       7.312   4.822  13.273  0.00  0.00    +0.000 N 
ATOM     22  C   UNL     1       7.259   4.516  14.602  0.00  0.00    +0.000 A 
ATOM     23  C   UNL     1       6.090   3.804  14.792  0.00  0.00    +0.000 A 
ATOM     24  C   UNL     1       5.531   3.718  13.497  0.00  0.00    +0.000 A 
ATOM     25  N   UNL     1       6.284   4.316  12.571  0.00  0.00    +0.000 NA
ENDBRANCH  19  23
ENDBRANCH   1  19
TORSDOF 4
ENDMDL
MODEL 6
REMARK VINA RESULT:      -6.2      0.869      1.158
REMARK  Name = 
REMARK  5 active torsions:
REMARK  status: ('A' for Active; 'I' for Inactive)
REMARK    1  A    between atoms: C_1  and  N_2
REMARK    2  A    between atoms: C_4  and  C_5
REMARK    3  A    between atoms: C_5  and  C_6
REMARK    4  A    between atoms: C_7  and  N_8
REMARK    5  A    between atoms: C_17  and  C_19
REMARK                            x       y       z     vdW  Elec       q    Type
REMARK                         _______ _______ _______ _____ _____    ______ ____
ROOT
ATOM      1  C   UNL     1       2.560   6.923  18.051  0.00  0.00    +0.000 C 
ATOM      2  C   UNL     1       2.601   5.542  18.807  0.00  0.00    +0.000 C 
ATOM      3  C   UNL     1       2.962   6.036  20.226  0.00  0.00    +0.000 C 
ATOM      4  C   UNL     1       2.229   7.362  20.384  0.00  0.00    +0.000 C 
ATOM      5  N   UNL     1       1.951   7.828  19.038  0.00  0.00    +0.000 N 
ATOM      6  C   UNL     1       1.164   8.924  18.697  0.00  0.00    +0.000 C 
ATOM      7  O   UNL     1       0.905   9.161  17.513  0.00  0.00    +0.000 OA
ENDROOT
BRANCH   2   8
ATOM      8  N   UNL     1       1.321   4.775  18.843  0.00  0.00    +0.000 NA
ATOM      9  C   UNL     1       1.106   4.056  20.131  0.00  0.00    +0.000 C 
ATOM     10  C   UNL     1       1.966   2.791  20.320  0.00  0.00    +0.000 C 
ATOM     11  O   UNL     1       1.792   1.872  19.238  0.00  0.00    +0.000 OA
ATOM     12  C   UNL     1       2.087   2.506  17.986  0.00  0.00    +0.000 C 
ATOM     13  C   UNL     1       1.204   3.749  17.774  0.00  0.00    +0.000 C 
ENDBRANCH   2   8
BRANCH   6  14
ATOM     14  C   UNL     1       0.641   9.755  19.778  0.00  0.00    +0.000 A 
ATOM     15  C   UNL     1      -0.366   9.520  20.702  0.00  0.00    +0.000 A 
ATOM     16  C   UNL     1      -0.433  10.661  21.544  0.00  0.00    +0.000 A 
ATOM     17  C   UNL     1       0.500  11.545  21.061  0.00  0.00    +0.000 A 
ATOM     18  O   UNL     1       1.138  11.017  19.990  0.00  0.00    +0.000 OA
ENDBRANCH   6  14
BRANCH   1  19
ATOM     19  C   UNL     1       3.958   7.488  17.691  0.00  0.00    +0.000 C 
BRANCH  19  23
ATOM     20  C   UNL     1       7.916   4.410  17.564  0.00  0.00    +0.000 C 
ATOM     21  N   UNL     1       6.722   5.143  17.221  0.00  0.00    +0.000 N 
ATOM     22  C   UNL     1       5.937   5.873  18.065  0.00  0.00    +0.000 A 
ATOM     23  C   UNL     1       4.986   6.492  17.277  0.00  0.00    +0.000 A 
ATOM     24  C   UNL     1       5.280   6.038  15.971  0.00  0.00    +0.000 A 
ATOM     25  N   UNL     1       6.320   5.201  15.940  0.00  0.00    +0.000 NA
ENDBRANCH  19  23
ENDBRANCH   1  19
TORSDOF 4
ENDMDL
MODEL 7
REMARK VINA RESULT:      -6.2      3.368      4.619
REMARK  Name = 
REMARK  5 active torsions:
REMARK  status: ('A' for Active; 'I' for Inactive)
REMARK    1  A    between atoms: C_1  and  N_2
REMARK    2  A    between atoms: C_4  and  C_5
REMARK    3  A    between atoms: C_5  and  C_6
REMARK    4  A    between atoms: C_7  and  N_8
REMARK    5  A    between atoms: C_17  and  C_19
REMARK                            x       y       z     vdW  Elec       q    Type
REMARK                         _______ _______ _______ _____ _____    ______ ____
ROOT
ATOM      1  C   UNL     1       4.943   4.651  17.024  0.00  0.00    +0.000 C 
ATOM      2  C   UNL     1       4.228   4.089  18.310  0.00  0.00    +0.000 C 
ATOM      3  C   UNL     1       5.423   4.086  19.289  0.00  0.00    +0.000 C 
ATOM      4  C   UNL     1       6.235   5.323  18.929  0.00  0.00    +0.000 C 
ATOM      5  N   UNL     1       5.862   5.665  17.569  0.00  0.00    +0.000 N 
ATOM      6  C   UNL     1       6.240   6.813  16.879  0.00  0.00    +0.000 C 
ATOM      7  O   UNL     1       5.769   7.052  15.762  0.00  0.00    +0.000 OA
ENDROOT
BRANCH   2   8
ATOM      8  N   UNL     1       3.117   4.920  18.860  0.00  0.00    +0.000 NA
ATOM      9  C   UNL     1       2.830   4.635  20.295  0.00  0.00    +0.000 C 
ATOM     10  C   UNL     1       2.083   3.314  20.558  0.00  0.00    +0.000 C 
ATOM     11  O   UNL     1       0.863   3.244  19.816  0.00  0.00    +0.000 OA
ATOM     12  C   UNL     1       1.115   3.415  18.415  0.00  0.00    +0.000 C 
ATOM     13  C   UNL     1       1.827   4.752  18.140  0.00  0.00    +0.000 C 
ENDBRANCH   2   8
BRANCH   6  14
ATOM     14  C   UNL     1       7.179   7.724  17.527  0.00  0.00    +0.000 A 
ATOM     15  C   UNL     1       8.188   7.488  18.448  0.00  0.00    +0.000 A 
ATOM     16  C   UNL     1       8.809   8.736  18.715  0.00  0.00    +0.000 A 
ATOM     17  C   UNL     1       8.118   9.669  17.982  0.00  0.00    +0.000 A 
ATOM     18  O   UNL     1       7.126   9.072  17.279  0.00  0.00    +0.000 OA
ENDBRANCH   6  14
BRANCH   1  19
ATOM     19  C   UNL     1       5.794   3.603  16.263  0.00  0.00    +0.000 C 
BRANCH  19  23
ATOM     20  C   UNL     1       4.932   3.241  11.335  0.00  0.00    +0.000 C 
ATOM     21  N   UNL     1       5.481   3.595  12.622  0.00  0.00    +0.000 N 
ATOM     22  C   UNL     1       4.927   3.353  13.845  0.00  0.00    +0.000 A 
ATOM     23  C   UNL     1       5.858   3.755  14.783  0.00  0.00    +0.000 A 
ATOM     24  C   UNL     1       6.930   4.251  14.006  0.00  0.00    +0.000 A 
ATOM     25  N   UNL     1       6.691   4.175  12.694  0.00  0.00    +0.000 NA
ENDBRANCH  19  23
ENDBRANCH   1  19
TORSDOF 4
ENDMDL
MODEL 8
REMARK VINA RESULT:      -5.9      3.502      8.129
REMARK  Name = 
REMARK  5 active torsions:
REMARK  status: ('A' for Active; 'I' for Inactive)
REMARK    1  A    between atoms: C_1  and  N_2
REMARK    2  A    between atoms: C_4  and  C_5
REMARK    3  A    between atoms: C_5  and  C_6
REMARK    4  A    between atoms: C_7  and  N_8
REMARK    5  A    between atoms: C_17  and  C_19
REMARK                            x       y       z     vdW  Elec       q    Type
REMARK                         _______ _______ _______ _____ _____    ______ ____
ROOT
ATOM      1  C   UNL     1       0.090  10.613  19.267  0.00  0.00    +0.000 C 
ATOM      2  C   UNL     1       0.403  11.474  20.548  0.00  0.00    +0.000 C 
ATOM      3  C   UNL     1       0.610  10.339  21.576  0.00  0.00    +0.000 C 
ATOM      4  C   UNL     1       1.295   9.221  20.803  0.00  0.00    +0.000 C 
ATOM      5  N   UNL     1       1.004   9.467  19.402  0.00  0.00    +0.000 N 
ATOM      6  C   UNL     1       1.551   8.784  18.320  0.00  0.00    +0.000 C 
ATOM      7  O   UNL     1       1.315   9.155  17.165  0.00  0.00    +0.000 OA
ENDROOT
BRANCH   2   8
ATOM      8  N   UNL     1       1.622  12.332  20.481  0.00  0.00    +0.000 NA
ATOM      9  C   UNL     1       1.486  13.602  21.250  0.00  0.00    +0.000 C 
ATOM     10  C   UNL     1       0.596  14.670  20.587  0.00  0.00    +0.000 C 
ATOM     11  O   UNL     1       1.039  14.973  19.261  0.00  0.00    +0.000 OA
ATOM     12  C   UNL     1       1.086  13.784  18.462  0.00  0.00    +0.000 C 
ATOM     13  C   UNL     1       2.005  12.726  19.099  0.00  0.00    +0.000 C 
ENDBRANCH   2   8
BRANCH   6  14
ATOM     14  C   UNL     1       2.425   7.648  18.596  0.00  0.00    +0.000 A 
ATOM     15  C   UNL     1       3.530   7.161  17.915  0.00  0.00    +0.000 A 
ATOM     16  C   UNL     1       4.016   6.048  18.650  0.00  0.00    +0.000 A 
ATOM     17  C   UNL     1       3.158   5.888  19.709  0.00  0.00    +0.000 A 
ATOM     18  O   UNL     1       2.189   6.834  19.676  0.00  0.00    +0.000 OA
ENDBRANCH   6  14
BRANCH   1  19
ATOM     19  C   UNL     1      -1.357  10.059  19.214  0.00  0.00    +0.000 C 
BRANCH  19  23
ATOM     20  C   UNL     1      -3.121  10.238  14.522  0.00  0.00    +0.000 C 
ATOM     21  N   UNL     1      -2.915  10.462  15.933  0.00  0.00    +0.000 N 
ATOM     22  C   UNL     1      -2.129   9.729  16.773  0.00  0.00    +0.000 A 
ATOM     23  C   UNL     1      -2.142  10.383  17.990  0.00  0.00    +0.000 A 
ATOM     24  C   UNL     1      -2.996  11.488  17.772  0.00  0.00    +0.000 A 
ATOM     25  N   UNL     1      -3.483  11.524  16.529  0.00  0.00    +0.000 NA
ENDBRANCH  19  23
ENDBRANCH   1  19
TORSDOF 4
ENDMDL
MODEL 9
REMARK VINA RESULT:      -5.9      4.272      8.466
REMARK  Name = 
REMARK  5 active torsions:
REMARK  status: ('A' for Active; 'I' for Inactive)
REMARK    1  A    between atoms: C_1  and  N_2
REMARK    2  A    between atoms: C_4  and  C_5
REMARK    3  A    between atoms: C_5  and  C_6
REMARK    4  A    between atoms: C_7  and  N_8
REMARK    5  A    between atoms: C_17  and  C_19
REMARK                            x       y       z     vdW  Elec       q    Type
REMARK                         _______ _______ _______ _____ _____    ______ ____
ROOT
ATOM      1  C   UNL     1       0.355  12.273  20.440  0.00  0.00    +0.000 C 
ATOM      2  C   UNL     1       0.759  13.549  19.610  0.00  0.00    +0.000 C 
ATOM      3  C   UNL     1      -0.648  14.099  19.283  0.00  0.00    +0.000 C 
ATOM      4  C   UNL     1      -1.487  13.805  20.519  0.00  0.00    +0.000 C 
ATOM      5  N   UNL     1      -0.804  12.734  21.221  0.00  0.00    +0.000 N 
ATOM      6  C   UNL     1      -1.128  12.244  22.483  0.00  0.00    +0.000 C 
ATOM      7  O   UNL     1      -0.405  11.405  23.030  0.00  0.00    +0.000 OA
ENDROOT
BRANCH   2   8
ATOM      8  N   UNL     1       1.555  14.581  20.337  0.00  0.00    +0.000 NA
ATOM      9  C   UNL     1       1.463  15.934  19.718  0.00  0.00    +0.000 C 
ATOM     10  C   UNL     1       2.269  16.109  18.418  0.00  0.00    +0.000 C 
ATOM     11  O   UNL     1       3.647  15.775  18.605  0.00  0.00    +0.000 OA
ATOM     12  C   UNL     1       3.777  14.439  19.108  0.00  0.00    +0.000 C 
ATOM     13  C   UNL     1       3.005  14.268  20.429  0.00  0.00    +0.000 C 
ENDBRANCH   2   8
BRANCH   6  14
ATOM     14  C   UNL     1      -2.321  12.772  23.138  0.00  0.00    +0.000 A 
ATOM     15  C   UNL     1      -2.507  13.903  23.919  0.00  0.00    +0.000 A 
ATOM     16  C   UNL     1      -3.882  13.947  24.268  0.00  0.00    +0.000 A 
ATOM     17  C   UNL     1      -4.449  12.821  23.723  0.00  0.00    +0.000 A 
ATOM     18  O   UNL     1      -3.515  12.101  23.057  0.00  0.00    +0.000 OA
ENDBRANCH   6  14
BRANCH   1  19
ATOM     19  C   UNL     1      -0.106  11.074  19.573  0.00  0.00    +0.000 C 
BRANCH  19  23
ATOM     20  C   UNL     1       2.735   7.141  18.302  0.00  0.00    +0.000 C 
ATOM     21  N   UNL     1       2.007   8.139  19.048  0.00  0.00    +0.000 N 
ATOM     22  C   UNL     1       1.462   9.291  18.561  0.00  0.00    +0.000 A 
ATOM     23  C   UNL     1       0.762   9.864  19.605  0.00  0.00    +0.000 A 
ATOM     24  C   UNL     1       0.978   8.978  20.685  0.00  0.00    +0.000 A 
ATOM     25  N   UNL     1       1.753   7.943  20.353  0.00  0.00    +0.000 NA
ENDBRANCH  19  23
ENDBRANCH   1  19
TORSDOF 4
ENDMDL
