MODEL 1
REMARK VINA RESULT:      -9.6      0.000      0.000
REMARK  Name = 
REMARK  6 active torsions:
REMARK  status: ('A' for Active; 'I' for Inactive)
REMARK    1  A    between atoms: C_1  and  C_2
REMARK    2  A    between atoms: C_5  and  C_6
REMARK    3  A    between atoms: C_10  and  C_11
REMARK    4  A    between atoms: C_11  and  C_12
REMARK    5  A    between atoms: N_21  and  C_22
REMARK    6  A    between atoms: C_26  and  C_27
REMARK                            x       y       z     vdW  Elec       q    Type
REMARK                         _______ _______ _______ _____ _____    ______ ____
ROOT
ATOM      1  C   UNL     1       3.474   4.976  18.786  0.00  0.00    +0.000 C 
ATOM      2  N   UNL     1       3.387   4.719  20.273  0.00  0.00    +0.000 NA
ATOM      3  C   UNL     1       2.413   3.880  20.445  0.00  0.00    +0.000 C 
ATOM      4  N   UNL     1       2.020   3.520  21.686  0.00  0.00    +0.000 N 
ATOM      5  N   UNL     1       1.843   3.387  19.335  0.00  0.00    +0.000 N 
ATOM      6  C   UNL     1       0.746   2.465  19.198  0.00  0.00    +0.000 C 
ATOM      7  C   UNL     1       2.452   3.946  18.246  0.00  0.00    +0.000 C 
ATOM      8  O   UNL     1       2.179   3.684  17.081  0.00  0.00    +0.000 OA
ATOM      9  H   UNL     1       2.669   3.818  22.408  0.00  0.00    +0.000 HD
ATOM     10  H   UNL     1       1.659   2.589  21.823  0.00  0.00    +0.000 HD
ENDROOT
BRANCH   1  15
ATOM     11  C   UNL     1       1.804   8.439  19.252  0.00  0.00    +0.000 A 
ATOM     12  C   UNL     1       2.293   9.110  18.118  0.00  0.00    +0.000 A 
ATOM     13  C   UNL     1       3.114   8.471  17.187  0.00  0.00    +0.000 A 
ATOM     14  C   UNL     1       3.498   7.147  17.385  0.00  0.00    +0.000 A 
ATOM     15  C   UNL     1       3.028   6.426  18.491  0.00  0.00    +0.000 A 
ATOM     16  C   UNL     1       2.165   7.088  19.390  0.00  0.00    +0.000 A 
BRANCH  11  21
ATOM     17  C   UNL     1      -1.439  11.107  23.308  0.00  0.00    +0.000 C 
ATOM     18  C   UNL     1      -0.634  10.401  22.261  0.00  0.00    +0.000 A 
ATOM     19  C   UNL     1       0.373   9.508  22.606  0.00  0.00    +0.000 A 
ATOM     20  C   UNL     1       1.136   8.891  21.612  0.00  0.00    +0.000 A 
ATOM     21  C   UNL     1       0.914   9.116  20.234  0.00  0.00    +0.000 A 
ATOM     22  C   UNL     1      -0.147   9.991  19.888  0.00  0.00    +0.000 A 
ATOM     23  C   UNL     1      -0.558  10.318  18.474  0.00  0.00    +0.000 C 
ATOM     24  C   UNL     1      -0.880  10.640  20.906  0.00  0.00    +0.000 A 
ENDBRANCH  11  21
ENDBRANCH   1  15
BRANCH   1  25
ATOM     25  C   UNL     1       4.907   4.752  18.264  0.00  0.00    +0.000 A 
ATOM     26  C   UNL     1       6.022   5.180  19.009  0.00  0.00    +0.000 A 
ATOM     27  C   UNL     1       7.317   5.105  18.487  0.00  0.00    +0.000 A 
ATOM     28  C   UNL     1       7.525   4.603  17.206  0.00  0.00    +0.000 A 
ATOM     29  C   UNL     1       6.442   4.160  16.455  0.00  0.00    +0.000 A 
ATOM     30  C   UNL     1       5.149   4.235  16.978  0.00  0.00    +0.000 A 
ENDBRANCH   1  25
TORSDOF 3
ENDMDL
MODEL 2
REMARK VINA RESULT:      -9.2      1.783      3.730
REMARK  Name = 
REMARK  6 active torsions:
REMARK  status: ('A' for Active; 'I' for Inactive)
REMARK    1  A    between atoms: C_1  and  C_2
REMARK    2  A    between atoms: C_5  and  C_6
REMARK    3  A    between atoms: C_10  and  C_11
REMARK    4  A    between atoms: C_11  and  C_12
REMARK    5  A    between atoms: N_21  and  C_22
REMARK    6  A    between atoms: C_26  and  C_27
REMARK                            x       y       z     vdW  Elec       q    Type
REMARK                         _______ _______ _______ _____ _____    ______ ____
ROOT
ATOM      1  C   UNL     1       3.922   4.930  18.364  0.00  0.00    +0.000 C 
ATOM      2  N   UNL     1       4.072   4.224  17.035  0.00  0.00    +0.000 NA
ATOM      3  C   UNL     1       5.346   4.101  16.826  0.00  0.00    +0.000 C 
ATOM      4  N   UNL     1       5.811   3.589  15.667  0.00  0.00    +0.000 N 
ATOM      5  N   UNL     1       6.158   4.492  17.821  0.00  0.00    +0.000 N 
ATOM      6  C   UNL     1       7.596   4.497  17.884  0.00  0.00    +0.000 C 
ATOM      7  C   UNL     1       5.392   4.968  18.848  0.00  0.00    +0.000 C 
ATOM      8  O   UNL     1       5.830   5.378  19.916  0.00  0.00    +0.000 OA
ATOM      9  H   UNL     1       5.082   3.160  15.104  0.00  0.00    +0.000 HD
ATOM     10  H   UNL     1       6.672   3.063  15.686  0.00  0.00    +0.000 HD
ENDROOT
BRANCH   1  15
ATOM     11  C   UNL     1       2.050   8.261  18.996  0.00  0.00    +0.000 A 
ATOM     12  C   UNL     1       2.435   8.988  17.856  0.00  0.00    +0.000 A 
ATOM     13  C   UNL     1       3.251   8.427  16.872  0.00  0.00    +0.000 A 
ATOM     14  C   UNL     1       3.732   7.127  17.017  0.00  0.00    +0.000 A 
ATOM     15  C   UNL     1       3.366   6.352  18.126  0.00  0.00    +0.000 A 
ATOM     16  C   UNL     1       2.507   6.935  19.082  0.00  0.00    +0.000 A 
BRANCH  11  21
ATOM     17  C   UNL     1      -1.166  10.582  23.279  0.00  0.00    +0.000 C 
ATOM     18  C   UNL     1      -0.368   9.966  22.172  0.00  0.00    +0.000 A 
ATOM     19  C   UNL     1       0.636   9.042  22.435  0.00  0.00    +0.000 A 
ATOM     20  C   UNL     1       1.393   8.510  21.388  0.00  0.00    +0.000 A 
ATOM     21  C   UNL     1       1.167   8.854  20.036  0.00  0.00    +0.000 A 
ATOM     22  C   UNL     1       0.109   9.760  19.770  0.00  0.00    +0.000 A 
ATOM     23  C   UNL     1      -0.306  10.210  18.392  0.00  0.00    +0.000 C 
ATOM     24  C   UNL     1      -0.618  10.322  20.844  0.00  0.00    +0.000 A 
ENDBRANCH  11  21
ENDBRANCH   1  15
BRANCH   1  25
ATOM     25  C   UNL     1       2.983   4.152  19.307  0.00  0.00    +0.000 A 
ATOM     26  C   UNL     1       1.890   3.425  18.800  0.00  0.00    +0.000 A 
ATOM     27  C   UNL     1       0.956   2.827  19.652  0.00  0.00    +0.000 A 
ATOM     28  C   UNL     1       1.093   2.947  21.031  0.00  0.00    +0.000 A 
ATOM     29  C   UNL     1       2.173   3.646  21.558  0.00  0.00    +0.000 A 
ATOM     30  C   UNL     1       3.106   4.242  20.706  0.00  0.00    +0.000 A 
ENDBRANCH   1  25
TORSDOF 3
ENDMDL
MODEL 3
REMARK VINA RESULT:      -8.7      2.792      4.523
REMARK  Name = 
REMARK  6 active torsions:
REMARK  status: ('A' for Active; 'I' for Inactive)
REMARK    1  A    between atoms: C_1  and  C_2
REMARK    2  A    between atoms: C_5  and  C_6
REMARK    3  A    between atoms: C_10  and  C_11
REMARK    4  A    between atoms: C_11  and  C_12
REMARK    5  A    between atoms: N_21  and  C_22
REMARK    6  A    between atoms: C_26  and  C_27
REMARK                            x       y       z     vdW  Elec       q    Type
REMARK                         _______ _______ _______ _____ _____    ______ ____
ROOT
ATOM      1  C   UNL     1       6.037   5.737  16.750  0.00  0.00    +0.000 C 
ATOM      2  N   UNL     1       6.416   7.195  16.626  0.00  0.00    +0.000 NA
ATOM      3  C   UNL     1       7.287   7.429  17.558  0.00  0.00    +0.000 C 
ATOM      4  N   UNL     1       7.754   8.678  17.770  0.00  0.00    +0.000 N 
ATOM      5  N   UNL     1       7.699   6.371  18.273  0.00  0.00    +0.000 N 
ATOM      6  C   UNL     1       8.630   6.311  19.370  0.00  0.00    +0.000 C 
ATOM      7  C   UNL     1       7.040   5.259  17.827  0.00  0.00    +0.000 C 
ATOM      8  O   UNL     1       7.212   4.125  18.257  0.00  0.00    +0.000 OA
ATOM      9  H   UNL     1       7.503   9.325  17.030  0.00  0.00    +0.000 HD
ATOM     10  H   UNL     1       8.702   8.785  18.100  0.00  0.00    +0.000 HD
ENDROOT
BRANCH   1  15
ATOM     11  C   UNL     1       2.572   6.783  18.127  0.00  0.00    +0.000 A 
ATOM     12  C   UNL     1       1.880   5.564  18.024  0.00  0.00    +0.000 A 
ATOM     13  C   UNL     1       2.504   4.405  17.557  0.00  0.00    +0.000 A 
ATOM     14  C   UNL     1       3.836   4.444  17.150  0.00  0.00    +0.000 A 
ATOM     15  C   UNL     1       4.577   5.629  17.246  0.00  0.00    +0.000 A 
ATOM     16  C   UNL     1       3.928   6.771  17.761  0.00  0.00    +0.000 A 
BRANCH  11  21
ATOM     17  C   UNL     1      -0.154  11.650  19.851  0.00  0.00    +0.000 C 
ATOM     18  C   UNL     1       0.574  10.411  19.427  0.00  0.00    +0.000 A 
ATOM     19  C   UNL     1       1.061  10.270  18.132  0.00  0.00    +0.000 A 
ATOM     20  C   UNL     1       1.703   9.089  17.749  0.00  0.00    +0.000 A 
ATOM     21  C   UNL     1       1.910   8.013  18.641  0.00  0.00    +0.000 A 
ATOM     22  C   UNL     1       1.453   8.183  19.973  0.00  0.00    +0.000 A 
ATOM     23  C   UNL     1       1.622   7.164  21.072  0.00  0.00    +0.000 C 
ATOM     24  C   UNL     1       0.768   9.365  20.332  0.00  0.00    +0.000 A 
ENDBRANCH  11  21
ENDBRANCH   1  15
BRANCH   1  25
ATOM     25  C   UNL     1       6.187   5.005  15.402  0.00  0.00    +0.000 A 
ATOM     26  C   UNL     1       7.348   5.158  14.621  0.00  0.00    +0.000 A 
ATOM     27  C   UNL     1       7.440   4.608  13.339  0.00  0.00    +0.000 A 
ATOM     28  C   UNL     1       6.370   3.895  12.807  0.00  0.00    +0.000 A 
ATOM     29  C   UNL     1       5.217   3.715  13.564  0.00  0.00    +0.000 A 
ATOM     30  C   UNL     1       5.127   4.265  14.845  0.00  0.00    +0.000 A 
ENDBRANCH   1  25
TORSDOF 3
ENDMDL
MODEL 4
REMARK VINA RESULT:      -8.7      3.646      8.161
REMARK  Name = 
REMARK  6 active torsions:
REMARK  status: ('A' for Active; 'I' for Inactive)
REMARK    1  A    between atoms: C_1  and  C_2
REMARK    2  A    between atoms: C_5  and  C_6
REMARK    3  A    between atoms: C_10  and  C_11
REMARK    4  A    between atoms: C_11  and  C_12
REMARK    5  A    between atoms: N_21  and  C_22
REMARK    6  A    between atoms: C_26  and  C_27
REMARK                            x       y       z     vdW  Elec       q    Type
REMARK                         _______ _______ _______ _____ _____    ______ ____
ROOT
ATOM      1  C   UNL     1       0.320  11.093  19.369  0.00  0.00    +0.000 C 
ATOM      2  N   UNL     1       0.026  11.957  20.574  0.00  0.00    +0.000 NA
ATOM      3  C   UNL     1       0.948  12.868  20.607  0.00  0.00    +0.000 C 
ATOM      4  N   UNL     1       1.017  13.747  21.630  0.00  0.00    +0.000 N 
ATOM      5  N   UNL     1       1.804  12.892  19.574  0.00  0.00    +0.000 N 
ATOM      6  C   UNL     1       2.930  13.758  19.335  0.00  0.00    +0.000 C 
ATOM      7  C   UNL     1       1.481  11.880  18.715  0.00  0.00    +0.000 C 
ATOM      8  O   UNL     1       2.056  11.648  17.658  0.00  0.00    +0.000 OA
ATOM      9  H   UNL     1       0.193  13.729  22.222  0.00  0.00    +0.000 HD
ATOM     10  H   UNL     1       1.361  14.676  21.441  0.00  0.00    +0.000 HD
ENDROOT
BRANCH   1  15
ATOM     11  C   UNL     1       2.071   7.639  19.366  0.00  0.00    +0.000 A 
ATOM     12  C   UNL     1       1.787   7.209  20.673  0.00  0.00    +0.000 A 
ATOM     13  C   UNL     1       1.018   7.981  21.546  0.00  0.00    +0.000 A 
ATOM     14  C   UNL     1       0.537   9.225  21.142  0.00  0.00    +0.000 A 
ATOM     15  C   UNL     1       0.778   9.695  19.844  0.00  0.00    +0.000 A 
ATOM     16  C   UNL     1       1.523   8.871  18.973  0.00  0.00    +0.000 A 
BRANCH  11  21
ATOM     17  C   UNL     1       5.479   4.571  15.752  0.00  0.00    +0.000 C 
ATOM     18  C   UNL     1       4.579   5.355  16.656  0.00  0.00    +0.000 A 
ATOM     19  C   UNL     1       4.708   6.733  16.784  0.00  0.00    +0.000 A 
ATOM     20  C   UNL     1       3.882   7.437  17.663  0.00  0.00    +0.000 A 
ATOM     21  C   UNL     1       2.876   6.807  18.430  0.00  0.00    +0.000 A 
ATOM     22  C   UNL     1       2.717   5.408  18.258  0.00  0.00    +0.000 A 
ATOM     23  C   UNL     1       1.674   4.574  18.959  0.00  0.00    +0.000 C 
ATOM     24  C   UNL     1       3.590   4.705  17.399  0.00  0.00    +0.000 A 
ENDBRANCH  11  21
ENDBRANCH   1  15
BRANCH   1  25
ATOM     25  C   UNL     1      -0.920  10.957  18.463  0.00  0.00    +0.000 A 
ATOM     26  C   UNL     1      -2.052  11.768  18.662  0.00  0.00    +0.000 A 
ATOM     27  C   UNL     1      -3.230  11.564  17.936  0.00  0.00    +0.000 A 
ATOM     28  C   UNL     1      -3.301  10.541  16.995  0.00  0.00    +0.000 A 
ATOM     29  C   UNL     1      -2.190   9.736  16.767  0.00  0.00    +0.000 A 
ATOM     30  C   UNL     1      -1.015   9.941  17.494  0.00  0.00    +0.000 A 
ENDBRANCH   1  25
TORSDOF 3
ENDMDL
MODEL 5
REMARK VINA RESULT:      -8.4      4.449      8.634
REMARK  Name = 
REMARK  6 active torsions:
REMARK  status: ('A' for Active; 'I' for Inactive)
REMARK    1  A    between atoms: C_1  and  C_2
REMARK    2  A    between atoms: C_5  and  C_6
REMARK    3  A    between atoms: C_10  and  C_11
REMARK    4  A    between atoms: C_11  and  C_12
REMARK    5  A    between atoms: N_21  and  C_22
REMARK    6  A    between atoms: C_26  and  C_27
REMARK                            x       y       z     vdW  Elec       q    Type
REMARK                         _______ _______ _______ _____ _____    ______ ____
ROOT
ATOM      1  C   UNL     1      -1.557  11.988  19.830  0.00  0.00    +0.000 C 
ATOM      2  N   UNL     1      -2.525  12.716  20.733  0.00  0.00    +0.000 NA
ATOM      3  C   UNL     1      -2.072  13.924  20.862  0.00  0.00    +0.000 C 
ATOM      4  N   UNL     1      -2.671  14.804  21.692  0.00  0.00    +0.000 N 
ATOM      5  N   UNL     1      -1.000  14.244  20.120  0.00  0.00    +0.000 N 
ATOM      6  C   UNL     1      -0.265  15.480  20.055  0.00  0.00    +0.000 C 
ATOM      7  C   UNL     1      -0.626  13.146  19.397  0.00  0.00    +0.000 C 
ATOM      8  O   UNL     1       0.304  13.117  18.599  0.00  0.00    +0.000 OA
ATOM      9  H   UNL     1      -3.574  14.481  22.025  0.00  0.00    +0.000 HD
ATOM     10  H   UNL     1      -2.655  15.782  21.446  0.00  0.00    +0.000 HD
ENDROOT
BRANCH   1  15
ATOM     11  C   UNL     1       0.785   9.016  20.658  0.00  0.00    +0.000 A 
ATOM     12  C   UNL     1       0.751   9.051  22.063  0.00  0.00    +0.000 A 
ATOM     13  C   UNL     1      -0.032   9.979  22.753  0.00  0.00    +0.000 A 
ATOM     14  C   UNL     1      -0.780  10.923  22.052  0.00  0.00    +0.000 A 
ATOM     15  C   UNL     1      -0.794  10.924  20.651  0.00  0.00    +0.000 A 
ATOM     16  C   UNL     1      -0.025   9.946  19.984  0.00  0.00    +0.000 A 
BRANCH  11  21
ATOM     17  C   UNL     1       3.827   4.858  17.912  0.00  0.00    +0.000 C 
ATOM     18  C   UNL     1       3.076   5.942  18.623  0.00  0.00    +0.000 A 
ATOM     19  C   UNL     1       2.572   5.749  19.903  0.00  0.00    +0.000 A 
ATOM     20  C   UNL     1       1.842   6.762  20.530  0.00  0.00    +0.000 A 
ATOM     21  C   UNL     1       1.605   8.016  19.923  0.00  0.00    +0.000 A 
ATOM     22  C   UNL     1       2.164   8.223  18.636  0.00  0.00    +0.000 A 
ATOM     23  C   UNL     1       2.051   9.507  17.852  0.00  0.00    +0.000 C 
ATOM     24  C   UNL     1       2.862   7.174  17.998  0.00  0.00    +0.000 A 
ENDBRANCH  11  21
ENDBRANCH   1  15
BRANCH   1  25
ATOM     25  C   UNL     1      -2.289  11.314  18.653  0.00  0.00    +0.000 A 
ATOM     26  C   UNL     1      -1.599  10.478  17.756  0.00  0.00    +0.000 A 
ATOM     27  C   UNL     1      -2.220   9.970  16.610  0.00  0.00    +0.000 A 
ATOM     28  C   UNL     1      -3.546  10.291  16.335  0.00  0.00    +0.000 A 
ATOM     29  C   UNL     1      -4.255  11.102  17.213  0.00  0.00    +0.000 A 
ATOM     30  C   UNL     1      -3.634  11.608  18.357  0.00  0.00    +0.000 A 
ENDBRANCH   1  25
TORSDOF 3
ENDMDL
MODEL 6
REMARK VINA RESULT:      -8.4      2.657      4.370
REMARK  Name = 
REMARK  6 active torsions:
REMARK  status: ('A' for Active; 'I' for Inactive)
REMARK    1  A    between atoms: C_1  and  C_2
REMARK    2  A    between atoms: C_5  and  C_6
REMARK    3  A    between atoms: C_10  and  C_11
REMARK    4  A    between atoms: C_11  and  C_12
REMARK    5  A    between atoms: N_21  and  C_22
REMARK    6  A    between atoms: C_26  and  C_27
REMARK                            x       y       z     vdW  Elec       q    Type
REMARK                         _______ _______ _______ _____ _____    ______ ____
ROOT
ATOM      1  C   UNL     1       5.998   5.673  16.695  0.00  0.00    +0.000 C 
ATOM      2  N   UNL     1       6.202   7.166  16.577  0.00  0.00    +0.000 NA
ATOM      3  C   UNL     1       7.075   7.491  17.480  0.00  0.00    +0.000 C 
ATOM      4  N   UNL     1       7.403   8.783  17.692  0.00  0.00    +0.000 N 
ATOM      5  N   UNL     1       7.632   6.481  18.166  0.00  0.00    +0.000 N 
ATOM      6  C   UNL     1       8.604   6.519  19.228  0.00  0.00    +0.000 C 
ATOM      7  C   UNL     1       7.089   5.305  17.729  0.00  0.00    +0.000 C 
ATOM      8  O   UNL     1       7.406   4.194  18.138  0.00  0.00    +0.000 OA
ATOM      9  H   UNL     1       7.052   9.404  16.970  0.00  0.00    +0.000 HD
ATOM     10  H   UNL     1       8.344   8.996  17.989  0.00  0.00    +0.000 HD
ENDROOT
BRANCH   1  15
ATOM     11  C   UNL     1       2.608   6.231  18.483  0.00  0.00    +0.000 A 
ATOM     12  C   UNL     1       1.946   5.038  18.148  0.00  0.00    +0.000 A 
ATOM     13  C   UNL     1       2.570   4.042  17.394  0.00  0.00    +0.000 A 
ATOM     14  C   UNL     1       3.868   4.229  16.925  0.00  0.00    +0.000 A 
ATOM     15  C   UNL     1       4.580   5.393  17.243  0.00  0.00    +0.000 A 
ATOM     16  C   UNL     1       3.936   6.361  18.042  0.00  0.00    +0.000 A 
BRANCH  11  21
ATOM     17  C   UNL     1       0.164  10.238  21.956  0.00  0.00    +0.000 C 
ATOM     18  C   UNL     1       0.761   9.207  21.048  0.00  0.00    +0.000 A 
ATOM     19  C   UNL     1       0.985   7.906  21.483  0.00  0.00    +0.000 A 
ATOM     20  C   UNL     1       1.578   6.973  20.629  0.00  0.00    +0.000 A 
ATOM     21  C   UNL     1       1.949   7.284  19.302  0.00  0.00    +0.000 A 
ATOM     22  C   UNL     1       1.673   8.600  18.849  0.00  0.00    +0.000 A 
ATOM     23  C   UNL     1       1.960   9.102  17.456  0.00  0.00    +0.000 C 
ATOM     24  C   UNL     1       1.113   9.544  19.738  0.00  0.00    +0.000 A 
ENDBRANCH  11  21
ENDBRANCH   1  15
BRANCH   1  25
ATOM     25  C   UNL     1       6.181   4.975  15.333  0.00  0.00    +0.000 A 
ATOM     26  C   UNL     1       7.348   5.171  14.572  0.00  0.00    +0.000 A 
ATOM     27  C   UNL     1       7.468   4.653  13.278  0.00  0.00    +0.000 A 
ATOM     28  C   UNL     1       6.421   3.929  12.717  0.00  0.00    +0.000 A 
ATOM     29  C   UNL     1       5.263   3.707  13.454  0.00  0.00    +0.000 A 
ATOM     30  C   UNL     1       5.144   4.226  14.745  0.00  0.00    +0.000 A 
ENDBRANCH   1  25
TORSDOF 3
ENDMDL
MODEL 7
REMARK VINA RESULT:      -8.4      4.358      8.118
REMARK  Name = 
REMARK  6 active torsions:
REMARK  status: ('A' for Active; 'I' for Inactive)
REMARK    1  A    between atoms: C_1  and  C_2
REMARK    2  A    between atoms: C_5  and  C_6
REMARK    3  A    between atoms: C_10  and  C_11
REMARK    4  A    between atoms: C_11  and  C_12
REMARK    5  A    between atoms: N_21  and  C_22
REMARK    6  A    between atoms: C_26  and  C_27
REMARK                            x       y       z     vdW  Elec       q    Type
REMARK                         _______ _______ _______ _____ _____    ______ ____
ROOT
ATOM      1  C   UNL     1      -0.102  11.808  19.672  0.00  0.00    +0.000 C 
ATOM      2  N   UNL     1      -0.798  11.614  18.344  0.00  0.00    +0.000 NA
ATOM      3  C   UNL     1      -2.032  11.970  18.520  0.00  0.00    +0.000 C 
ATOM      4  N   UNL     1      -2.943  11.823  17.534  0.00  0.00    +0.000 N 
ATOM      5  N   UNL     1      -2.340  12.497  19.715  0.00  0.00    +0.000 N 
ATOM      6  C   UNL     1      -3.608  12.963  20.214  0.00  0.00    +0.000 C 
ATOM      7  C   UNL     1      -1.215  12.503  20.492  0.00  0.00    +0.000 C 
ATOM      8  O   UNL     1      -1.156  12.946  21.633  0.00  0.00    +0.000 OA
ATOM      9  H   UNL     1      -2.521  11.601  16.637  0.00  0.00    +0.000 HD
ATOM     10  H   UNL     1      -3.697  12.491  17.475  0.00  0.00    +0.000 HD
ENDROOT
BRANCH   1  15
ATOM     11  C   UNL     1       1.483   8.290  20.003  0.00  0.00    +0.000 A 
ATOM     12  C   UNL     1       1.100   7.962  21.315  0.00  0.00    +0.000 A 
ATOM     13  C   UNL     1       0.317   8.824  22.085  0.00  0.00    +0.000 A 
ATOM     14  C   UNL     1      -0.080  10.057  21.572  0.00  0.00    +0.000 A 
ATOM     15  C   UNL     1       0.261  10.427  20.264  0.00  0.00    +0.000 A 
ATOM     16  C   UNL     1       1.018   9.515  19.498  0.00  0.00    +0.000 A 
BRANCH  11  21
ATOM     17  C   UNL     1       4.899   4.899  16.699  0.00  0.00    +0.000 C 
ATOM     18  C   UNL     1       3.994   5.754  17.532  0.00  0.00    +0.000 A 
ATOM     19  C   UNL     1       3.798   7.098  17.236  0.00  0.00    +0.000 A 
ATOM     20  C   UNL     1       2.980   7.884  18.051  0.00  0.00    +0.000 A 
ATOM     21  C   UNL     1       2.303   7.363  19.176  0.00  0.00    +0.000 A 
ATOM     22  C   UNL     1       2.469   5.980  19.445  0.00  0.00    +0.000 A 
ATOM     23  C   UNL     1       1.796   5.241  20.574  0.00  0.00    +0.000 C 
ATOM     24  C   UNL     1       3.334   5.210  18.637  0.00  0.00    +0.000 A 
ENDBRANCH  11  21
ENDBRANCH   1  15
BRANCH   1  25
ATOM     25  C   UNL     1       1.172  12.662  19.516  0.00  0.00    +0.000 A 
ATOM     26  C   UNL     1       1.931  13.037  20.640  0.00  0.00    +0.000 A 
ATOM     27  C   UNL     1       3.009  13.921  20.527  0.00  0.00    +0.000 A 
ATOM     28  C   UNL     1       3.350  14.450  19.286  0.00  0.00    +0.000 A 
ATOM     29  C   UNL     1       2.626  14.083  18.157  0.00  0.00    +0.000 A 
ATOM     30  C   UNL     1       1.549  13.201  18.272  0.00  0.00    +0.000 A 
ENDBRANCH   1  25
TORSDOF 3
ENDMDL
MODEL 8
REMARK VINA RESULT:      -8.3      4.105      7.910
REMARK  Name = 
REMARK  6 active torsions:
REMARK  status: ('A' for Active; 'I' for Inactive)
REMARK    1  A    between atoms: C_1  and  C_2
REMARK    2  A    between atoms: C_5  and  C_6
REMARK    3  A    between atoms: C_10  and  C_11
REMARK    4  A    between atoms: C_11  and  C_12
REMARK    5  A    between atoms: N_21  and  C_22
REMARK    6  A    between atoms: C_26  and  C_27
REMARK                            x       y       z     vdW  Elec       q    Type
REMARK                         _______ _______ _______ _____ _____    ______ ____
ROOT
ATOM      1  C   UNL     1      -0.608  11.483  18.977  0.00  0.00    +0.000 C 
ATOM      2  N   UNL     1      -0.895  10.748  17.689  0.00  0.00    +0.000 NA
ATOM      3  C   UNL     1      -2.185  10.723  17.559  0.00  0.00    +0.000 C 
ATOM      4  N   UNL     1      -2.766  10.049  16.543  0.00  0.00    +0.000 N 
ATOM      5  N   UNL     1      -2.893  11.410  18.469  0.00  0.00    +0.000 N 
ATOM      6  C   UNL     1      -4.319  11.559  18.602  0.00  0.00    +0.000 C 
ATOM      7  C   UNL     1      -2.025  11.972  19.363  0.00  0.00    +0.000 C 
ATOM      8  O   UNL     1      -2.354  12.685  20.304  0.00  0.00    +0.000 OA
ATOM      9  H   UNL     1      -2.102   9.753  15.835  0.00  0.00    +0.000 HD
ATOM     10  H   UNL     1      -3.632  10.403  16.166  0.00  0.00    +0.000 HD
ENDROOT
BRANCH   1  15
ATOM     11  C   UNL     1       1.203   8.398  20.460  0.00  0.00    +0.000 A 
ATOM     12  C   UNL     1       1.138   8.701  21.831  0.00  0.00    +0.000 A 
ATOM     13  C   UNL     1       0.497   9.851  22.297  0.00  0.00    +0.000 A 
ATOM     14  C   UNL     1      -0.070  10.749  21.396  0.00  0.00    +0.000 A 
ATOM     15  C   UNL     1      -0.048  10.488  20.019  0.00  0.00    +0.000 A 
ATOM     16  C   UNL     1       0.571   9.297  19.585  0.00  0.00    +0.000 A 
BRANCH  11  21
ATOM     17  C   UNL     1       3.588   3.382  18.660  0.00  0.00    +0.000 C 
ATOM     18  C   UNL     1       3.008   4.681  19.130  0.00  0.00    +0.000 A 
ATOM     19  C   UNL     1       2.339   4.773  20.345  0.00  0.00    +0.000 A 
ATOM     20  C   UNL     1       1.773   5.987  20.743  0.00  0.00    +0.000 A 
ATOM     21  C   UNL     1       1.871   7.163  19.966  0.00  0.00    +0.000 A 
ATOM     22  C   UNL     1       2.597   7.073  18.751  0.00  0.00    +0.000 A 
ATOM     23  C   UNL     1       2.842   8.229  17.814  0.00  0.00    +0.000 C 
ATOM     24  C   UNL     1       3.125   5.829  18.342  0.00  0.00    +0.000 A 
ENDBRANCH  11  21
ENDBRANCH   1  15
BRANCH   1  25
ATOM     25  C   UNL     1       0.398  12.629  18.754  0.00  0.00    +0.000 A 
ATOM     26  C   UNL     1       1.761  12.360  18.525  0.00  0.00    +0.000 A 
ATOM     27  C   UNL     1       2.704  13.390  18.456  0.00  0.00    +0.000 A 
ATOM     28  C   UNL     1       2.305  14.713  18.616  0.00  0.00    +0.000 A 
ATOM     29  C   UNL     1       0.963  15.008  18.828  0.00  0.00    +0.000 A 
ATOM     30  C   UNL     1       0.022  13.978  18.897  0.00  0.00    +0.000 A 
ENDBRANCH   1  25
TORSDOF 3
ENDMDL
MODEL 9
REMARK VINA RESULT:      -8.3      4.029      8.280
REMARK  Name = 
REMARK  6 active torsions:
REMARK  status: ('A' for Active; 'I' for Inactive)
REMARK    1  A    between atoms: C_1  and  C_2
REMARK    2  A    between atoms: C_5  and  C_6
REMARK    3  A    between atoms: C_10  and  C_11
REMARK    4  A    between atoms: C_11  and  C_12
REMARK    5  A    between atoms: N_21  and  C_22
REMARK    6  A    between atoms: C_26  and  C_27
REMARK                            x       y       z     vdW  Elec       q    Type
REMARK                         _______ _______ _______ _____ _____    ______ ____
ROOT
ATOM      1  C   UNL     1      -0.298  11.786  19.764  0.00  0.00    +0.000 C 
ATOM      2  N   UNL     1      -0.803  12.864  20.695  0.00  0.00    +0.000 NA
ATOM      3  C   UNL     1       0.063  13.828  20.645  0.00  0.00    +0.000 C 
ATOM      4  N   UNL     1      -0.058  14.909  21.446  0.00  0.00    +0.000 N 
ATOM      5  N   UNL     1       1.058  13.695  19.755  0.00  0.00    +0.000 N 
ATOM      6  C   UNL     1       2.166  14.573  19.478  0.00  0.00    +0.000 C 
ATOM      7  C   UNL     1       0.909  12.500  19.109  0.00  0.00    +0.000 C 
ATOM      8  O   UNL     1       1.642  12.091  18.216  0.00  0.00    +0.000 OA
ATOM      9  H   UNL     1      -0.957  14.956  21.913  0.00  0.00    +0.000 HD
ATOM     10  H   UNL     1       0.268  15.799  21.101  0.00  0.00    +0.000 HD
ENDROOT
BRANCH   1  15
ATOM     11  C   UNL     1       1.279   8.359  20.641  0.00  0.00    +0.000 A 
ATOM     12  C   UNL     1       1.136   8.365  22.039  0.00  0.00    +0.000 A 
ATOM     13  C   UNL     1       0.514   9.423  22.706  0.00  0.00    +0.000 A 
ATOM     14  C   UNL     1       0.046  10.523  21.992  0.00  0.00    +0.000 A 
ATOM     15  C   UNL     1       0.150  10.562  20.595  0.00  0.00    +0.000 A 
ATOM     16  C   UNL     1       0.745   9.458  19.948  0.00  0.00    +0.000 A 
BRANCH  11  21
ATOM     17  C   UNL     1       3.611   3.706  17.997  0.00  0.00    +0.000 C 
ATOM     18  C   UNL     1       3.045   4.912  18.680  0.00  0.00    +0.000 A 
ATOM     19  C   UNL     1       2.550   4.840  19.977  0.00  0.00    +0.000 A 
ATOM     20  C   UNL     1       1.992   5.971  20.579  0.00  0.00    +0.000 A 
ATOM     21  C   UNL     1       1.926   7.224  19.929  0.00  0.00    +0.000 A 
ATOM     22  C   UNL     1       2.476   7.302  18.625  0.00  0.00    +0.000 A 
ATOM     23  C   UNL     1       2.533   8.560  17.795  0.00  0.00    +0.000 C 
ATOM     24  C   UNL     1       2.997   6.140  18.014  0.00  0.00    +0.000 A 
ENDBRANCH  11  21
ENDBRANCH   1  15
BRANCH   1  25
ATOM     25  C   UNL     1      -1.385  11.365  18.755  0.00  0.00    +0.000 A 
ATOM     26  C   UNL     1      -2.693  11.875  18.849  0.00  0.00    +0.000 A 
ATOM     27  C   UNL     1      -3.719  11.400  18.026  0.00  0.00    +0.000 A 
ATOM     28  C   UNL     1      -3.459  10.401  17.092  0.00  0.00    +0.000 A 
ATOM     29  C   UNL     1      -2.172   9.891  16.969  0.00  0.00    +0.000 A 
ATOM     30  C   UNL     1      -1.148  10.367  17.792  0.00  0.00    +0.000 A 
ENDBRANCH   1  25
TORSDOF 3
ENDMDL
