MODEL 1
REMARK VINA RESULT:      -7.8      0.000      0.000
REMARK  Name = 
REMARK  7 active torsions:
REMARK  status: ('A' for Active; 'I' for Inactive)
REMARK    1  A    between atoms: C_1  and  C_2
REMARK    2  A    between atoms: C_2  and  N_3
REMARK    3  A    between atoms: C_2  and  C_20
REMARK    4  A    between atoms: C_4  and  C_6
REMARK    5  A    between atoms: C_6  and  N_7
REMARK    6  A    between atoms: N_10  and  C_11
REMARK    7  A    between atoms: C_14  and  C_15
REMARK                            x       y       z     vdW  Elec       q    Type
REMARK                         _______ _______ _______ _____ _____    ______ ____
ROOT
ATOM      1  N   UNL     1       2.734   4.842  20.742  0.00  0.00    +0.000 N 
ATOM      2  C   UNL     1       2.177   5.805  19.935  0.00  0.00    +0.000 C 
ATOM      3  O   UNL     1       1.790   5.528  18.806  0.00  0.00    +0.000 OA
ATOM      4  N   UNL     1       2.143   7.039  20.542  0.00  0.00    +0.000 N 
ATOM      5  H   UNL     1       2.553   4.914  21.733  0.00  0.00    +0.000 HD
ATOM      6  H   UNL     1       2.682   7.129  21.391  0.00  0.00    +0.000 HD
ENDROOT
BRANCH   4   7
ATOM      7  C   UNL     1       1.642   8.231  19.972  0.00  0.00    +0.000 A 
ATOM      8  C   UNL     1       1.927   8.624  18.662  0.00  0.00    +0.000 A 
ATOM      9  C   UNL     1       1.430   9.823  18.145  0.00  0.00    +0.000 A 
ATOM     10  C   UNL     1       0.624  10.646  18.932  0.00  0.00    +0.000 A 
ATOM     11  C   UNL     1       0.325  10.262  20.244  0.00  0.00    +0.000 A 
ATOM     12  C   UNL     1       0.825   9.055  20.756  0.00  0.00    +0.000 A 
BRANCH  10  13
ATOM     13  C   UNL     1       0.104  11.917  18.355  0.00  0.00    +0.000 C 
ATOM     14  N   UNL     1      -1.104  12.046  17.910  0.00  0.00    +0.000 NA
ATOM     15  N   UNL     1       0.906  13.016  18.268  0.00  0.00    +0.000 N 
ATOM     16  H   UNL     1      -1.618  11.163  17.958  0.00  0.00    +0.000 HD
ATOM     17  H   UNL     1       1.550  13.166  19.036  0.00  0.00    +0.000 HD
ATOM     18  H   UNL     1       0.366  13.844  18.042  0.00  0.00    +0.000 HD
ENDBRANCH  10  13
ENDBRANCH   4   7
BRANCH   1  19
ATOM     19  C   UNL     1       2.958   3.499  20.216  0.00  0.00    +0.000 C 
BRANCH  19  21
ATOM     20  N   UNL     1       4.388   4.106  18.323  0.00  0.00    +0.000 N 
ATOM     21  C   UNL     1       4.292   3.362  19.475  0.00  0.00    +0.000 C 
ATOM     22  O   UNL     1       5.205   2.668  19.915  0.00  0.00    +0.000 OA
ATOM     23  H   UNL     1       3.600   4.705  18.079  0.00  0.00    +0.000 HD
BRANCH  20  25
ATOM     24  C   UNL     1       5.197   3.877  16.022  0.00  0.00    +0.000 C 
ATOM     25  C   UNL     1       5.575   4.120  17.484  0.00  0.00    +0.000 C 
BRANCH  25  26
ATOM     26  C   UNL     1       6.343   5.417  17.666  0.00  0.00    +0.000 A 
ATOM     27  C   UNL     1       7.408   5.477  18.582  0.00  0.00    +0.000 A 
ATOM     28  C   UNL     1       8.117   6.665  18.778  0.00  0.00    +0.000 A 
ATOM     29  C   UNL     1       7.765   7.805  18.061  0.00  0.00    +0.000 A 
ATOM     30 BR   UNL     1       8.710   9.420  18.339  0.00  0.00    +0.000 Br
ATOM     31  C   UNL     1       6.718   7.766  17.144  0.00  0.00    +0.000 A 
ATOM     32  C   UNL     1       6.013   6.577  16.947  0.00  0.00    +0.000 A 
ENDBRANCH  25  26
ENDBRANCH  20  25
ENDBRANCH  19  21
ENDBRANCH   1  19
TORSDOF 6
ENDMDL
MODEL 2
REMARK VINA RESULT:      -7.8      3.703      8.384
REMARK  Name = 
REMARK  7 active torsions:
REMARK  status: ('A' for Active; 'I' for Inactive)
REMARK    1  A    between atoms: C_1  and  C_2
REMARK    2  A    between atoms: C_2  and  N_3
REMARK    3  A    between atoms: C_2  and  C_20
REMARK    4  A    between atoms: C_4  and  C_6
REMARK    5  A    between atoms: C_6  and  N_7
REMARK    6  A    between atoms: N_10  and  C_11
REMARK    7  A    between atoms: C_14  and  C_15
REMARK                            x       y       z     vdW  Elec       q    Type
REMARK                         _______ _______ _______ _____ _____    ______ ____
ROOT
ATOM      1  N   UNL     1       2.619   6.538  20.410  0.00  0.00    +0.000 N 
ATOM      2  C   UNL     1       2.923   6.333  19.086  0.00  0.00    +0.000 C 
ATOM      3  O   UNL     1       2.098   6.566  18.211  0.00  0.00    +0.000 OA
ATOM      4  N   UNL     1       4.197   5.841  18.914  0.00  0.00    +0.000 N 
ATOM      5  H   UNL     1       3.369   6.854  21.009  0.00  0.00    +0.000 HD
ATOM      6  H   UNL     1       4.664   5.521  19.750  0.00  0.00    +0.000 HD
ENDROOT
BRANCH   4   7
ATOM      7  C   UNL     1       4.802   5.517  17.678  0.00  0.00    +0.000 A 
ATOM      8  C   UNL     1       5.310   6.483  16.806  0.00  0.00    +0.000 A 
ATOM      9  C   UNL     1       5.880   6.121  15.583  0.00  0.00    +0.000 A 
ATOM     10  C   UNL     1       5.961   4.777  15.218  0.00  0.00    +0.000 A 
ATOM     11  C   UNL     1       5.463   3.798  16.084  0.00  0.00    +0.000 A 
ATOM     12  C   UNL     1       4.894   4.168  17.312  0.00  0.00    +0.000 A 
BRANCH  10  13
ATOM     13  C   UNL     1       6.576   4.418  13.909  0.00  0.00    +0.000 C 
ATOM     14  N   UNL     1       6.254   3.354  13.247  0.00  0.00    +0.000 NA
ATOM     15  N   UNL     1       7.529   5.217  13.351  0.00  0.00    +0.000 N 
ATOM     16  H   UNL     1       5.577   2.783  13.761  0.00  0.00    +0.000 HD
ATOM     17  H   UNL     1       7.407   6.216  13.468  0.00  0.00    +0.000 HD
ATOM     18  H   UNL     1       7.708   4.953  12.387  0.00  0.00    +0.000 HD
ENDBRANCH  10  13
ENDBRANCH   4   7
BRANCH   1  19
ATOM     19  C   UNL     1       1.269   6.947  20.786  0.00  0.00    +0.000 C 
BRANCH  19  21
ATOM     20  N   UNL     1       0.941   9.050  19.575  0.00  0.00    +0.000 N 
ATOM     21  C   UNL     1       1.090   8.468  20.812  0.00  0.00    +0.000 C 
ATOM     22  O   UNL     1       1.044   9.094  21.868  0.00  0.00    +0.000 OA
ATOM     23  H   UNL     1       0.923   8.435  18.762  0.00  0.00    +0.000 HD
BRANCH  20  25
ATOM     24  C   UNL     1       1.823  11.043  18.457  0.00  0.00    +0.000 C 
ATOM     25  C   UNL     1       0.749  10.478  19.388  0.00  0.00    +0.000 C 
BRANCH  25  26
ATOM     26  C   UNL     1      -0.653  10.768  18.881  0.00  0.00    +0.000 A 
ATOM     27  C   UNL     1      -1.447  11.728  19.532  0.00  0.00    +0.000 A 
ATOM     28  C   UNL     1      -2.746  11.998  19.094  0.00  0.00    +0.000 A 
ATOM     29  C   UNL     1      -3.264  11.306  18.002  0.00  0.00    +0.000 A 
ATOM     30 BR   UNL     1      -5.029  11.655  17.420  0.00  0.00    +0.000 Br
ATOM     31  C   UNL     1      -2.492  10.356  17.339  0.00  0.00    +0.000 A 
ATOM     32  C   UNL     1      -1.192  10.090  17.776  0.00  0.00    +0.000 A 
ENDBRANCH  25  26
ENDBRANCH  20  25
ENDBRANCH  19  21
ENDBRANCH   1  19
TORSDOF 6
ENDMDL
MODEL 3
REMARK VINA RESULT:      -7.7      0.540      1.248
REMARK  Name = 
REMARK  7 active torsions:
REMARK  status: ('A' for Active; 'I' for Inactive)
REMARK    1  A    between atoms: C_1  and  C_2
REMARK    2  A    between atoms: C_2  and  N_3
REMARK    3  A    between atoms: C_2  and  C_20
REMARK    4  A    between atoms: C_4  and  C_6
REMARK    5  A    between atoms: C_6  and  N_7
REMARK    6  A    between atoms: N_10  and  C_11
REMARK    7  A    between atoms: C_14  and  C_15
REMARK                            x       y       z     vdW  Elec       q    Type
REMARK                         _______ _______ _______ _____ _____    ______ ____
ROOT
ATOM      1  N   UNL     1       2.636   4.621  21.162  0.00  0.00    +0.000 N 
ATOM      2  C   UNL     1       1.993   5.541  20.368  0.00  0.00    +0.000 C 
ATOM      3  O   UNL     1       1.480   5.202  19.309  0.00  0.00    +0.000 OA
ATOM      4  N   UNL     1       2.033   6.809  20.902  0.00  0.00    +0.000 N 
ATOM      5  H   UNL     1       2.568   4.752  22.161  0.00  0.00    +0.000 HD
ATOM      6  H   UNL     1       2.666   6.942  21.677  0.00  0.00    +0.000 HD
ENDROOT
BRANCH   4   7
ATOM      7  C   UNL     1       1.474   7.971  20.323  0.00  0.00    +0.000 A 
ATOM      8  C   UNL     1       1.828   8.431  19.052  0.00  0.00    +0.000 A 
ATOM      9  C   UNL     1       1.268   9.598  18.527  0.00  0.00    +0.000 A 
ATOM     10  C   UNL     1       0.331  10.320  19.266  0.00  0.00    +0.000 A 
ATOM     11  C   UNL     1      -0.038   9.867  20.537  0.00  0.00    +0.000 A 
ATOM     12  C   UNL     1       0.526   8.693  21.058  0.00  0.00    +0.000 A 
BRANCH  10  13
ATOM     13  C   UNL     1      -0.253  11.560  18.680  0.00  0.00    +0.000 C 
ATOM     14  N   UNL     1       0.470  12.529  18.219  0.00  0.00    +0.000 NA
ATOM     15  N   UNL     1      -1.604  11.722  18.614  0.00  0.00    +0.000 N 
ATOM     16  H   UNL     1       1.468  12.352  18.359  0.00  0.00    +0.000 HD
ATOM     17  H   UNL     1      -2.149  10.894  18.405  0.00  0.00    +0.000 HD
ATOM     18  H   UNL     1      -1.848  12.511  18.023  0.00  0.00    +0.000 HD
ENDBRANCH  10  13
ENDBRANCH   4   7
BRANCH   1  19
ATOM     19  C   UNL     1       2.793   3.248  20.694  0.00  0.00    +0.000 C 
BRANCH  19  21
ATOM     20  N   UNL     1       4.105   3.906  18.733  0.00  0.00    +0.000 N 
ATOM     21  C   UNL     1       4.031   3.055  19.811  0.00  0.00    +0.000 C 
ATOM     22  O   UNL     1       4.897   2.228  20.087  0.00  0.00    +0.000 OA
ATOM     23  H   UNL     1       3.371   4.605  18.630  0.00  0.00    +0.000 HD
BRANCH  20  25
ATOM     24  C   UNL     1       4.683   3.646  16.367  0.00  0.00    +0.000 C 
ATOM     25  C   UNL     1       5.205   3.888  17.784  0.00  0.00    +0.000 C 
BRANCH  25  26
ATOM     26  C   UNL     1       6.016   5.169  17.881  0.00  0.00    +0.000 A 
ATOM     27  C   UNL     1       5.651   6.288  17.112  0.00  0.00    +0.000 A 
ATOM     28  C   UNL     1       6.393   7.470  17.172  0.00  0.00    +0.000 A 
ATOM     29  C   UNL     1       7.511   7.542  17.999  0.00  0.00    +0.000 A 
ATOM     30 BR   UNL     1       8.529   9.134  18.067  0.00  0.00    +0.000 Br
ATOM     31  C   UNL     1       7.886   6.447  18.774  0.00  0.00    +0.000 A 
ATOM     32  C   UNL     1       7.141   5.267  18.715  0.00  0.00    +0.000 A 
ENDBRANCH  25  26
ENDBRANCH  20  25
ENDBRANCH  19  21
ENDBRANCH   1  19
TORSDOF 6
ENDMDL
MODEL 4
REMARK VINA RESULT:      -7.6      0.455      1.540
REMARK  Name = 
REMARK  7 active torsions:
REMARK  status: ('A' for Active; 'I' for Inactive)
REMARK    1  A    between atoms: C_1  and  C_2
REMARK    2  A    between atoms: C_2  and  N_3
REMARK    3  A    between atoms: C_2  and  C_20
REMARK    4  A    between atoms: C_4  and  C_6
REMARK    5  A    between atoms: C_6  and  N_7
REMARK    6  A    between atoms: N_10  and  C_11
REMARK    7  A    between atoms: C_14  and  C_15
REMARK                            x       y       z     vdW  Elec       q    Type
REMARK                         _______ _______ _______ _____ _____    ______ ____
ROOT
ATOM      1  N   UNL     1       2.611   4.631  20.176  0.00  0.00    +0.000 N 
ATOM      2  C   UNL     1       2.239   5.769  19.501  0.00  0.00    +0.000 C 
ATOM      3  O   UNL     1       2.126   5.764  18.281  0.00  0.00    +0.000 OA
ATOM      4  N   UNL     1       2.050   6.838  20.346  0.00  0.00    +0.000 N 
ATOM      5  H   UNL     1       2.206   4.488  21.090  0.00  0.00    +0.000 HD
ATOM      6  H   UNL     1       2.379   6.717  21.292  0.00  0.00    +0.000 HD
ENDROOT
BRANCH   4   7
ATOM      7  C   UNL     1       1.675   8.145  19.960  0.00  0.00    +0.000 A 
ATOM      8  C   UNL     1       1.038   9.039  20.825  0.00  0.00    +0.000 A 
ATOM      9  C   UNL     1       0.665  10.315  20.396  0.00  0.00    +0.000 A 
ATOM     10  C   UNL     1       0.935  10.722  19.089  0.00  0.00    +0.000 A 
ATOM     11  C   UNL     1       1.579   9.841  18.214  0.00  0.00    +0.000 A 
ATOM     12  C   UNL     1       1.954   8.562  18.652  0.00  0.00    +0.000 A 
BRANCH  10  13
ATOM     13  C   UNL     1       0.529  12.089  18.659  0.00  0.00    +0.000 C 
ATOM     14  N   UNL     1       1.233  13.145  18.911  0.00  0.00    +0.000 NA
ATOM     15  N   UNL     1      -0.632  12.281  17.971  0.00  0.00    +0.000 N 
ATOM     16  H   UNL     1       2.055  12.922  19.477  0.00  0.00    +0.000 HD
ATOM     17  H   UNL     1      -0.882  11.566  17.299  0.00  0.00    +0.000 HD
ATOM     18  H   UNL     1      -0.676  13.217  17.582  0.00  0.00    +0.000 HD
ENDBRANCH  10  13
ENDBRANCH   4   7
BRANCH   1  19
ATOM     19  C   UNL     1       2.969   3.431  19.426  0.00  0.00    +0.000 C 
BRANCH  19  21
ATOM     20  N   UNL     1       4.643   3.954  17.717  0.00  0.00    +0.000 N 
ATOM     21  C   UNL     1       4.431   3.425  18.969  0.00  0.00    +0.000 C 
ATOM     22  O   UNL     1       5.332   3.014  19.696  0.00  0.00    +0.000 OA
ATOM     23  H   UNL     1       3.838   4.333  17.221  0.00  0.00    +0.000 HD
BRANCH  20  25
ATOM     24  C   UNL     1       5.864   3.839  15.596  0.00  0.00    +0.000 C 
ATOM     25  C   UNL     1       5.959   4.048  17.109  0.00  0.00    +0.000 C 
BRANCH  25  26
ATOM     26  C   UNL     1       6.619   5.369  17.460  0.00  0.00    +0.000 A 
ATOM     27  C   UNL     1       6.282   6.532  16.745  0.00  0.00    +0.000 A 
ATOM     28  C   UNL     1       6.889   7.755  17.040  0.00  0.00    +0.000 A 
ATOM     29  C   UNL     1       7.843   7.825  18.052  0.00  0.00    +0.000 A 
ATOM     30 BR   UNL     1       8.682   9.476  18.440  0.00  0.00    +0.000 Br
ATOM     31  C   UNL     1       8.187   6.688  18.777  0.00  0.00    +0.000 A 
ATOM     32  C   UNL     1       7.576   5.466  18.483  0.00  0.00    +0.000 A 
ENDBRANCH  25  26
ENDBRANCH  20  25
ENDBRANCH  19  21
ENDBRANCH   1  19
TORSDOF 6
ENDMDL
MODEL 5
REMARK VINA RESULT:      -7.6      4.014      8.878
REMARK  Name = 
REMARK  7 active torsions:
REMARK  status: ('A' for Active; 'I' for Inactive)
REMARK    1  A    between atoms: C_1  and  C_2
REMARK    2  A    between atoms: C_2  and  N_3
REMARK    3  A    between atoms: C_2  and  C_20
REMARK    4  A    between atoms: C_4  and  C_6
REMARK    5  A    between atoms: C_6  and  N_7
REMARK    6  A    between atoms: N_10  and  C_11
REMARK    7  A    between atoms: C_14  and  C_15
REMARK                            x       y       z     vdW  Elec       q    Type
REMARK                         _______ _______ _______ _____ _____    ______ ____
ROOT
ATOM      1  N   UNL     1       2.248   6.774  20.674  0.00  0.00    +0.000 N 
ATOM      2  C   UNL     1       2.701   6.669  19.381  0.00  0.00    +0.000 C 
ATOM      3  O   UNL     1       2.084   7.188  18.458  0.00  0.00    +0.000 OA
ATOM      4  N   UNL     1       3.857   5.928  19.292  0.00  0.00    +0.000 N 
ATOM      5  H   UNL     1       2.946   6.837  21.401  0.00  0.00    +0.000 HD
ATOM      6  H   UNL     1       4.115   5.412  20.120  0.00  0.00    +0.000 HD
ENDROOT
BRANCH   4   7
ATOM      7  C   UNL     1       4.563   5.630  18.104  0.00  0.00    +0.000 A 
ATOM      8  C   UNL     1       5.319   6.581  17.412  0.00  0.00    +0.000 A 
ATOM      9  C   UNL     1       5.983   6.250  16.229  0.00  0.00    +0.000 A 
ATOM     10  C   UNL     1       5.910   4.952  15.723  0.00  0.00    +0.000 A 
ATOM     11  C   UNL     1       5.163   3.989  16.408  0.00  0.00    +0.000 A 
ATOM     12  C   UNL     1       4.500   4.326  17.598  0.00  0.00    +0.000 A 
BRANCH  10  13
ATOM     13  C   UNL     1       6.630   4.626  14.460  0.00  0.00    +0.000 C 
ATOM     14  N   UNL     1       7.613   5.335  14.007  0.00  0.00    +0.000 NA
ATOM     15  N   UNL     1       6.266   3.543  13.716  0.00  0.00    +0.000 N 
ATOM     16  H   UNL     1       7.784   6.157  14.591  0.00  0.00    +0.000 HD
ATOM     17  H   UNL     1       5.978   2.719  14.229  0.00  0.00    +0.000 HD
ATOM     18  H   UNL     1       6.960   3.340  13.004  0.00  0.00    +0.000 HD
ENDBRANCH  10  13
ENDBRANCH   4   7
BRANCH   1  19
ATOM     19  C   UNL     1       0.969   7.426  20.941  0.00  0.00    +0.000 C 
BRANCH  19  21
ATOM     20  N   UNL     1       0.595   9.814  20.549  0.00  0.00    +0.000 N 
ATOM     21  C   UNL     1       1.125   8.878  21.406  0.00  0.00    +0.000 C 
ATOM     22  O   UNL     1       1.647   9.159  22.482  0.00  0.00    +0.000 OA
ATOM     23  H   UNL     1       0.119   9.477  19.713  0.00  0.00    +0.000 HD
BRANCH  20  25
ATOM     24  C   UNL     1       1.082  12.005  19.567  0.00  0.00    +0.000 C 
ATOM     25  C   UNL     1       0.632  11.243  20.814  0.00  0.00    +0.000 C 
BRANCH  25  26
ATOM     26  C   UNL     1      -0.714  11.728  21.323  0.00  0.00    +0.000 A 
ATOM     27  C   UNL     1      -1.645  12.278  20.425  0.00  0.00    +0.000 A 
ATOM     28  C   UNL     1      -2.882  12.747  20.874  0.00  0.00    +0.000 A 
ATOM     29  C   UNL     1      -3.198  12.672  22.228  0.00  0.00    +0.000 A 
ATOM     30 BR   UNL     1      -4.863  13.325  22.842  0.00  0.00    +0.000 Br
ATOM     31  C   UNL     1      -2.293  12.125  23.134  0.00  0.00    +0.000 A 
ATOM     32  C   UNL     1      -1.058  11.653  22.682  0.00  0.00    +0.000 A 
ENDBRANCH  25  26
ENDBRANCH  20  25
ENDBRANCH  19  21
ENDBRANCH   1  19
TORSDOF 6
ENDMDL
MODEL 6
REMARK VINA RESULT:      -7.6      3.927      8.711
REMARK  Name = 
REMARK  7 active torsions:
REMARK  status: ('A' for Active; 'I' for Inactive)
REMARK    1  A    between atoms: C_1  and  C_2
REMARK    2  A    between atoms: C_2  and  N_3
REMARK    3  A    between atoms: C_2  and  C_20
REMARK    4  A    between atoms: C_4  and  C_6
REMARK    5  A    between atoms: C_6  and  N_7
REMARK    6  A    between atoms: N_10  and  C_11
REMARK    7  A    between atoms: C_14  and  C_15
REMARK                            x       y       z     vdW  Elec       q    Type
REMARK                         _______ _______ _______ _____ _____    ______ ____
ROOT
ATOM      1  N   UNL     1       2.166   6.565  20.799  0.00  0.00    +0.000 N 
ATOM      2  C   UNL     1       2.621   6.509  19.503  0.00  0.00    +0.000 C 
ATOM      3  O   UNL     1       2.040   7.113  18.610  0.00  0.00    +0.000 OA
ATOM      4  N   UNL     1       3.734   5.710  19.376  0.00  0.00    +0.000 N 
ATOM      5  H   UNL     1       2.862   6.548  21.531  0.00  0.00    +0.000 HD
ATOM      6  H   UNL     1       3.958   5.134  20.174  0.00  0.00    +0.000 HD
ENDROOT
BRANCH   4   7
ATOM      7  C   UNL     1       4.430   5.441  18.175  0.00  0.00    +0.000 A 
ATOM      8  C   UNL     1       4.212   4.290  17.414  0.00  0.00    +0.000 A 
ATOM      9  C   UNL     1       4.938   4.052  16.245  0.00  0.00    +0.000 A 
ATOM     10  C   UNL     1       5.890   4.974  15.811  0.00  0.00    +0.000 A 
ATOM     11  C   UNL     1       6.114   6.134  16.559  0.00  0.00    +0.000 A 
ATOM     12  C   UNL     1       5.379   6.369  17.731  0.00  0.00    +0.000 A 
BRANCH  10  13
ATOM     13  C   UNL     1       6.649   4.696  14.558  0.00  0.00    +0.000 C 
ATOM     14  N   UNL     1       7.632   5.434  14.153  0.00  0.00    +0.000 NA
ATOM     15  N   UNL     1       6.320   3.633  13.773  0.00  0.00    +0.000 N 
ATOM     16  H   UNL     1       7.775   6.239  14.767  0.00  0.00    +0.000 HD
ATOM     17  H   UNL     1       6.031   2.789  14.253  0.00  0.00    +0.000 HD
ATOM     18  H   UNL     1       7.036   3.461  13.073  0.00  0.00    +0.000 HD
ENDBRANCH  10  13
ENDBRANCH   4   7
BRANCH   1  19
ATOM     19  C   UNL     1       0.925   7.272  21.099  0.00  0.00    +0.000 C 
BRANCH  19  21
ATOM     20  N   UNL     1       0.583   9.617  20.479  0.00  0.00    +0.000 N 
ATOM     21  C   UNL     1       1.141   8.760  21.398  0.00  0.00    +0.000 C 
ATOM     22  O   UNL     1       1.733   9.135  22.407  0.00  0.00    +0.000 OA
ATOM     23  H   UNL     1       0.050   9.209  19.712  0.00  0.00    +0.000 HD
BRANCH  20  25
ATOM     24  C   UNL     1       1.070  11.678  19.248  0.00  0.00    +0.000 C 
ATOM     25  C   UNL     1       0.669  11.063  20.590  0.00  0.00    +0.000 C 
BRANCH  25  26
ATOM     26  C   UNL     1      -0.636  11.639  21.113  0.00  0.00    +0.000 A 
ATOM     27  C   UNL     1      -0.963  11.506  22.474  0.00  0.00    +0.000 A 
ATOM     28  C   UNL     1      -2.166  12.012  22.973  0.00  0.00    +0.000 A 
ATOM     29  C   UNL     1      -3.054  12.653  22.113  0.00  0.00    +0.000 A 
ATOM     30 BR   UNL     1      -4.693  13.321  22.782  0.00  0.00    +0.000 Br
ATOM     31  C   UNL     1      -2.747  12.801  20.764  0.00  0.00    +0.000 A 
ATOM     32  C   UNL     1      -1.542  12.298  20.267  0.00  0.00    +0.000 A 
ENDBRANCH  25  26
ENDBRANCH  20  25
ENDBRANCH  19  21
ENDBRANCH   1  19
TORSDOF 6
ENDMDL
MODEL 7
REMARK VINA RESULT:      -7.6      4.182      9.281
REMARK  Name = 
REMARK  7 active torsions:
REMARK  status: ('A' for Active; 'I' for Inactive)
REMARK    1  A    between atoms: C_1  and  C_2
REMARK    2  A    between atoms: C_2  and  N_3
REMARK    3  A    between atoms: C_2  and  C_20
REMARK    4  A    between atoms: C_4  and  C_6
REMARK    5  A    between atoms: C_6  and  N_7
REMARK    6  A    between atoms: N_10  and  C_11
REMARK    7  A    between atoms: C_14  and  C_15
REMARK                            x       y       z     vdW  Elec       q    Type
REMARK                         _______ _______ _______ _____ _____    ______ ____
ROOT
ATOM      1  N   UNL     1       1.589   9.366  18.019  0.00  0.00    +0.000 N 
ATOM      2  C   UNL     1       1.993   8.220  18.661  0.00  0.00    +0.000 C 
ATOM      3  O   UNL     1       2.010   8.161  19.885  0.00  0.00    +0.000 OA
ATOM      4  N   UNL     1       2.368   7.233  17.779  0.00  0.00    +0.000 N 
ATOM      5  H   UNL     1       1.093   9.252  17.147  0.00  0.00    +0.000 HD
ATOM      6  H   UNL     1       2.481   7.519  16.818  0.00  0.00    +0.000 HD
ENDROOT
BRANCH   4   7
ATOM      7  C   UNL     1       2.839   5.946  18.124  0.00  0.00    +0.000 A 
ATOM      8  C   UNL     1       4.114   5.721  18.653  0.00  0.00    +0.000 A 
ATOM      9  C   UNL     1       4.549   4.430  18.959  0.00  0.00    +0.000 A 
ATOM     10  C   UNL     1       3.706   3.338  18.751  0.00  0.00    +0.000 A 
ATOM     11  C   UNL     1       2.425   3.549  18.230  0.00  0.00    +0.000 A 
ATOM     12  C   UNL     1       1.993   4.849  17.927  0.00  0.00    +0.000 A 
BRANCH  10  13
ATOM     13  C   UNL     1       4.194   1.971  19.090  0.00  0.00    +0.000 C 
ATOM     14  N   UNL     1       3.877   0.921  18.404  0.00  0.00    +0.000 NA
ATOM     15  N   UNL     1       5.007   1.775  20.166  0.00  0.00    +0.000 N 
ATOM     16  H   UNL     1       3.222   1.147  17.652  0.00  0.00    +0.000 HD
ATOM     17  H   UNL     1       5.695   2.495  20.350  0.00  0.00    +0.000 HD
ATOM     18  H   UNL     1       5.409   0.843  20.154  0.00  0.00    +0.000 HD
ENDBRANCH  10  13
ENDBRANCH   4   7
BRANCH   1  19
ATOM     19  C   UNL     1       1.269  10.557  18.801  0.00  0.00    +0.000 C 
BRANCH  19  21
ATOM     20  N   UNL     1       0.329  10.514  21.062  0.00  0.00    +0.000 N 
ATOM     21  C   UNL     1       0.060  10.359  19.723  0.00  0.00    +0.000 C 
ATOM     22  O   UNL     1      -1.059  10.123  19.276  0.00  0.00    +0.000 OA
ATOM     23  H   UNL     1       1.277  10.779  21.328  0.00  0.00    +0.000 HD
BRANCH  20  25
ATOM     24  C   UNL     1      -0.138   9.569  23.274  0.00  0.00    +0.000 C 
ATOM     25  C   UNL     1      -0.683  10.377  22.095  0.00  0.00    +0.000 C 
BRANCH  25  26
ATOM     26  C   UNL     1      -1.195  11.740  22.528  0.00  0.00    +0.000 A 
ATOM     27  C   UNL     1      -0.432  12.890  22.261  0.00  0.00    +0.000 A 
ATOM     28  C   UNL     1      -0.875  14.152  22.666  0.00  0.00    +0.000 A 
ATOM     29  C   UNL     1      -2.084  14.275  23.345  0.00  0.00    +0.000 A 
ATOM     30 BR   UNL     1      -2.676  15.979  23.911  0.00  0.00    +0.000 Br
ATOM     31  C   UNL     1      -2.858  13.149  23.614  0.00  0.00    +0.000 A 
ATOM     32  C   UNL     1      -2.416  11.888  23.205  0.00  0.00    +0.000 A 
ENDBRANCH  25  26
ENDBRANCH  20  25
ENDBRANCH  19  21
ENDBRANCH   1  19
TORSDOF 6
ENDMDL
MODEL 8
REMARK VINA RESULT:      -7.6      4.651      7.022
REMARK  Name = 
REMARK  7 active torsions:
REMARK  status: ('A' for Active; 'I' for Inactive)
REMARK    1  A    between atoms: C_1  and  C_2
REMARK    2  A    between atoms: C_2  and  N_3
REMARK    3  A    between atoms: C_2  and  C_20
REMARK    4  A    between atoms: C_4  and  C_6
REMARK    5  A    between atoms: C_6  and  N_7
REMARK    6  A    between atoms: N_10  and  C_11
REMARK    7  A    between atoms: C_14  and  C_15
REMARK                            x       y       z     vdW  Elec       q    Type
REMARK                         _______ _______ _______ _____ _____    ______ ____
ROOT
ATOM      1  N   UNL     1       8.139   6.859  18.830  0.00  0.00    +0.000 N 
ATOM      2  C   UNL     1       8.284   8.098  18.252  0.00  0.00    +0.000 C 
ATOM      3  O   UNL     1       7.894   8.304  17.109  0.00  0.00    +0.000 OA
ATOM      4  N   UNL     1       8.909   8.994  19.088  0.00  0.00    +0.000 N 
ATOM      5  H   UNL     1       7.956   6.837  19.824  0.00  0.00    +0.000 HD
ATOM      6  H   UNL     1       9.340   8.602  19.913  0.00  0.00    +0.000 HD
ENDROOT
BRANCH   4   7
ATOM      7  C   UNL     1       9.214  10.340  18.783  0.00  0.00    +0.000 A 
ATOM      8  C   UNL     1      10.344  10.994  19.282  0.00  0.00    +0.000 A 
ATOM      9  C   UNL     1      10.596  12.333  18.975  0.00  0.00    +0.000 A 
ATOM     10  C   UNL     1       9.721  13.039  18.148  0.00  0.00    +0.000 A 
ATOM     11  C   UNL     1       8.590  12.395  17.636  0.00  0.00    +0.000 A 
ATOM     12  C   UNL     1       8.344  11.049  17.946  0.00  0.00    +0.000 A 
BRANCH  10  13
ATOM     13  C   UNL     1      10.015  14.466  17.834  0.00  0.00    +0.000 C 
ATOM     14  N   UNL     1       9.578  15.449  18.552  0.00  0.00    +0.000 NA
ATOM     15  N   UNL     1      10.769  14.792  16.747  0.00  0.00    +0.000 N 
ATOM     16  H   UNL     1       8.976  15.122  19.311  0.00  0.00    +0.000 HD
ATOM     17  H   UNL     1      11.543  14.174  16.531  0.00  0.00    +0.000 HD
ATOM     18  H   UNL     1      11.044  15.769  16.774  0.00  0.00    +0.000 HD
ENDBRANCH  10  13
ENDBRANCH   4   7
BRANCH   1  19
ATOM     19  C   UNL     1       7.602   5.753  18.044  0.00  0.00    +0.000 C 
BRANCH  19  21
ATOM     20  N   UNL     1       5.314   4.995  17.611  0.00  0.00    +0.000 N 
ATOM     21  C   UNL     1       6.262   5.236  18.577  0.00  0.00    +0.000 C 
ATOM     22  O   UNL     1       6.084   5.020  19.774  0.00  0.00    +0.000 OA
ATOM     23  H   UNL     1       5.582   5.139  16.638  0.00  0.00    +0.000 HD
BRANCH  20  25
ATOM     24  C   UNL     1       4.074   3.153  18.644  0.00  0.00    +0.000 C 
ATOM     25  C   UNL     1       3.984   4.492  17.912  0.00  0.00    +0.000 C 
BRANCH  25  26
ATOM     26  C   UNL     1       3.189   5.519  18.698  0.00  0.00    +0.000 A 
ATOM     27  C   UNL     1       3.047   6.826  18.200  0.00  0.00    +0.000 A 
ATOM     28  C   UNL     1       2.335   7.792  18.916  0.00  0.00    +0.000 A 
ATOM     29  C   UNL     1       1.760   7.459  20.140  0.00  0.00    +0.000 A 
ATOM     30 BR   UNL     1       0.813   8.770  21.120  0.00  0.00    +0.000 Br
ATOM     31  C   UNL     1       1.883   6.169  20.649  0.00  0.00    +0.000 A 
ATOM     32  C   UNL     1       2.593   5.204  19.930  0.00  0.00    +0.000 A 
ENDBRANCH  25  26
ENDBRANCH  20  25
ENDBRANCH  19  21
ENDBRANCH   1  19
TORSDOF 6
ENDMDL
MODEL 9
REMARK VINA RESULT:      -7.5      4.521      6.895
REMARK  Name = 
REMARK  7 active torsions:
REMARK  status: ('A' for Active; 'I' for Inactive)
REMARK    1  A    between atoms: C_1  and  C_2
REMARK    2  A    between atoms: C_2  and  N_3
REMARK    3  A    between atoms: C_2  and  C_20
REMARK    4  A    between atoms: C_4  and  C_6
REMARK    5  A    between atoms: C_6  and  N_7
REMARK    6  A    between atoms: N_10  and  C_11
REMARK    7  A    between atoms: C_14  and  C_15
REMARK                            x       y       z     vdW  Elec       q    Type
REMARK                         _______ _______ _______ _____ _____    ______ ____
ROOT
ATOM      1  N   UNL     1       8.004   6.523  18.655  0.00  0.00    +0.000 N 
ATOM      2  C   UNL     1       8.131   7.804  18.173  0.00  0.00    +0.000 C 
ATOM      3  O   UNL     1       7.736   8.092  17.050  0.00  0.00    +0.000 OA
ATOM      4  N   UNL     1       8.745   8.642  19.075  0.00  0.00    +0.000 N 
ATOM      5  H   UNL     1       7.824   6.421  19.643  0.00  0.00    +0.000 HD
ATOM      6  H   UNL     1       9.183   8.194  19.867  0.00  0.00    +0.000 HD
ENDROOT
BRANCH   4   7
ATOM      7  C   UNL     1       9.030  10.012  18.875  0.00  0.00    +0.000 A 
ATOM      8  C   UNL     1       8.435  10.771  17.864  0.00  0.00    +0.000 A 
ATOM      9  C   UNL     1       8.762  12.117  17.686  0.00  0.00    +0.000 A 
ATOM     10  C   UNL     1       9.687  12.731  18.531  0.00  0.00    +0.000 A 
ATOM     11  C   UNL     1      10.285  11.986  19.552  0.00  0.00    +0.000 A 
ATOM     12  C   UNL     1       9.950  10.634  19.727  0.00  0.00    +0.000 A 
BRANCH  10  13
ATOM     13  C   UNL     1      10.015  14.169  18.322  0.00  0.00    +0.000 C 
ATOM     14  N   UNL     1       9.372  15.130  18.903  0.00  0.00    +0.000 NA
ATOM     15  N   UNL     1      11.027  14.532  17.484  0.00  0.00    +0.000 N 
ATOM     16  H   UNL     1       8.596  14.775  19.466  0.00  0.00    +0.000 HD
ATOM     17  H   UNL     1      11.847  13.937  17.482  0.00  0.00    +0.000 HD
ATOM     18  H   UNL     1      11.257  15.515  17.594  0.00  0.00    +0.000 HD
ENDBRANCH  10  13
ENDBRANCH   4   7
BRANCH   1  19
ATOM     19  C   UNL     1       7.481   5.473  17.786  0.00  0.00    +0.000 C 
BRANCH  19  21
ATOM     20  N   UNL     1       5.120   5.106  17.248  0.00  0.00    +0.000 N 
ATOM     21  C   UNL     1       6.094   4.980  18.211  0.00  0.00    +0.000 C 
ATOM     22  O   UNL     1       5.899   4.478  19.315  0.00  0.00    +0.000 OA
ATOM     23  H   UNL     1       5.398   5.471  16.338  0.00  0.00    +0.000 HD
BRANCH  20  25
ATOM     24  C   UNL     1       3.693   3.233  17.923  0.00  0.00    +0.000 C 
ATOM     25  C   UNL     1       3.744   4.687  17.453  0.00  0.00    +0.000 C 
BRANCH  25  26
ATOM     26  C   UNL     1       3.038   5.623  18.418  0.00  0.00    +0.000 A 
ATOM     27  C   UNL     1       2.917   6.988  18.107  0.00  0.00    +0.000 A 
ATOM     28  C   UNL     1       2.287   7.870  18.989  0.00  0.00    +0.000 A 
ATOM     29  C   UNL     1       1.775   7.394  20.193  0.00  0.00    +0.000 A 
ATOM     30 BR   UNL     1       0.940   8.589  21.397  0.00  0.00    +0.000 Br
ATOM     31  C   UNL     1       1.879   6.044  20.518  0.00  0.00    +0.000 A 
ATOM     32  C   UNL     1       2.505   5.163  19.633  0.00  0.00    +0.000 A 
ENDBRANCH  25  26
ENDBRANCH  20  25
ENDBRANCH  19  21
ENDBRANCH   1  19
TORSDOF 6
ENDMDL
