MODEL 1
REMARK VINA RESULT:      -9.6      0.000      0.000
REMARK  Name = 
REMARK  7 active torsions:
REMARK  status: ('A' for Active; 'I' for Inactive)
REMARK    1  A    between atoms: C_1  and  O_2
REMARK    2  A    between atoms: O_2  and  C_3
REMARK    3  A    between atoms: C_5  and  N_6
REMARK    4  A    between atoms: C_21  and  C_22
REMARK    5  A    between atoms: C_22  and  C_23
REMARK    6  A    between atoms: N_25  and  C_26
REMARK    7  A    between atoms: C_30  and  C_31
REMARK                            x       y       z     vdW  Elec       q    Type
REMARK                         _______ _______ _______ _____ _____    ______ ____
ROOT
ATOM      1  C   UNL     1       1.579   8.278  20.285  0.00  0.00    +0.000 A 
ATOM      2  C   UNL     1       2.180   7.087  19.855  0.00  0.00    +0.000 A 
ATOM      3  C   UNL     1       2.524   6.888  18.517  0.00  0.00    +0.000 A 
ATOM      4  C   UNL     1       2.291   7.922  17.604  0.00  0.00    +0.000 A 
ATOM      5  C   UNL     1       1.745   9.137  18.034  0.00  0.00    +0.000 A 
ATOM      6  C   UNL     1       1.407   9.339  19.382  0.00  0.00    +0.000 A 
ENDROOT
BRANCH   3   7
ATOM      7  N   UNL     1       3.166   5.674  18.104  0.00  0.00    +0.000 N 
ATOM      8  C   UNL     1       2.659   4.415  18.346  0.00  0.00    +0.000 A 
ATOM      9  C   UNL     1       3.431   3.471  17.734  0.00  0.00    +0.000 A 
ATOM     10  C   UNL     1       4.489   4.116  17.110  0.00  0.00    +0.000 A 
ATOM     11  N   UNL     1       5.484   3.563  16.391  0.00  0.00    +0.000 NA
ATOM     12  C   UNL     1       6.359   4.454  15.934  0.00  0.00    +0.000 A 
ATOM     13  N   UNL     1       6.342   5.781  16.120  0.00  0.00    +0.000 NA
ATOM     14  C   UNL     1       5.348   6.331  16.841  0.00  0.00    +0.000 A 
ATOM     15  N   UNL     1       5.471   7.700  17.031  0.00  0.00    +0.000 N 
ATOM     16  C   UNL     1       4.346   5.496  17.347  0.00  0.00    +0.000 A 
ATOM     17  C   UNL     1       2.874   2.114  17.865  0.00  0.00    +0.000 C 
ATOM     18  C   UNL     1       1.411   2.424  18.312  0.00  0.00    +0.000 C 
ATOM     19  C   UNL     1       1.421   3.860  18.940  0.00  0.00    +0.000 C 
ATOM     20  H   UNL     1       6.396   7.981  16.716  0.00  0.00    +0.000 HD
ATOM     21  H   UNL     1       5.240   8.001  17.969  0.00  0.00    +0.000 HD
ENDBRANCH   3   7
BRANCH   1  23
ATOM     22  C   UNL     1      -0.219   8.405  21.829  0.00  0.00    +0.000 C 
ATOM     23  O   UNL     1       1.189   8.486  21.585  0.00  0.00    +0.000 OA
ENDBRANCH   1  23
BRANCH   6  24
ATOM     24  C   UNL     1       0.857  10.686  19.806  0.00  0.00    +0.000 C 
BRANCH  24  25
ATOM     25  C   UNL     1      -0.190  11.260  18.854  0.00  0.00    +0.000 C 
ATOM     26  O   UNL     1      -0.035  12.375  18.362  0.00  0.00    +0.000 OA
ATOM     27  N   UNL     1      -1.263  10.411  18.608  0.00  0.00    +0.000 N 
ATOM     28  H   UNL     1      -1.332   9.595  19.205  0.00  0.00    +0.000 HD
BRANCH  27  29
ATOM     29  C   UNL     1      -2.312  10.623  17.680  0.00  0.00    +0.000 A 
ATOM     30  C   UNL     1      -2.275  10.174  16.365  0.00  0.00    +0.000 A 
ATOM     31  C   UNL     1      -3.364  10.415  15.543  0.00  0.00    +0.000 A 
ATOM     32  N   UNL     1      -4.471  11.073  15.938  0.00  0.00    +0.000 NA
ATOM     33  C   UNL     1      -4.515  11.516  17.224  0.00  0.00    +0.000 A 
ATOM     34  C   UNL     1      -3.457  11.297  18.118  0.00  0.00    +0.000 A 
BRANCH  33  35
ATOM     35  C   UNL     1      -5.743  12.279  17.703  0.00  0.00    +0.000 C 
ATOM     36  F   UNL     1      -5.643  12.776  18.969  0.00  0.00    +0.000 F 
ATOM     37  F   UNL     1      -6.034  13.352  16.907  0.00  0.00    +0.000 F 
ATOM     38  F   UNL     1      -6.870  11.509  17.696  0.00  0.00    +0.000 F 
ENDBRANCH  33  35
ENDBRANCH  27  29
ENDBRANCH  24  25
ENDBRANCH   6  24
TORSDOF 6
ENDMDL
MODEL 2
REMARK VINA RESULT:      -9.6      1.086      2.696
REMARK  Name = 
REMARK  7 active torsions:
REMARK  status: ('A' for Active; 'I' for Inactive)
REMARK    1  A    between atoms: C_1  and  O_2
REMARK    2  A    between atoms: O_2  and  C_3
REMARK    3  A    between atoms: C_5  and  N_6
REMARK    4  A    between atoms: C_21  and  C_22
REMARK    5  A    between atoms: C_22  and  C_23
REMARK    6  A    between atoms: N_25  and  C_26
REMARK    7  A    between atoms: C_30  and  C_31
REMARK                            x       y       z     vdW  Elec       q    Type
REMARK                         _______ _______ _______ _____ _____    ______ ____
ROOT
ATOM      1  C   UNL     1       1.512   8.407  20.340  0.00  0.00    +0.000 A 
ATOM      2  C   UNL     1       2.097   7.201  19.927  0.00  0.00    +0.000 A 
ATOM      3  C   UNL     1       2.414   6.966  18.589  0.00  0.00    +0.000 A 
ATOM      4  C   UNL     1       2.171   7.980  17.655  0.00  0.00    +0.000 A 
ATOM      5  C   UNL     1       1.642   9.209  18.065  0.00  0.00    +0.000 A 
ATOM      6  C   UNL     1       1.331   9.447  19.414  0.00  0.00    +0.000 A 
ENDROOT
BRANCH   3   7
ATOM      7  N   UNL     1       3.039   5.738  18.194  0.00  0.00    +0.000 N 
ATOM      8  C   UNL     1       4.089   5.661  17.303  0.00  0.00    +0.000 A 
ATOM      9  C   UNL     1       4.540   4.377  17.217  0.00  0.00    +0.000 A 
ATOM     10  C   UNL     1       3.748   3.584  18.036  0.00  0.00    +0.000 A 
ATOM     11  N   UNL     1       3.849   2.259  18.249  0.00  0.00    +0.000 NA
ATOM     12  C   UNL     1       2.925   1.790  19.082  0.00  0.00    +0.000 A 
ATOM     13  N   UNL     1       1.953   2.481  19.693  0.00  0.00    +0.000 NA
ATOM     14  C   UNL     1       1.853   3.806  19.477  0.00  0.00    +0.000 A 
ATOM     15  N   UNL     1       0.768   4.405  20.099  0.00  0.00    +0.000 N 
ATOM     16  C   UNL     1       2.792   4.421  18.642  0.00  0.00    +0.000 A 
ATOM     17  C   UNL     1       5.735   4.252  16.364  0.00  0.00    +0.000 C 
ATOM     18  C   UNL     1       6.194   5.741  16.261  0.00  0.00    +0.000 C 
ATOM     19  C   UNL     1       4.939   6.628  16.571  0.00  0.00    +0.000 C 
ATOM     20  H   UNL     1       0.167   3.670  20.464  0.00  0.00    +0.000 HD
ATOM     21  H   UNL     1       0.291   5.083  19.518  0.00  0.00    +0.000 HD
ENDBRANCH   3   7
BRANCH   1  23
ATOM     22  C   UNL     1      -0.233   8.439  21.947  0.00  0.00    +0.000 C 
ATOM     23  O   UNL     1       1.149   8.650  21.641  0.00  0.00    +0.000 OA
ENDBRANCH   1  23
BRANCH   6  24
ATOM     24  C   UNL     1       0.799  10.808  19.814  0.00  0.00    +0.000 C 
BRANCH  24  25
ATOM     25  C   UNL     1      -0.265  11.364  18.871  0.00  0.00    +0.000 C 
ATOM     26  O   UNL     1      -0.166  12.507  18.431  0.00  0.00    +0.000 OA
ATOM     27  N   UNL     1      -1.284  10.468  18.570  0.00  0.00    +0.000 N 
ATOM     28  H   UNL     1      -1.316   9.624  19.130  0.00  0.00    +0.000 HD
BRANCH  27  29
ATOM     29  C   UNL     1      -2.331  10.663  17.634  0.00  0.00    +0.000 A 
ATOM     30  C   UNL     1      -2.289  10.186  16.329  0.00  0.00    +0.000 A 
ATOM     31  C   UNL     1      -3.376  10.412  15.498  0.00  0.00    +0.000 A 
ATOM     32  N   UNL     1      -4.483  11.080  15.876  0.00  0.00    +0.000 NA
ATOM     33  C   UNL     1      -4.530  11.549  17.153  0.00  0.00    +0.000 A 
ATOM     34  C   UNL     1      -3.475  11.347  18.054  0.00  0.00    +0.000 A 
BRANCH  33  35
ATOM     35  C   UNL     1      -5.759  12.324  17.612  0.00  0.00    +0.000 C 
ATOM     36  F   UNL     1      -6.904  11.588  17.672  0.00  0.00    +0.000 F 
ATOM     37  F   UNL     1      -5.600  12.862  18.859  0.00  0.00    +0.000 F 
ATOM     38  F   UNL     1      -6.041  13.382  16.797  0.00  0.00    +0.000 F 
ENDBRANCH  33  35
ENDBRANCH  27  29
ENDBRANCH  24  25
ENDBRANCH   6  24
TORSDOF 6
ENDMDL
MODEL 3
REMARK VINA RESULT:      -9.3      4.717      6.241
REMARK  Name = 
REMARK  7 active torsions:
REMARK  status: ('A' for Active; 'I' for Inactive)
REMARK    1  A    between atoms: C_1  and  O_2
REMARK    2  A    between atoms: O_2  and  C_3
REMARK    3  A    between atoms: C_5  and  N_6
REMARK    4  A    between atoms: C_21  and  C_22
REMARK    5  A    between atoms: C_22  and  C_23
REMARK    6  A    between atoms: N_25  and  C_26
REMARK    7  A    between atoms: C_30  and  C_31
REMARK                            x       y       z     vdW  Elec       q    Type
REMARK                         _______ _______ _______ _____ _____    ______ ____
ROOT
ATOM      1  C   UNL     1       1.248   8.676  20.048  0.00  0.00    +0.000 A 
ATOM      2  C   UNL     1       2.091   7.556  19.993  0.00  0.00    +0.000 A 
ATOM      3  C   UNL     1       2.733   7.186  18.810  0.00  0.00    +0.000 A 
ATOM      4  C   UNL     1       2.550   7.979  17.672  0.00  0.00    +0.000 A 
ATOM      5  C   UNL     1       1.757   9.131  17.731  0.00  0.00    +0.000 A 
ATOM      6  C   UNL     1       1.118   9.507  18.924  0.00  0.00    +0.000 A 
ENDROOT
BRANCH   3   7
ATOM      7  N   UNL     1       3.615   6.056  18.784  0.00  0.00    +0.000 N 
ATOM      8  C   UNL     1       4.829   6.044  18.132  0.00  0.00    +0.000 A 
ATOM      9  C   UNL     1       5.486   4.875  18.383  0.00  0.00    +0.000 A 
ATOM     10  C   UNL     1       4.673   4.085  19.183  0.00  0.00    +0.000 A 
ATOM     11  N   UNL     1       4.934   2.856  19.666  0.00  0.00    +0.000 NA
ATOM     12  C   UNL     1       3.939   2.355  20.392  0.00  0.00    +0.000 A 
ATOM     13  N   UNL     1       2.762   2.932  20.668  0.00  0.00    +0.000 NA
ATOM     14  C   UNL     1       2.502   4.160  20.182  0.00  0.00    +0.000 A 
ATOM     15  N   UNL     1       1.227   4.629  20.467  0.00  0.00    +0.000 N 
ATOM     16  C   UNL     1       3.489   4.805  19.429  0.00  0.00    +0.000 A 
ATOM     17  C   UNL     1       6.840   4.851  17.803  0.00  0.00    +0.000 C 
ATOM     18  C   UNL     1       7.069   6.364  17.497  0.00  0.00    +0.000 C 
ATOM     19  C   UNL     1       5.653   7.028  17.393  0.00  0.00    +0.000 C 
ATOM     20  H   UNL     1       0.686   3.859  20.852  0.00  0.00    +0.000 HD
ATOM     21  H   UNL     1       0.786   5.099  19.687  0.00  0.00    +0.000 HD
ENDBRANCH   3   7
BRANCH   1  23
ATOM     22  C   UNL     1       1.357   9.121  22.376  0.00  0.00    +0.000 C 
ATOM     23  O   UNL     1       0.569   9.039  21.184  0.00  0.00    +0.000 OA
ENDBRANCH   1  23
BRANCH   6  24
ATOM     24  C   UNL     1       0.304  10.785  18.949  0.00  0.00    +0.000 C 
BRANCH  24  25
ATOM     25  C   UNL     1       1.098  12.022  19.366  0.00  0.00    +0.000 C 
ATOM     26  O   UNL     1       1.447  12.167  20.535  0.00  0.00    +0.000 OA
ATOM     27  N   UNL     1       1.381  12.896  18.324  0.00  0.00    +0.000 N 
ATOM     28  H   UNL     1       0.894  12.724  17.452  0.00  0.00    +0.000 HD
BRANCH  27  29
ATOM     29  C   UNL     1       2.198  14.051  18.390  0.00  0.00    +0.000 A 
ATOM     30  C   UNL     1       1.694  15.339  18.535  0.00  0.00    +0.000 A 
ATOM     31  C   UNL     1       2.582  16.402  18.610  0.00  0.00    +0.000 A 
ATOM     32  N   UNL     1       3.920  16.268  18.542  0.00  0.00    +0.000 NA
ATOM     33  C   UNL     1       4.421  15.010  18.400  0.00  0.00    +0.000 A 
ATOM     34  C   UNL     1       3.586  13.886  18.331  0.00  0.00    +0.000 A 
BRANCH  33  35
ATOM     35  C   UNL     1       5.929  14.819  18.303  0.00  0.00    +0.000 C 
ATOM     36  F   UNL     1       6.541  14.526  19.485  0.00  0.00    +0.000 F 
ATOM     37  F   UNL     1       6.272  13.809  17.448  0.00  0.00    +0.000 F 
ATOM     38  F   UNL     1       6.563  15.929  17.823  0.00  0.00    +0.000 F 
ENDBRANCH  33  35
ENDBRANCH  27  29
ENDBRANCH  24  25
ENDBRANCH   6  24
TORSDOF 6
ENDMDL
MODEL 4
REMARK VINA RESULT:      -9.2      1.399      3.021
REMARK  Name = 
REMARK  7 active torsions:
REMARK  status: ('A' for Active; 'I' for Inactive)
REMARK    1  A    between atoms: C_1  and  O_2
REMARK    2  A    between atoms: O_2  and  C_3
REMARK    3  A    between atoms: C_5  and  N_6
REMARK    4  A    between atoms: C_21  and  C_22
REMARK    5  A    between atoms: C_22  and  C_23
REMARK    6  A    between atoms: N_25  and  C_26
REMARK    7  A    between atoms: C_30  and  C_31
REMARK                            x       y       z     vdW  Elec       q    Type
REMARK                         _______ _______ _______ _____ _____    ______ ____
ROOT
ATOM      1  C   UNL     1       1.574   9.169  18.684  0.00  0.00    +0.000 A 
ATOM      2  C   UNL     1       2.160   8.012  18.151  0.00  0.00    +0.000 A 
ATOM      3  C   UNL     1       2.388   6.882  18.938  0.00  0.00    +0.000 A 
ATOM      4  C   UNL     1       1.985   6.907  20.278  0.00  0.00    +0.000 A 
ATOM      5  C   UNL     1       1.346   8.036  20.805  0.00  0.00    +0.000 A 
ATOM      6  C   UNL     1       1.110   9.168  20.009  0.00  0.00    +0.000 A 
ENDROOT
BRANCH   3   7
ATOM      7  N   UNL     1       2.961   5.699  18.365  0.00  0.00    +0.000 N 
ATOM      8  C   UNL     1       3.983   5.711  17.440  0.00  0.00    +0.000 A 
ATOM      9  C   UNL     1       4.388   4.436  17.172  0.00  0.00    +0.000 A 
ATOM     10  C   UNL     1       3.593   3.566  17.904  0.00  0.00    +0.000 A 
ATOM     11  N   UNL     1       3.656   2.222  17.937  0.00  0.00    +0.000 NA
ATOM     12  C   UNL     1       2.740   1.673  18.731  0.00  0.00    +0.000 A 
ATOM     13  N   UNL     1       1.808   2.306  19.457  0.00  0.00    +0.000 NA
ATOM     14  C   UNL     1       1.747   3.650  19.420  0.00  0.00    +0.000 A 
ATOM     15  N   UNL     1       0.700   4.194  20.150  0.00  0.00    +0.000 N 
ATOM     16  C   UNL     1       2.683   4.342  18.644  0.00  0.00    +0.000 A 
ATOM     17  C   UNL     1       5.554   4.391  16.272  0.00  0.00    +0.000 C 
ATOM     18  C   UNL     1       6.060   5.866  16.351  0.00  0.00    +0.000 C 
ATOM     19  C   UNL     1       4.844   6.740  16.814  0.00  0.00    +0.000 C 
ATOM     20  H   UNL     1       0.085   3.435  20.434  0.00  0.00    +0.000 HD
ATOM     21  H   UNL     1       0.230   4.956  19.678  0.00  0.00    +0.000 HD
ENDBRANCH   3   7
BRANCH   1  23
ATOM     22  C   UNL     1       2.497  11.198  17.870  0.00  0.00    +0.000 C 
ATOM     23  O   UNL     1       1.378  10.309  17.946  0.00  0.00    +0.000 OA
ENDBRANCH   1  23
BRANCH   6  24
ATOM     24  C   UNL     1       0.378  10.349  20.613  0.00  0.00    +0.000 C 
BRANCH  24  25
ATOM     25  C   UNL     1      -0.617  11.017  19.666  0.00  0.00    +0.000 C 
ATOM     26  O   UNL     1      -0.653  12.241  19.569  0.00  0.00    +0.000 OA
ATOM     27  N   UNL     1      -1.411  10.127  18.953  0.00  0.00    +0.000 N 
ATOM     28  H   UNL     1      -1.378   9.159  19.254  0.00  0.00    +0.000 HD
BRANCH  27  29
ATOM     29  C   UNL     1      -2.327  10.451  17.921  0.00  0.00    +0.000 A 
ATOM     30  C   UNL     1      -2.131  10.110  16.588  0.00  0.00    +0.000 A 
ATOM     31  C   UNL     1      -3.099  10.456  15.658  0.00  0.00    +0.000 A 
ATOM     32  N   UNL     1      -4.231  11.118  15.965  0.00  0.00    +0.000 NA
ATOM     33  C   UNL     1      -4.430  11.455  17.269  0.00  0.00    +0.000 A 
ATOM     34  C   UNL     1      -3.501  11.127  18.267  0.00  0.00    +0.000 A 
BRANCH  33  35
ATOM     35  C   UNL     1      -5.690  12.220  17.653  0.00  0.00    +0.000 C 
ATOM     36  F   UNL     1      -5.630  12.840  18.865  0.00  0.00    +0.000 F 
ATOM     37  F   UNL     1      -6.000  13.200  16.751  0.00  0.00    +0.000 F 
ATOM     38  F   UNL     1      -6.791  11.415  17.702  0.00  0.00    +0.000 F 
ENDBRANCH  33  35
ENDBRANCH  27  29
ENDBRANCH  24  25
ENDBRANCH   6  24
TORSDOF 6
ENDMDL
MODEL 5
REMARK VINA RESULT:      -9.2      1.868      3.297
REMARK  Name = 
REMARK  7 active torsions:
REMARK  status: ('A' for Active; 'I' for Inactive)
REMARK    1  A    between atoms: C_1  and  O_2
REMARK    2  A    between atoms: O_2  and  C_3
REMARK    3  A    between atoms: C_5  and  N_6
REMARK    4  A    between atoms: C_21  and  C_22
REMARK    5  A    between atoms: C_22  and  C_23
REMARK    6  A    between atoms: N_25  and  C_26
REMARK    7  A    between atoms: C_30  and  C_31
REMARK                            x       y       z     vdW  Elec       q    Type
REMARK                         _______ _______ _______ _____ _____    ______ ____
ROOT
ATOM      1  C   UNL     1       1.555   8.334  20.422  0.00  0.00    +0.000 A 
ATOM      2  C   UNL     1       2.117   7.135  19.960  0.00  0.00    +0.000 A 
ATOM      3  C   UNL     1       2.433   6.951  18.613  0.00  0.00    +0.000 A 
ATOM      4  C   UNL     1       2.213   8.008  17.722  0.00  0.00    +0.000 A 
ATOM      5  C   UNL     1       1.708   9.229  18.183  0.00  0.00    +0.000 A 
ATOM      6  C   UNL     1       1.398   9.416  19.540  0.00  0.00    +0.000 A 
ENDROOT
BRANCH   3   7
ATOM      7  N   UNL     1       3.034   5.728  18.167  0.00  0.00    +0.000 N 
ATOM      8  C   UNL     1       4.071   5.667  17.261  0.00  0.00    +0.000 A 
ATOM      9  C   UNL     1       4.501   4.379  17.125  0.00  0.00    +0.000 A 
ATOM     10  C   UNL     1       3.707   3.571  17.926  0.00  0.00    +0.000 A 
ATOM     11  N   UNL     1       3.790   2.237  18.091  0.00  0.00    +0.000 NA
ATOM     12  C   UNL     1       2.870   1.753  18.920  0.00  0.00    +0.000 A 
ATOM     13  N   UNL     1       1.917   2.437  19.567  0.00  0.00    +0.000 NA
ATOM     14  C   UNL     1       1.834   3.770  19.398  0.00  0.00    +0.000 A 
ATOM     15  N   UNL     1       0.766   4.364  20.056  0.00  0.00    +0.000 N 
ATOM     16  C   UNL     1       2.772   4.400  18.573  0.00  0.00    +0.000 A 
ATOM     17  C   UNL     1       5.683   4.267  16.252  0.00  0.00    +0.000 C 
ATOM     18  C   UNL     1       6.164   5.751  16.195  0.00  0.00    +0.000 C 
ATOM     19  C   UNL     1       4.927   6.645  16.551  0.00  0.00    +0.000 C 
ATOM     20  H   UNL     1       0.159   3.626  20.403  0.00  0.00    +0.000 HD
ATOM     21  H   UNL     1       0.293   5.069  19.504  0.00  0.00    +0.000 HD
ENDBRANCH   3   7
BRANCH   1  23
ATOM     22  C   UNL     1      -0.211   8.465  22.001  0.00  0.00    +0.000 C 
ATOM     23  O   UNL     1       1.193   8.529  21.731  0.00  0.00    +0.000 OA
ENDBRANCH   1  23
BRANCH   6  24
ATOM     24  C   UNL     1       0.893  10.769  19.997  0.00  0.00    +0.000 C 
BRANCH  24  25
ATOM     25  C   UNL     1      -0.183  11.370  19.096  0.00  0.00    +0.000 C 
ATOM     26  O   UNL     1       0.038  12.406  18.473  0.00  0.00    +0.000 OA
ATOM     27  N   UNL     1      -1.363  10.637  19.049  0.00  0.00    +0.000 N 
ATOM     28  H   UNL     1      -1.455   9.896  19.735  0.00  0.00    +0.000 HD
BRANCH  27  29
ATOM     29  C   UNL     1      -2.478  10.883  18.210  0.00  0.00    +0.000 A 
ATOM     30  C   UNL     1      -3.590  11.614  18.611  0.00  0.00    +0.000 A 
ATOM     31  C   UNL     1      -4.621  11.817  17.706  0.00  0.00    +0.000 A 
ATOM     32  N   UNL     1      -4.619  11.338  16.447  0.00  0.00    +0.000 NA
ATOM     33  C   UNL     1      -3.532  10.622  16.048  0.00  0.00    +0.000 A 
ATOM     34  C   UNL     1      -2.446  10.388  16.903  0.00  0.00    +0.000 A 
BRANCH  33  35
ATOM     35  C   UNL     1      -3.500  10.049  14.636  0.00  0.00    +0.000 C 
ATOM     36  F   UNL     1      -2.333   9.431  14.302  0.00  0.00    +0.000 F 
ATOM     37  F   UNL     1      -4.483   9.122  14.428  0.00  0.00    +0.000 F 
ATOM     38  F   UNL     1      -3.699  11.006  13.683  0.00  0.00    +0.000 F 
ENDBRANCH  33  35
ENDBRANCH  27  29
ENDBRANCH  24  25
ENDBRANCH   6  24
TORSDOF 6
ENDMDL
MODEL 6
REMARK VINA RESULT:      -9.2      1.958      3.273
REMARK  Name = 
REMARK  7 active torsions:
REMARK  status: ('A' for Active; 'I' for Inactive)
REMARK    1  A    between atoms: C_1  and  O_2
REMARK    2  A    between atoms: O_2  and  C_3
REMARK    3  A    between atoms: C_5  and  N_6
REMARK    4  A    between atoms: C_21  and  C_22
REMARK    5  A    between atoms: C_22  and  C_23
REMARK    6  A    between atoms: N_25  and  C_26
REMARK    7  A    between atoms: C_30  and  C_31
REMARK                            x       y       z     vdW  Elec       q    Type
REMARK                         _______ _______ _______ _____ _____    ______ ____
ROOT
ATOM      1  C   UNL     1       1.355   8.747  20.083  0.00  0.00    +0.000 A 
ATOM      2  C   UNL     1       2.178   7.613  20.038  0.00  0.00    +0.000 A 
ATOM      3  C   UNL     1       2.698   7.138  18.833  0.00  0.00    +0.000 A 
ATOM      4  C   UNL     1       2.413   7.842  17.657  0.00  0.00    +0.000 A 
ATOM      5  C   UNL     1       1.640   9.008  17.699  0.00  0.00    +0.000 A 
ATOM      6  C   UNL     1       1.125   9.489  18.913  0.00  0.00    +0.000 A 
ENDROOT
BRANCH   3   7
ATOM      7  N   UNL     1       3.562   5.995  18.814  0.00  0.00    +0.000 N 
ATOM      8  C   UNL     1       4.769   5.954  18.149  0.00  0.00    +0.000 A 
ATOM      9  C   UNL     1       5.411   4.779  18.410  0.00  0.00    +0.000 A 
ATOM     10  C   UNL     1       4.595   4.013  19.229  0.00  0.00    +0.000 A 
ATOM     11  N   UNL     1       4.843   2.787  19.727  0.00  0.00    +0.000 NA
ATOM     12  C   UNL     1       3.849   2.312  20.472  0.00  0.00    +0.000 A 
ATOM     13  N   UNL     1       2.683   2.912  20.752  0.00  0.00    +0.000 NA
ATOM     14  C   UNL     1       2.437   4.137  20.251  0.00  0.00    +0.000 A 
ATOM     15  N   UNL     1       1.173   4.629  20.543  0.00  0.00    +0.000 N 
ATOM     16  C   UNL     1       3.425   4.755  19.478  0.00  0.00    +0.000 A 
ATOM     17  C   UNL     1       6.758   4.726  17.815  0.00  0.00    +0.000 C 
ATOM     18  C   UNL     1       7.006   6.231  17.484  0.00  0.00    +0.000 C 
ATOM     19  C   UNL     1       5.599   6.915  17.386  0.00  0.00    +0.000 C 
ATOM     20  H   UNL     1       0.624   3.873  20.946  0.00  0.00    +0.000 HD
ATOM     21  H   UNL     1       0.729   5.095  19.762  0.00  0.00    +0.000 HD
ENDBRANCH   3   7
BRANCH   1  23
ATOM     22  C   UNL     1      -0.387   8.528  21.680  0.00  0.00    +0.000 C 
ATOM     23  O   UNL     1       0.793   9.212  21.246  0.00  0.00    +0.000 OA
ENDBRANCH   1  23
BRANCH   6  24
ATOM     24  C   UNL     1       0.330  10.779  18.913  0.00  0.00    +0.000 C 
BRANCH  24  25
ATOM     25  C   UNL     1      -1.084  10.639  18.351  0.00  0.00    +0.000 C 
ATOM     26  O   UNL     1      -1.381   9.669  17.658  0.00  0.00    +0.000 OA
ATOM     27  N   UNL     1      -1.946  11.666  18.715  0.00  0.00    +0.000 N 
ATOM     28  H   UNL     1      -1.518  12.474  19.154  0.00  0.00    +0.000 HD
BRANCH  27  29
ATOM     29  C   UNL     1      -3.335  11.738  18.447  0.00  0.00    +0.000 A 
ATOM     30  C   UNL     1      -3.880  11.569  17.179  0.00  0.00    +0.000 A 
ATOM     31  C   UNL     1      -5.256  11.637  17.026  0.00  0.00    +0.000 A 
ATOM     32  N   UNL     1      -6.113  11.867  18.039  0.00  0.00    +0.000 NA
ATOM     33  C   UNL     1      -5.587  12.034  19.283  0.00  0.00    +0.000 A 
ATOM     34  C   UNL     1      -4.206  11.964  19.517  0.00  0.00    +0.000 A 
BRANCH  33  35
ATOM     35  C   UNL     1      -6.523  12.313  20.452  0.00  0.00    +0.000 C 
ATOM     36  F   UNL     1      -7.586  13.111  20.149  0.00  0.00    +0.000 F 
ATOM     37  F   UNL     1      -7.057  11.169  20.977  0.00  0.00    +0.000 F 
ATOM     38  F   UNL     1      -5.886  12.924  21.493  0.00  0.00    +0.000 F 
ENDBRANCH  33  35
ENDBRANCH  27  29
ENDBRANCH  24  25
ENDBRANCH   6  24
TORSDOF 6
ENDMDL
MODEL 7
REMARK VINA RESULT:      -9.1      3.934      5.401
REMARK  Name = 
REMARK  7 active torsions:
REMARK  status: ('A' for Active; 'I' for Inactive)
REMARK    1  A    between atoms: C_1  and  O_2
REMARK    2  A    between atoms: O_2  and  C_3
REMARK    3  A    between atoms: C_5  and  N_6
REMARK    4  A    between atoms: C_21  and  C_22
REMARK    5  A    between atoms: C_22  and  C_23
REMARK    6  A    between atoms: N_25  and  C_26
REMARK    7  A    between atoms: C_30  and  C_31
REMARK                            x       y       z     vdW  Elec       q    Type
REMARK                         _______ _______ _______ _____ _____    ______ ____
ROOT
ATOM      1  C   UNL     1       1.239   8.534  20.071  0.00  0.00    +0.000 A 
ATOM      2  C   UNL     1       2.108   7.435  20.014  0.00  0.00    +0.000 A 
ATOM      3  C   UNL     1       2.770   7.091  18.834  0.00  0.00    +0.000 A 
ATOM      4  C   UNL     1       2.579   7.890  17.702  0.00  0.00    +0.000 A 
ATOM      5  C   UNL     1       1.759   9.023  17.763  0.00  0.00    +0.000 A 
ATOM      6  C   UNL     1       1.100   9.373  18.953  0.00  0.00    +0.000 A 
ENDROOT
BRANCH   3   7
ATOM      7  N   UNL     1       3.678   5.982  18.807  0.00  0.00    +0.000 N 
ATOM      8  C   UNL     1       4.904   6.008  18.176  0.00  0.00    +0.000 A 
ATOM      9  C   UNL     1       5.584   4.851  18.421  0.00  0.00    +0.000 A 
ATOM     10  C   UNL     1       4.776   4.031  19.195  0.00  0.00    +0.000 A 
ATOM     11  N   UNL     1       5.058   2.801  19.664  0.00  0.00    +0.000 NA
ATOM     12  C   UNL     1       4.063   2.266  20.367  0.00  0.00    +0.000 A 
ATOM     13  N   UNL     1       2.868   2.812  20.631  0.00  0.00    +0.000 NA
ATOM     14  C   UNL     1       2.588   4.041  20.158  0.00  0.00    +0.000 A 
ATOM     15  N   UNL     1       1.298   4.475  20.428  0.00  0.00    +0.000 N 
ATOM     16  C   UNL     1       3.571   4.719  19.431  0.00  0.00    +0.000 A 
ATOM     17  C   UNL     1       6.947   4.867  17.864  0.00  0.00    +0.000 C 
ATOM     18  C   UNL     1       7.146   6.390  17.583  0.00  0.00    +0.000 C 
ATOM     19  C   UNL     1       5.716   7.022  17.464  0.00  0.00    +0.000 C 
ATOM     20  H   UNL     1       0.768   3.687  20.793  0.00  0.00    +0.000 HD
ATOM     21  H   UNL     1       0.858   4.947  19.648  0.00  0.00    +0.000 HD
ENDBRANCH   3   7
BRANCH   1  23
ATOM     22  C   UNL     1       1.334   9.133  22.364  0.00  0.00    +0.000 C 
ATOM     23  O   UNL     1       0.540   8.871  21.203  0.00  0.00    +0.000 OA
ENDBRANCH   1  23
BRANCH   6  24
ATOM     24  C   UNL     1       0.256  10.631  18.981  0.00  0.00    +0.000 C 
BRANCH  24  25
ATOM     25  C   UNL     1       1.028  11.891  19.368  0.00  0.00    +0.000 C 
ATOM     26  O   UNL     1       1.385  12.065  20.530  0.00  0.00    +0.000 OA
ATOM     27  N   UNL     1       1.283  12.751  18.307  0.00  0.00    +0.000 N 
ATOM     28  H   UNL     1       0.791  12.553  17.443  0.00  0.00    +0.000 HD
BRANCH  27  29
ATOM     29  C   UNL     1       2.077  13.924  18.342  0.00  0.00    +0.000 A 
ATOM     30  C   UNL     1       3.452  13.925  18.132  0.00  0.00    +0.000 A 
ATOM     31  C   UNL     1       4.135  15.131  18.167  0.00  0.00    +0.000 A 
ATOM     32  N   UNL     1       3.546  16.319  18.403  0.00  0.00    +0.000 NA
ATOM     33  C   UNL     1       2.201  16.326  18.609  0.00  0.00    +0.000 A 
ATOM     34  C   UNL     1       1.442  15.147  18.574  0.00  0.00    +0.000 A 
BRANCH  33  35
ATOM     35  C   UNL     1       1.502  17.649  18.895  0.00  0.00    +0.000 C 
ATOM     36  F   UNL     1       2.111  18.419  19.840  0.00  0.00    +0.000 F 
ATOM     37  F   UNL     1       1.403  18.438  17.782  0.00  0.00    +0.000 F 
ATOM     38  F   UNL     1       0.219  17.476  19.328  0.00  0.00    +0.000 F 
ENDBRANCH  33  35
ENDBRANCH  27  29
ENDBRANCH  24  25
ENDBRANCH   6  24
TORSDOF 6
ENDMDL
MODEL 8
REMARK VINA RESULT:      -9.1      0.909      1.509
REMARK  Name = 
REMARK  7 active torsions:
REMARK  status: ('A' for Active; 'I' for Inactive)
REMARK    1  A    between atoms: C_1  and  O_2
REMARK    2  A    between atoms: O_2  and  C_3
REMARK    3  A    between atoms: C_5  and  N_6
REMARK    4  A    between atoms: C_21  and  C_22
REMARK    5  A    between atoms: C_22  and  C_23
REMARK    6  A    between atoms: N_25  and  C_26
REMARK    7  A    between atoms: C_30  and  C_31
REMARK                            x       y       z     vdW  Elec       q    Type
REMARK                         _______ _______ _______ _____ _____    ______ ____
ROOT
ATOM      1  C   UNL     1       1.623   9.127  18.645  0.00  0.00    +0.000 A 
ATOM      2  C   UNL     1       2.179   7.935  18.159  0.00  0.00    +0.000 A 
ATOM      3  C   UNL     1       2.386   6.836  18.993  0.00  0.00    +0.000 A 
ATOM      4  C   UNL     1       1.992   6.928  20.333  0.00  0.00    +0.000 A 
ATOM      5  C   UNL     1       1.383   8.092  20.814  0.00  0.00    +0.000 A 
ATOM      6  C   UNL     1       1.168   9.195  19.972  0.00  0.00    +0.000 A 
ENDROOT
BRANCH   3   7
ATOM      7  N   UNL     1       2.928   5.616  18.469  0.00  0.00    +0.000 N 
ATOM      8  C   UNL     1       2.372   4.373  18.685  0.00  0.00    +0.000 A 
ATOM      9  C   UNL     1       3.043   3.427  17.967  0.00  0.00    +0.000 A 
ATOM     10  C   UNL     1       4.085   4.051  17.296  0.00  0.00    +0.000 A 
ATOM     11  N   UNL     1       4.991   3.490  16.474  0.00  0.00    +0.000 NA
ATOM     12  C   UNL     1       5.877   4.359  15.997  0.00  0.00    +0.000 A 
ATOM     13  N   UNL     1       5.946   5.673  16.251  0.00  0.00    +0.000 NA
ATOM     14  C   UNL     1       5.040   6.232  17.075  0.00  0.00    +0.000 A 
ATOM     15  N   UNL     1       5.252   7.580  17.325  0.00  0.00    +0.000 N 
ATOM     16  C   UNL     1       4.036   5.421  17.614  0.00  0.00    +0.000 A 
ATOM     17  C   UNL     1       2.425   2.094  18.070  0.00  0.00    +0.000 C 
ATOM     18  C   UNL     1       1.018   2.452  18.645  0.00  0.00    +0.000 C 
ATOM     19  C   UNL     1       1.154   3.849  19.344  0.00  0.00    +0.000 C 
ATOM     20  H   UNL     1       6.165   7.831  16.954  0.00  0.00    +0.000 HD
ATOM     21  H   UNL     1       5.109   7.839  18.293  0.00  0.00    +0.000 HD
ENDBRANCH   3   7
BRANCH   1  23
ATOM     22  C   UNL     1       2.552  11.149  17.821  0.00  0.00    +0.000 C 
ATOM     23  O   UNL     1       1.448  10.239  17.860  0.00  0.00    +0.000 OA
ENDBRANCH   1  23
BRANCH   6  24
ATOM     24  C   UNL     1       0.467  10.417  20.528  0.00  0.00    +0.000 C 
BRANCH  24  25
ATOM     25  C   UNL     1      -0.541  11.048  19.570  0.00  0.00    +0.000 C 
ATOM     26  O   UNL     1      -0.558  12.266  19.403  0.00  0.00    +0.000 OA
ATOM     27  N   UNL     1      -1.370  10.134  18.931  0.00  0.00    +0.000 N 
ATOM     28  H   UNL     1      -1.347   9.185  19.287  0.00  0.00    +0.000 HD
BRANCH  27  29
ATOM     29  C   UNL     1      -2.308  10.416  17.907  0.00  0.00    +0.000 A 
ATOM     30  C   UNL     1      -2.147  10.008  16.588  0.00  0.00    +0.000 A 
ATOM     31  C   UNL     1      -3.135  10.317  15.665  0.00  0.00    +0.000 A 
ATOM     32  N   UNL     1      -4.254  11.004  15.966  0.00  0.00    +0.000 NA
ATOM     33  C   UNL     1      -4.418  11.406  17.256  0.00  0.00    +0.000 A 
ATOM     34  C   UNL     1      -3.468  11.118  18.247  0.00  0.00    +0.000 A 
BRANCH  33  35
ATOM     35  C   UNL     1      -5.663  12.200  17.631  0.00  0.00    +0.000 C 
ATOM     36  F   UNL     1      -5.604  12.803  18.853  0.00  0.00    +0.000 F 
ATOM     37  F   UNL     1      -5.932  13.200  16.738  0.00  0.00    +0.000 F 
ATOM     38  F   UNL     1      -6.786  11.425  17.654  0.00  0.00    +0.000 F 
ENDBRANCH  33  35
ENDBRANCH  27  29
ENDBRANCH  24  25
ENDBRANCH   6  24
TORSDOF 6
ENDMDL
MODEL 9
REMARK VINA RESULT:      -9.0      2.606      3.121
REMARK  Name = 
REMARK  7 active torsions:
REMARK  status: ('A' for Active; 'I' for Inactive)
REMARK    1  A    between atoms: C_1  and  O_2
REMARK    2  A    between atoms: O_2  and  C_3
REMARK    3  A    between atoms: C_5  and  N_6
REMARK    4  A    between atoms: C_21  and  C_22
REMARK    5  A    between atoms: C_22  and  C_23
REMARK    6  A    between atoms: N_25  and  C_26
REMARK    7  A    between atoms: C_30  and  C_31
REMARK                            x       y       z     vdW  Elec       q    Type
REMARK                         _______ _______ _______ _____ _____    ______ ____
ROOT
ATOM      1  C   UNL     1       1.656   8.497  20.123  0.00  0.00    +0.000 A 
ATOM      2  C   UNL     1       2.226   7.277  19.733  0.00  0.00    +0.000 A 
ATOM      3  C   UNL     1       2.561   7.023  18.402  0.00  0.00    +0.000 A 
ATOM      4  C   UNL     1       2.352   8.031  17.454  0.00  0.00    +0.000 A 
ATOM      5  C   UNL     1       1.838   9.273  17.843  0.00  0.00    +0.000 A 
ATOM      6  C   UNL     1       1.509   9.530  19.183  0.00  0.00    +0.000 A 
ENDROOT
BRANCH   3   7
ATOM      7  N   UNL     1       3.171   5.779  18.030  0.00  0.00    +0.000 N 
ATOM      8  C   UNL     1       2.633   4.543  18.318  0.00  0.00    +0.000 A 
ATOM      9  C   UNL     1       3.379   3.559  17.737  0.00  0.00    +0.000 A 
ATOM     10  C   UNL     1       4.451   4.155  17.088  0.00  0.00    +0.000 A 
ATOM     11  N   UNL     1       5.429   3.552  16.387  0.00  0.00    +0.000 NA
ATOM     12  C   UNL     1       6.324   4.404  15.896  0.00  0.00    +0.000 A 
ATOM     13  N   UNL     1       6.341   5.736  16.035  0.00  0.00    +0.000 NA
ATOM     14  C   UNL     1       5.364   6.337  16.739  0.00  0.00    +0.000 A 
ATOM     15  N   UNL     1       5.522   7.708  16.880  0.00  0.00    +0.000 N 
ATOM     16  C   UNL     1       4.343   5.545  17.277  0.00  0.00    +0.000 A 
ATOM     17  C   UNL     1       2.789   2.222  17.917  0.00  0.00    +0.000 C 
ATOM     18  C   UNL     1       1.335   2.584  18.357  0.00  0.00    +0.000 C 
ATOM     19  C   UNL     1       1.383   4.040  18.934  0.00  0.00    +0.000 C 
ATOM     20  H   UNL     1       6.453   7.954  16.553  0.00  0.00    +0.000 HD
ATOM     21  H   UNL     1       5.302   8.047  17.808  0.00  0.00    +0.000 HD
ENDBRANCH   3   7
BRANCH   1  23
ATOM     22  C   UNL     1       0.008   8.225  21.808  0.00  0.00    +0.000 C 
ATOM     23  O   UNL     1       1.276   8.760  21.415  0.00  0.00    +0.000 OA
ENDBRANCH   1  23
BRANCH   6  24
ATOM     24  C   UNL     1       0.995  10.905  19.562  0.00  0.00    +0.000 C 
BRANCH  24  25
ATOM     25  C   UNL     1      -0.528  11.003  19.635  0.00  0.00    +0.000 C 
ATOM     26  O   UNL     1      -1.229  10.160  19.080  0.00  0.00    +0.000 OA
ATOM     27  N   UNL     1      -0.994  12.079  20.378  0.00  0.00    +0.000 N 
ATOM     28  H   UNL     1      -0.304  12.774  20.640  0.00  0.00    +0.000 HD
BRANCH  27  29
ATOM     29  C   UNL     1      -2.343  12.350  20.719  0.00  0.00    +0.000 A 
ATOM     30  C   UNL     1      -3.356  12.492  19.777  0.00  0.00    +0.000 A 
ATOM     31  C   UNL     1      -4.649  12.735  20.216  0.00  0.00    +0.000 A 
ATOM     32  N   UNL     1      -4.992  12.851  21.513  0.00  0.00    +0.000 NA
ATOM     33  C   UNL     1      -4.005  12.712  22.440  0.00  0.00    +0.000 A 
ATOM     34  C   UNL     1      -2.677  12.452  22.073  0.00  0.00    +0.000 A 
BRANCH  33  35
ATOM     35  C   UNL     1      -4.350  12.853  23.917  0.00  0.00    +0.000 C 
ATOM     36  F   UNL     1      -3.835  13.964  24.516  0.00  0.00    +0.000 F 
ATOM     37  F   UNL     1      -5.699  12.909  24.134  0.00  0.00    +0.000 F 
ATOM     38  F   UNL     1      -3.910  11.795  24.658  0.00  0.00    +0.000 F 
ENDBRANCH  33  35
ENDBRANCH  27  29
ENDBRANCH  24  25
ENDBRANCH   6  24
TORSDOF 6
ENDMDL
