MODEL 1
REMARK VINA RESULT:      -8.8      0.000      0.000
REMARK  Name = 
REMARK  8 active torsions:
REMARK  status: ('A' for Active; 'I' for Inactive)
REMARK    1  A    between atoms: C_5  and  C_6
REMARK    2  A    between atoms: N_11  and  C_12
REMARK    3  A    between atoms: C_12  and  C_13
REMARK    4  A    between atoms: C_13  and  O_14
REMARK    5  A    between atoms: N_20  and  C_21
REMARK    6  A    between atoms: C_21  and  C_22
REMARK    7  A    between atoms: C_21  and  C_24
REMARK    8  A    between atoms: C_22  and  O_23
REMARK                            x       y       z     vdW  Elec       q    Type
REMARK                         _______ _______ _______ _____ _____    ______ ____
ROOT
ATOM      1  O   UNL     1       2.510   4.871  20.942  0.00  0.00    +0.000 OA
ATOM      2  C   UNL     1       2.621   5.523  19.922  0.00  0.00    +0.000 C 
ATOM      3  C   UNL     1       2.131   6.892  19.765  0.00  0.00    +0.000 A 
ATOM      4  C   UNL     1       1.447   7.661  20.688  0.00  0.00    +0.000 A 
ATOM      5  C   UNL     1       1.080   8.971  20.340  0.00  0.00    +0.000 A 
ATOM      6  C   UNL     1       1.408   9.427  19.035  0.00  0.00    +0.000 A 
ATOM      7  C   UNL     1       2.101   8.622  18.111  0.00  0.00    +0.000 A 
ATOM      8  C   UNL     1       2.461   7.345  18.495  0.00  0.00    +0.000 A 
ATOM      9  C   UNL     1       3.192   6.271  17.758  0.00  0.00    +0.000 C 
ATOM     10  N   UNL     1       3.204   5.176  18.718  0.00  0.00    +0.000 N 
ENDROOT
BRANCH   5  11
ATOM     11  C   UNL     1       0.381   9.835  21.317  0.00  0.00    +0.000 A 
ATOM     12  C   UNL     1      -0.147   9.320  22.487  0.00  0.00    +0.000 A 
ATOM     13  C   UNL     1      -0.822  10.200  23.290  0.00  0.00    +0.000 A 
ATOM     14  N   UNL     1      -0.978  11.496  22.988  0.00  0.00    +0.000 NA
ATOM     15  C   UNL     1      -0.433  11.923  21.841  0.00  0.00    +0.000 A 
ATOM     16  N   UNL     1      -0.556  13.252  21.489  0.00  0.00    +0.000 N 
ATOM     17  N   UNL     1       0.266  11.146  21.001  0.00  0.00    +0.000 NA
ATOM     18  H   UNL     1       0.095  13.482  20.752  0.00  0.00    +0.000 HD
BRANCH  16  19
ATOM     19  C   UNL     1      -0.730  14.223  22.564  0.00  0.00    +0.000 C 
BRANCH  19  20
ATOM     20  C   UNL     1       0.396  15.265  22.607  0.00  0.00    +0.000 C 
BRANCH  20  21
ATOM     21  O   UNL     1       1.656  14.658  22.321  0.00  0.00    +0.000 OA
ATOM     22  H   UNL     1       1.497  13.697  22.332  0.00  0.00    +0.000 HD
ENDBRANCH  20  21
ENDBRANCH  19  20
ENDBRANCH  16  19
ENDBRANCH   5  11
BRANCH  10  23
ATOM     23  C   UNL     1       3.830   3.887  18.433  0.00  0.00    +0.000 C 
BRANCH  23  24
ATOM     24  C   UNL     1       5.049   4.067  17.539  0.00  0.00    +0.000 A 
ATOM     25  C   UNL     1       6.259   4.518  18.097  0.00  0.00    +0.000 A 
ATOM     26  C   UNL     1       7.379   4.751  17.295  0.00  0.00    +0.000 A 
ATOM     27  C   UNL     1       7.309   4.539  15.919  0.00  0.00    +0.000 A 
ATOM     28  C   UNL     1       6.119   4.092  15.353  0.00  0.00    +0.000 A 
ATOM     29 CL   UNL     1       6.032   3.832  13.653  0.00  0.00    +0.000 Cl
ATOM     30  C   UNL     1       4.996   3.860  16.149  0.00  0.00    +0.000 A 
ENDBRANCH  23  24
BRANCH  23  31
ATOM     31  C   UNL     1       2.812   2.832  17.929  0.00  0.00    +0.000 C 
BRANCH  31  32
ATOM     32  O   UNL     1       1.615   3.452  17.443  0.00  0.00    +0.000 OA
ATOM     33  H   UNL     1       1.025   3.591  18.201  0.00  0.00    +0.000 HD
ENDBRANCH  31  32
ENDBRANCH  23  31
ENDBRANCH  10  23
TORSDOF 8
ENDMDL
MODEL 2
REMARK VINA RESULT:      -8.7      0.968      1.005
REMARK  Name = 
REMARK  8 active torsions:
REMARK  status: ('A' for Active; 'I' for Inactive)
REMARK    1  A    between atoms: C_5  and  C_6
REMARK    2  A    between atoms: N_11  and  C_12
REMARK    3  A    between atoms: C_12  and  C_13
REMARK    4  A    between atoms: C_13  and  O_14
REMARK    5  A    between atoms: N_20  and  C_21
REMARK    6  A    between atoms: C_21  and  C_22
REMARK    7  A    between atoms: C_21  and  C_24
REMARK    8  A    between atoms: C_22  and  O_23
REMARK                            x       y       z     vdW  Elec       q    Type
REMARK                         _______ _______ _______ _____ _____    ______ ____
ROOT
ATOM      1  O   UNL     1       2.392   4.942  20.983  0.00  0.00    +0.000 OA
ATOM      2  C   UNL     1       2.508   5.587  19.959  0.00  0.00    +0.000 C 
ATOM      3  C   UNL     1       2.040   6.963  19.798  0.00  0.00    +0.000 A 
ATOM      4  C   UNL     1       1.374   7.747  20.721  0.00  0.00    +0.000 A 
ATOM      5  C   UNL     1       1.027   9.062  20.369  0.00  0.00    +0.000 A 
ATOM      6  C   UNL     1       1.355   9.506  19.060  0.00  0.00    +0.000 A 
ATOM      7  C   UNL     1       2.028   8.685  18.135  0.00  0.00    +0.000 A 
ATOM      8  C   UNL     1       2.370   7.404  18.524  0.00  0.00    +0.000 A 
ATOM      9  C   UNL     1       3.078   6.314  17.788  0.00  0.00    +0.000 C 
ATOM     10  N   UNL     1       3.077   5.224  18.753  0.00  0.00    +0.000 N 
ENDROOT
BRANCH   5  11
ATOM     11  C   UNL     1       0.349   9.942  21.346  0.00  0.00    +0.000 A 
ATOM     12  C   UNL     1      -0.273   9.428  22.469  0.00  0.00    +0.000 A 
ATOM     13  C   UNL     1      -0.919  10.328  23.274  0.00  0.00    +0.000 A 
ATOM     14  N   UNL     1      -0.961  11.642  23.016  0.00  0.00    +0.000 NA
ATOM     15  C   UNL     1      -0.330  12.067  21.913  0.00  0.00    +0.000 A 
ATOM     16  N   UNL     1      -0.335  13.413  21.608  0.00  0.00    +0.000 N 
ATOM     17  N   UNL     1       0.348  11.269  21.077  0.00  0.00    +0.000 NA
ATOM     18  H   UNL     1       0.367  13.618  20.911  0.00  0.00    +0.000 HD
BRANCH  16  19
ATOM     19  C   UNL     1      -0.487  14.355  22.711  0.00  0.00    +0.000 C 
BRANCH  19  20
ATOM     20  C   UNL     1      -1.669  15.313  22.511  0.00  0.00    +0.000 C 
BRANCH  20  21
ATOM     21  O   UNL     1      -2.654  14.726  21.660  0.00  0.00    +0.000 OA
ATOM     22  H   UNL     1      -3.494  15.165  21.882  0.00  0.00    +0.000 HD
ENDBRANCH  20  21
ENDBRANCH  19  20
ENDBRANCH  16  19
ENDBRANCH   5  11
BRANCH  10  23
ATOM     23  C   UNL     1       3.680   3.923  18.471  0.00  0.00    +0.000 C 
BRANCH  23  24
ATOM     24  C   UNL     1       4.960   4.087  17.662  0.00  0.00    +0.000 A 
ATOM     25  C   UNL     1       6.132   4.532  18.300  0.00  0.00    +0.000 A 
ATOM     26  C   UNL     1       7.307   4.750  17.576  0.00  0.00    +0.000 A 
ATOM     27  C   UNL     1       7.330   4.530  16.200  0.00  0.00    +0.000 A 
ATOM     28  C   UNL     1       6.178   4.089  15.555  0.00  0.00    +0.000 A 
ATOM     29 CL   UNL     1       6.207   3.819  13.855  0.00  0.00    +0.000 Cl
ATOM     30  C   UNL     1       5.001   3.872  16.273  0.00  0.00    +0.000 A 
ENDBRANCH  23  24
BRANCH  23  31
ATOM     31  C   UNL     1       2.665   2.916  17.872  0.00  0.00    +0.000 C 
BRANCH  31  32
ATOM     32  O   UNL     1       3.016   1.565  18.196  0.00  0.00    +0.000 OA
ATOM     33  H   UNL     1       3.585   1.588  18.983  0.00  0.00    +0.000 HD
ENDBRANCH  31  32
ENDBRANCH  23  31
ENDBRANCH  10  23
TORSDOF 8
ENDMDL
MODEL 3
REMARK VINA RESULT:      -8.2      1.384      1.417
REMARK  Name = 
REMARK  8 active torsions:
REMARK  status: ('A' for Active; 'I' for Inactive)
REMARK    1  A    between atoms: C_5  and  C_6
REMARK    2  A    between atoms: N_11  and  C_12
REMARK    3  A    between atoms: C_12  and  C_13
REMARK    4  A    between atoms: C_13  and  O_14
REMARK    5  A    between atoms: N_20  and  C_21
REMARK    6  A    between atoms: C_21  and  C_22
REMARK    7  A    between atoms: C_21  and  C_24
REMARK    8  A    between atoms: C_22  and  O_23
REMARK                            x       y       z     vdW  Elec       q    Type
REMARK                         _______ _______ _______ _____ _____    ______ ____
ROOT
ATOM      1  O   UNL     1       1.941   5.619  20.944  0.00  0.00    +0.000 OA
ATOM      2  C   UNL     1       2.230   6.177  19.903  0.00  0.00    +0.000 C 
ATOM      3  C   UNL     1       1.857   7.553  19.577  0.00  0.00    +0.000 A 
ATOM      4  C   UNL     1       1.109   8.432  20.337  0.00  0.00    +0.000 A 
ATOM      5  C   UNL     1       0.879   9.728  19.844  0.00  0.00    +0.000 A 
ATOM      6  C   UNL     1       1.408  10.054  18.566  0.00  0.00    +0.000 A 
ATOM      7  C   UNL     1       2.162   9.138  17.809  0.00  0.00    +0.000 A 
ATOM      8  C   UNL     1       2.382   7.878  18.335  0.00  0.00    +0.000 A 
ATOM      9  C   UNL     1       3.132   6.707  17.788  0.00  0.00    +0.000 C 
ATOM     10  N   UNL     1       2.943   5.698  18.820  0.00  0.00    +0.000 N 
ENDROOT
BRANCH   5  11
ATOM     11  C   UNL     1       0.116  10.708  20.648  0.00  0.00    +0.000 A 
ATOM     12  C   UNL     1      -0.092  10.523  22.003  0.00  0.00    +0.000 A 
ATOM     13  C   UNL     1      -0.862  11.463  22.635  0.00  0.00    +0.000 A 
ATOM     14  N   UNL     1      -1.396  12.517  22.003  0.00  0.00    +0.000 NA
ATOM     15  C   UNL     1      -1.145  12.633  20.692  0.00  0.00    +0.000 A 
ATOM     16  N   UNL     1      -1.664  13.706  19.998  0.00  0.00    +0.000 N 
ATOM     17  N   UNL     1      -0.386  11.779  19.991  0.00  0.00    +0.000 NA
ATOM     18  H   UNL     1      -1.204  13.802  19.104  0.00  0.00    +0.000 HD
BRANCH  16  19
ATOM     19  C   UNL     1      -1.941  14.926  20.748  0.00  0.00    +0.000 C 
BRANCH  19  20
ATOM     20  C   UNL     1      -1.341  16.175  20.089  0.00  0.00    +0.000 C 
BRANCH  20  21
ATOM     21  O   UNL     1      -0.887  15.878  18.768  0.00  0.00    +0.000 OA
ATOM     22  H   UNL     1       0.062  15.678  18.852  0.00  0.00    +0.000 HD
ENDBRANCH  20  21
ENDBRANCH  19  20
ENDBRANCH  16  19
ENDBRANCH   5  11
BRANCH  10  23
ATOM     23  C   UNL     1       3.514   4.356  18.722  0.00  0.00    +0.000 C 
BRANCH  23  24
ATOM     24  C   UNL     1       4.832   4.387  17.959  0.00  0.00    +0.000 A 
ATOM     25  C   UNL     1       6.005   4.799  18.617  0.00  0.00    +0.000 A 
ATOM     26  C   UNL     1       7.219   4.896  17.931  0.00  0.00    +0.000 A 
ATOM     27  C   UNL     1       7.280   4.586  16.574  0.00  0.00    +0.000 A 
ATOM     28  C   UNL     1       6.128   4.176  15.910  0.00  0.00    +0.000 A 
ATOM     29 CL   UNL     1       6.204   3.794  14.233  0.00  0.00    +0.000 Cl
ATOM     30  C   UNL     1       4.912   4.080  16.590  0.00  0.00    +0.000 A 
ENDBRANCH  23  24
BRANCH  23  31
ATOM     31  C   UNL     1       2.493   3.314  18.201  0.00  0.00    +0.000 C 
BRANCH  31  32
ATOM     32  O   UNL     1       1.456   3.937  17.433  0.00  0.00    +0.000 OA
ATOM     33  H   UNL     1       0.669   4.006  17.999  0.00  0.00    +0.000 HD
ENDBRANCH  31  32
ENDBRANCH  23  31
ENDBRANCH  10  23
TORSDOF 8
ENDMDL
MODEL 4
REMARK VINA RESULT:      -8.1      1.991      2.470
REMARK  Name = 
REMARK  8 active torsions:
REMARK  status: ('A' for Active; 'I' for Inactive)
REMARK    1  A    between atoms: C_5  and  C_6
REMARK    2  A    between atoms: N_11  and  C_12
REMARK    3  A    between atoms: C_12  and  C_13
REMARK    4  A    between atoms: C_13  and  O_14
REMARK    5  A    between atoms: N_20  and  C_21
REMARK    6  A    between atoms: C_21  and  C_22
REMARK    7  A    between atoms: C_21  and  C_24
REMARK    8  A    between atoms: C_22  and  O_23
REMARK                            x       y       z     vdW  Elec       q    Type
REMARK                         _______ _______ _______ _____ _____    ______ ____
ROOT
ATOM      1  O   UNL     1       1.754   6.287  21.104  0.00  0.00    +0.000 OA
ATOM      2  C   UNL     1       1.962   6.795  20.020  0.00  0.00    +0.000 C 
ATOM      3  C   UNL     1       1.673   8.192  19.698  0.00  0.00    +0.000 A 
ATOM      4  C   UNL     1       1.101   9.150  20.514  0.00  0.00    +0.000 A 
ATOM      5  C   UNL     1       0.926  10.451  20.012  0.00  0.00    +0.000 A 
ATOM      6  C   UNL     1       1.323  10.702  18.671  0.00  0.00    +0.000 A 
ATOM      7  C   UNL     1       1.899   9.708  17.859  0.00  0.00    +0.000 A 
ATOM      8  C   UNL     1       2.072   8.444  18.393  0.00  0.00    +0.000 A 
ATOM      9  C   UNL     1       2.646   7.201  17.798  0.00  0.00    +0.000 C 
ATOM     10  N   UNL     1       2.496   6.233  18.876  0.00  0.00    +0.000 N 
ENDROOT
BRANCH   5  11
ATOM     11  C   UNL     1       0.352  11.511  20.870  0.00  0.00    +0.000 A 
ATOM     12  C   UNL     1       0.898  12.780  20.910  0.00  0.00    +0.000 A 
ATOM     13  C   UNL     1       0.321  13.664  21.783  0.00  0.00    +0.000 A 
ATOM     14  N   UNL     1      -0.719  13.347  22.566  0.00  0.00    +0.000 NA
ATOM     15  C   UNL     1      -1.197  12.100  22.468  0.00  0.00    +0.000 A 
ATOM     16  N   UNL     1      -2.274  11.726  23.245  0.00  0.00    +0.000 N 
ATOM     17  N   UNL     1      -0.717  11.171  21.628  0.00  0.00    +0.000 NA
ATOM     18  H   UNL     1      -2.676  10.867  22.899  0.00  0.00    +0.000 HD
BRANCH  16  19
ATOM     19  C   UNL     1      -3.190  12.774  23.680  0.00  0.00    +0.000 C 
BRANCH  19  20
ATOM     20  C   UNL     1      -4.434  12.217  24.386  0.00  0.00    +0.000 C 
BRANCH  20  21
ATOM     21  O   UNL     1      -4.432  12.576  25.767  0.00  0.00    +0.000 OA
ATOM     22  H   UNL     1      -4.810  11.814  26.241  0.00  0.00    +0.000 HD
ENDBRANCH  20  21
ENDBRANCH  19  20
ENDBRANCH  16  19
ENDBRANCH   5  11
BRANCH  10  23
ATOM     23  C   UNL     1       2.934   4.844  18.752  0.00  0.00    +0.000 C 
BRANCH  23  24
ATOM     24  C   UNL     1       4.360   4.775  18.221  0.00  0.00    +0.000 A 
ATOM     25  C   UNL     1       5.422   5.226  19.025  0.00  0.00    +0.000 A 
ATOM     26  C   UNL     1       6.735   5.232  18.546  0.00  0.00    +0.000 A 
ATOM     27  C   UNL     1       7.008   4.789  17.254  0.00  0.00    +0.000 A 
ATOM     28  C   UNL     1       5.968   4.339  16.447  0.00  0.00    +0.000 A 
ATOM     29 CL   UNL     1       6.306   3.794  14.849  0.00  0.00    +0.000 Cl
ATOM     30  C   UNL     1       4.654   4.333  16.920  0.00  0.00    +0.000 A 
ENDBRANCH  23  24
BRANCH  23  31
ATOM     31  C   UNL     1       1.916   3.968  17.979  0.00  0.00    +0.000 C 
BRANCH  31  32
ATOM     32  O   UNL     1       1.296   3.004  18.839  0.00  0.00    +0.000 OA
ATOM     33  H   UNL     1       0.921   2.306  18.278  0.00  0.00    +0.000 HD
ENDBRANCH  31  32
ENDBRANCH  23  31
ENDBRANCH  10  23
TORSDOF 8
ENDMDL
MODEL 5
REMARK VINA RESULT:      -8.1      1.435      1.691
REMARK  Name = 
REMARK  8 active torsions:
REMARK  status: ('A' for Active; 'I' for Inactive)
REMARK    1  A    between atoms: C_5  and  C_6
REMARK    2  A    between atoms: N_11  and  C_12
REMARK    3  A    between atoms: C_12  and  C_13
REMARK    4  A    between atoms: C_13  and  O_14
REMARK    5  A    between atoms: N_20  and  C_21
REMARK    6  A    between atoms: C_21  and  C_22
REMARK    7  A    between atoms: C_21  and  C_24
REMARK    8  A    between atoms: C_22  and  O_23
REMARK                            x       y       z     vdW  Elec       q    Type
REMARK                         _______ _______ _______ _____ _____    ______ ____
ROOT
ATOM      1  O   UNL     1       2.039   5.509  20.874  0.00  0.00    +0.000 OA
ATOM      2  C   UNL     1       2.189   6.167  19.863  0.00  0.00    +0.000 C 
ATOM      3  C   UNL     1       1.781   7.565  19.724  0.00  0.00    +0.000 A 
ATOM      4  C   UNL     1       1.142   8.359  20.657  0.00  0.00    +0.000 A 
ATOM      5  C   UNL     1       0.853   9.694  20.326  0.00  0.00    +0.000 A 
ATOM      6  C   UNL     1       1.210  10.147  19.027  0.00  0.00    +0.000 A 
ATOM      7  C   UNL     1       1.855   9.315  18.093  0.00  0.00    +0.000 A 
ATOM      8  C   UNL     1       2.139   8.013  18.461  0.00  0.00    +0.000 A 
ATOM      9  C   UNL     1       2.806   6.908  17.709  0.00  0.00    +0.000 C 
ATOM     10  N   UNL     1       2.752   5.802  18.655  0.00  0.00    +0.000 N 
ENDROOT
BRANCH   5  11
ATOM     11  C   UNL     1       0.205  10.585  21.314  0.00  0.00    +0.000 A 
ATOM     12  C   UNL     1      -0.494  10.076  22.393  0.00  0.00    +0.000 A 
ATOM     13  C   UNL     1      -1.101  10.991  23.212  0.00  0.00    +0.000 A 
ATOM     14  N   UNL     1      -1.037  12.313  23.006  0.00  0.00    +0.000 NA
ATOM     15  C   UNL     1      -0.336  12.731  21.944  0.00  0.00    +0.000 A 
ATOM     16  N   UNL     1      -0.230  14.084  21.694  0.00  0.00    +0.000 N 
ATOM     17  N   UNL     1       0.313  11.917  21.099  0.00  0.00    +0.000 NA
ATOM     18  H   UNL     1       0.510  14.262  21.031  0.00  0.00    +0.000 HD
BRANCH  16  19
ATOM     19  C   UNL     1      -0.354  14.993  22.829  0.00  0.00    +0.000 C 
BRANCH  19  20
ATOM     20  C   UNL     1       0.679  16.127  22.793  0.00  0.00    +0.000 C 
BRANCH  20  21
ATOM     21  O   UNL     1       2.006  15.600  22.781  0.00  0.00    +0.000 OA
ATOM     22  H   UNL     1       1.913  14.642  22.932  0.00  0.00    +0.000 HD
ENDBRANCH  20  21
ENDBRANCH  19  20
ENDBRANCH  16  19
ENDBRANCH   5  11
BRANCH  10  23
ATOM     23  C   UNL     1       3.301   4.482  18.353  0.00  0.00    +0.000 C 
BRANCH  23  24
ATOM     24  C   UNL     1       4.749   4.594  17.892  0.00  0.00    +0.000 A 
ATOM     25  C   UNL     1       5.099   4.169  16.598  0.00  0.00    +0.000 A 
ATOM     26  C   UNL     1       6.427   4.202  16.164  0.00  0.00    +0.000 A 
ATOM     27  C   UNL     1       7.428   4.659  17.018  0.00  0.00    +0.000 A 
ATOM     28  C   UNL     1       7.097   5.084  18.301  0.00  0.00    +0.000 A 
ATOM     29 CL   UNL     1       8.335   5.647  19.357  0.00  0.00    +0.000 Cl
ATOM     30  C   UNL     1       5.772   5.050  18.740  0.00  0.00    +0.000 A 
ENDBRANCH  23  24
BRANCH  23  31
ATOM     31  C   UNL     1       2.387   3.660  17.409  0.00  0.00    +0.000 C 
BRANCH  31  32
ATOM     32  O   UNL     1       2.370   2.275  17.774  0.00  0.00    +0.000 OA
ATOM     33  H   UNL     1       2.489   1.754  16.962  0.00  0.00    +0.000 HD
ENDBRANCH  31  32
ENDBRANCH  23  31
ENDBRANCH  10  23
TORSDOF 8
ENDMDL
MODEL 6
REMARK VINA RESULT:      -8.1      2.376      2.942
REMARK  Name = 
REMARK  8 active torsions:
REMARK  status: ('A' for Active; 'I' for Inactive)
REMARK    1  A    between atoms: C_5  and  C_6
REMARK    2  A    between atoms: N_11  and  C_12
REMARK    3  A    between atoms: C_12  and  C_13
REMARK    4  A    between atoms: C_13  and  O_14
REMARK    5  A    between atoms: N_20  and  C_21
REMARK    6  A    between atoms: C_21  and  C_22
REMARK    7  A    between atoms: C_21  and  C_24
REMARK    8  A    between atoms: C_22  and  O_23
REMARK                            x       y       z     vdW  Elec       q    Type
REMARK                         _______ _______ _______ _____ _____    ______ ____
ROOT
ATOM      1  O   UNL     1       1.633   6.372  21.044  0.00  0.00    +0.000 OA
ATOM      2  C   UNL     1       1.876   6.910  19.981  0.00  0.00    +0.000 C 
ATOM      3  C   UNL     1       1.605   8.317  19.691  0.00  0.00    +0.000 A 
ATOM      4  C   UNL     1       1.013   9.255  20.516  0.00  0.00    +0.000 A 
ATOM      5  C   UNL     1       0.861  10.571  20.046  0.00  0.00    +0.000 A 
ATOM      6  C   UNL     1       1.299  10.858  18.726  0.00  0.00    +0.000 A 
ATOM      7  C   UNL     1       1.894   9.882  17.903  0.00  0.00    +0.000 A 
ATOM      8  C   UNL     1       2.043   8.604  18.407  0.00  0.00    +0.000 A 
ATOM      9  C   UNL     1       2.628   7.373  17.793  0.00  0.00    +0.000 C 
ATOM     10  N   UNL     1       2.441   6.377  18.838  0.00  0.00    +0.000 N 
ENDROOT
BRANCH   5  11
ATOM     11  C   UNL     1       0.267  11.610  20.917  0.00  0.00    +0.000 A 
ATOM     12  C   UNL     1       0.801  12.883  20.987  0.00  0.00    +0.000 A 
ATOM     13  C   UNL     1       0.206  13.747  21.868  0.00  0.00    +0.000 A 
ATOM     14  N   UNL     1      -0.839  13.405  22.634  0.00  0.00    +0.000 NA
ATOM     15  C   UNL     1      -1.305  12.156  22.507  0.00  0.00    +0.000 A 
ATOM     16  N   UNL     1      -2.387  11.758  23.265  0.00  0.00    +0.000 N 
ATOM     17  N   UNL     1      -0.807  11.247  21.656  0.00  0.00    +0.000 NA
ATOM     18  H   UNL     1      -2.778  10.902  22.898  0.00  0.00    +0.000 HD
BRANCH  16  19
ATOM     19  C   UNL     1      -3.318  12.791  23.708  0.00  0.00    +0.000 C 
BRANCH  19  20
ATOM     20  C   UNL     1      -4.351  12.263  24.713  0.00  0.00    +0.000 C 
BRANCH  20  21
ATOM     21  O   UNL     1      -5.647  12.202  24.117  0.00  0.00    +0.000 OA
ATOM     22  H   UNL     1      -5.823  13.094  23.769  0.00  0.00    +0.000 HD
ENDBRANCH  20  21
ENDBRANCH  19  20
ENDBRANCH  16  19
ENDBRANCH   5  11
BRANCH  10  23
ATOM     23  C   UNL     1       2.874   4.989  18.689  0.00  0.00    +0.000 C 
BRANCH  23  24
ATOM     24  C   UNL     1       4.296   4.925  18.146  0.00  0.00    +0.000 A 
ATOM     25  C   UNL     1       4.528   4.380  16.870  0.00  0.00    +0.000 A 
ATOM     26  C   UNL     1       5.825   4.252  16.367  0.00  0.00    +0.000 A 
ATOM     27  C   UNL     1       6.914   4.664  17.133  0.00  0.00    +0.000 A 
ATOM     28  C   UNL     1       6.701   5.206  18.396  0.00  0.00    +0.000 A 
ATOM     29 CL   UNL     1       8.047   5.714  19.342  0.00  0.00    +0.000 Cl
ATOM     30  C   UNL     1       5.406   5.335  18.904  0.00  0.00    +0.000 A 
ENDBRANCH  23  24
BRANCH  23  31
ATOM     31  C   UNL     1       1.848   4.129  17.908  0.00  0.00    +0.000 C 
BRANCH  31  32
ATOM     32  O   UNL     1       1.684   2.838  18.510  0.00  0.00    +0.000 OA
ATOM     33  H   UNL     1       0.745   2.599  18.444  0.00  0.00    +0.000 HD
ENDBRANCH  31  32
ENDBRANCH  23  31
ENDBRANCH  10  23
TORSDOF 8
ENDMDL
MODEL 7
REMARK VINA RESULT:      -7.8      2.531      3.109
REMARK  Name = 
REMARK  8 active torsions:
REMARK  status: ('A' for Active; 'I' for Inactive)
REMARK    1  A    between atoms: C_5  and  C_6
REMARK    2  A    between atoms: N_11  and  C_12
REMARK    3  A    between atoms: C_12  and  C_13
REMARK    4  A    between atoms: C_13  and  O_14
REMARK    5  A    between atoms: N_20  and  C_21
REMARK    6  A    between atoms: C_21  and  C_22
REMARK    7  A    between atoms: C_21  and  C_24
REMARK    8  A    between atoms: C_22  and  O_23
REMARK                            x       y       z     vdW  Elec       q    Type
REMARK                         _______ _______ _______ _____ _____    ______ ____
ROOT
ATOM      1  O   UNL     1       3.255   6.532  17.097  0.00  0.00    +0.000 OA
ATOM      2  C   UNL     1       2.844   6.358  18.228  0.00  0.00    +0.000 C 
ATOM      3  C   UNL     1       2.182   7.388  19.028  0.00  0.00    +0.000 A 
ATOM      4  C   UNL     1       1.940   8.705  18.686  0.00  0.00    +0.000 A 
ATOM      5  C   UNL     1       1.267   9.531  19.601  0.00  0.00    +0.000 A 
ATOM      6  C   UNL     1       0.895   8.968  20.852  0.00  0.00    +0.000 A 
ATOM      7  C   UNL     1       1.159   7.625  21.179  0.00  0.00    +0.000 A 
ATOM      8  C   UNL     1       1.807   6.838  20.246  0.00  0.00    +0.000 A 
ATOM      9  C   UNL     1       2.218   5.403  20.292  0.00  0.00    +0.000 C 
ATOM     10  N   UNL     1       2.882   5.219  19.010  0.00  0.00    +0.000 N 
ENDROOT
BRANCH   5  11
ATOM     11  C   UNL     1       0.957  10.935  19.252  0.00  0.00    +0.000 A 
ATOM     12  C   UNL     1      -0.321  11.447  19.388  0.00  0.00    +0.000 A 
ATOM     13  C   UNL     1      -0.505  12.741  18.980  0.00  0.00    +0.000 A 
ATOM     14  N   UNL     1       0.480  13.497  18.476  0.00  0.00    +0.000 NA
ATOM     15  C   UNL     1       1.692  12.934  18.380  0.00  0.00    +0.000 A 
ATOM     16  N   UNL     1       2.742  13.674  17.877  0.00  0.00    +0.000 N 
ATOM     17  N   UNL     1       1.977  11.685  18.774  0.00  0.00    +0.000 NA
ATOM     18  H   UNL     1       3.621  13.225  18.089  0.00  0.00    +0.000 HD
BRANCH  16  19
ATOM     19  C   UNL     1       2.673  15.125  18.013  0.00  0.00    +0.000 C 
BRANCH  19  20
ATOM     20  C   UNL     1       4.026  15.806  17.768  0.00  0.00    +0.000 C 
BRANCH  20  21
ATOM     21  O   UNL     1       5.031  14.837  17.470  0.00  0.00    +0.000 OA
ATOM     22  H   UNL     1       4.555  14.045  17.162  0.00  0.00    +0.000 HD
ENDBRANCH  20  21
ENDBRANCH  19  20
ENDBRANCH  16  19
ENDBRANCH   5  11
BRANCH  10  23
ATOM     23  C   UNL     1       3.457   3.941  18.597  0.00  0.00    +0.000 C 
BRANCH  23  24
ATOM     24  C   UNL     1       4.800   4.151  17.910  0.00  0.00    +0.000 A 
ATOM     25  C   UNL     1       5.881   4.670  18.644  0.00  0.00    +0.000 A 
ATOM     26  C   UNL     1       7.109   4.931  18.030  0.00  0.00    +0.000 A 
ATOM     27  C   UNL     1       7.276   4.680  16.670  0.00  0.00    +0.000 A 
ATOM     28  C   UNL     1       6.215   4.166  15.930  0.00  0.00    +0.000 A 
ATOM     29 CL   UNL     1       6.421   3.858  14.249  0.00  0.00    +0.000 Cl
ATOM     30  C   UNL     1       4.985   3.905  16.538  0.00  0.00    +0.000 A 
ENDBRANCH  23  24
BRANCH  23  31
ATOM     31  C   UNL     1       2.454   3.071  17.798  0.00  0.00    +0.000 C 
BRANCH  31  32
ATOM     32  O   UNL     1       2.592   1.682  18.123  0.00  0.00    +0.000 OA
ATOM     33  H   UNL     1       2.292   1.167  17.356  0.00  0.00    +0.000 HD
ENDBRANCH  31  32
ENDBRANCH  23  31
ENDBRANCH  10  23
TORSDOF 8
ENDMDL
MODEL 8
REMARK VINA RESULT:      -7.8      4.180      9.865
REMARK  Name = 
REMARK  8 active torsions:
REMARK  status: ('A' for Active; 'I' for Inactive)
REMARK    1  A    between atoms: C_5  and  C_6
REMARK    2  A    between atoms: N_11  and  C_12
REMARK    3  A    between atoms: C_12  and  C_13
REMARK    4  A    between atoms: C_13  and  O_14
REMARK    5  A    between atoms: N_20  and  C_21
REMARK    6  A    between atoms: C_21  and  C_22
REMARK    7  A    between atoms: C_21  and  C_24
REMARK    8  A    between atoms: C_22  and  O_23
REMARK                            x       y       z     vdW  Elec       q    Type
REMARK                         _______ _______ _______ _____ _____    ______ ____
ROOT
ATOM      1  O   UNL     1       2.295  10.171  17.358  0.00  0.00    +0.000 OA
ATOM      2  C   UNL     1       1.996   9.402  18.251  0.00  0.00    +0.000 C 
ATOM      3  C   UNL     1       2.606   8.086  18.442  0.00  0.00    +0.000 A 
ATOM      4  C   UNL     1       3.567   7.475  17.659  0.00  0.00    +0.000 A 
ATOM      5  C   UNL     1       4.037   6.204  18.031  0.00  0.00    +0.000 A 
ATOM      6  C   UNL     1       3.469   5.600  19.184  0.00  0.00    +0.000 A 
ATOM      7  C   UNL     1       2.485   6.241  19.961  0.00  0.00    +0.000 A 
ATOM      8  C   UNL     1       2.062   7.498  19.574  0.00  0.00    +0.000 A 
ATOM      9  C   UNL     1       1.055   8.421  20.180  0.00  0.00    +0.000 C 
ATOM     10  N   UNL     1       1.066   9.552  19.263  0.00  0.00    +0.000 N 
ENDROOT
BRANCH   5  11
ATOM     11  C   UNL     1       5.094   5.538  17.239  0.00  0.00    +0.000 A 
ATOM     12  C   UNL     1       6.295   5.162  17.811  0.00  0.00    +0.000 A 
ATOM     13  C   UNL     1       7.223   4.605  16.971  0.00  0.00    +0.000 A 
ATOM     14  N   UNL     1       7.007   4.420  15.662  0.00  0.00    +0.000 NA
ATOM     15  C   UNL     1       5.817   4.804  15.181  0.00  0.00    +0.000 A 
ATOM     16  N   UNL     1       5.541   4.625  13.841  0.00  0.00    +0.000 N 
ATOM     17  N   UNL     1       4.837   5.335  15.925  0.00  0.00    +0.000 NA
ATOM     18  H   UNL     1       4.550   4.723  13.670  0.00  0.00    +0.000 HD
BRANCH  16  19
ATOM     19  C   UNL     1       6.245   3.555  13.142  0.00  0.00    +0.000 C 
BRANCH  19  20
ATOM     20  C   UNL     1       5.357   2.831  12.122  0.00  0.00    +0.000 C 
BRANCH  20  21
ATOM     21  O   UNL     1       4.418   3.736  11.540  0.00  0.00    +0.000 OA
ATOM     22  H   UNL     1       4.241   4.410  12.220  0.00  0.00    +0.000 HD
ENDBRANCH  20  21
ENDBRANCH  19  20
ENDBRANCH  16  19
ENDBRANCH   5  11
BRANCH  10  23
ATOM     23  C   UNL     1       0.224  10.730  19.457  0.00  0.00    +0.000 C 
BRANCH  23  24
ATOM     24  C   UNL     1      -1.066  10.607  18.657  0.00  0.00    +0.000 A 
ATOM     25  C   UNL     1      -1.094   9.799  17.506  0.00  0.00    +0.000 A 
ATOM     26  C   UNL     1      -2.244   9.711  16.717  0.00  0.00    +0.000 A 
ATOM     27  C   UNL     1      -3.386  10.431  17.064  0.00  0.00    +0.000 A 
ATOM     28  C   UNL     1      -3.373  11.233  18.200  0.00  0.00    +0.000 A 
ATOM     29 CL   UNL     1      -4.783  12.124  18.628  0.00  0.00    +0.000 Cl
ATOM     30  C   UNL     1      -2.226  11.327  18.991  0.00  0.00    +0.000 A 
ENDBRANCH  23  24
BRANCH  23  31
ATOM     31  C   UNL     1       0.997  12.055  19.231  0.00  0.00    +0.000 C 
BRANCH  31  32
ATOM     32  O   UNL     1       0.719  12.607  17.938  0.00  0.00    +0.000 OA
ATOM     33  H   UNL     1       1.568  12.836  17.526  0.00  0.00    +0.000 HD
ENDBRANCH  31  32
ENDBRANCH  23  31
ENDBRANCH  10  23
TORSDOF 8
ENDMDL
MODEL 9
REMARK VINA RESULT:      -7.8      2.810      3.450
REMARK  Name = 
REMARK  8 active torsions:
REMARK  status: ('A' for Active; 'I' for Inactive)
REMARK    1  A    between atoms: C_5  and  C_6
REMARK    2  A    between atoms: N_11  and  C_12
REMARK    3  A    between atoms: C_12  and  C_13
REMARK    4  A    between atoms: C_13  and  O_14
REMARK    5  A    between atoms: N_20  and  C_21
REMARK    6  A    between atoms: C_21  and  C_22
REMARK    7  A    between atoms: C_21  and  C_24
REMARK    8  A    between atoms: C_22  and  O_23
REMARK                            x       y       z     vdW  Elec       q    Type
REMARK                         _______ _______ _______ _____ _____    ______ ____
ROOT
ATOM      1  O   UNL     1       3.033   6.865  17.336  0.00  0.00    +0.000 OA
ATOM      2  C   UNL     1       2.610   6.725  18.467  0.00  0.00    +0.000 C 
ATOM      3  C   UNL     1       1.931   7.775  19.226  0.00  0.00    +0.000 A 
ATOM      4  C   UNL     1       1.684   9.078  18.839  0.00  0.00    +0.000 A 
ATOM      5  C   UNL     1       0.994   9.928  19.719  0.00  0.00    +0.000 A 
ATOM      6  C   UNL     1       0.613   9.404  20.983  0.00  0.00    +0.000 A 
ATOM      7  C   UNL     1       0.882   8.074  21.357  0.00  0.00    +0.000 A 
ATOM      8  C   UNL     1       1.547   7.262  20.457  0.00  0.00    +0.000 A 
ATOM      9  C   UNL     1       1.967   5.832  20.554  0.00  0.00    +0.000 C 
ATOM     10  N   UNL     1       2.647   5.613  19.286  0.00  0.00    +0.000 N 
ENDROOT
BRANCH   5  11
ATOM     11  C   UNL     1       0.678  11.318  19.321  0.00  0.00    +0.000 A 
ATOM     12  C   UNL     1      -0.629  11.760  19.222  0.00  0.00    +0.000 A 
ATOM     13  C   UNL     1      -0.805  13.048  18.789  0.00  0.00    +0.000 A 
ATOM     14  N   UNL     1       0.213  13.860  18.475  0.00  0.00    +0.000 NA
ATOM     15  C   UNL     1       1.451  13.363  18.602  0.00  0.00    +0.000 A 
ATOM     16  N   UNL     1       2.534  14.163  18.301  0.00  0.00    +0.000 N 
ATOM     17  N   UNL     1       1.726  12.126  19.039  0.00  0.00    +0.000 NA
ATOM     18  H   UNL     1       3.383  13.759  18.669  0.00  0.00    +0.000 HD
BRANCH  16  19
ATOM     19  C   UNL     1       2.363  15.607  18.424  0.00  0.00    +0.000 C 
BRANCH  19  20
ATOM     20  C   UNL     1       3.282  16.393  17.480  0.00  0.00    +0.000 C 
BRANCH  20  21
ATOM     21  O   UNL     1       2.643  17.591  17.038  0.00  0.00    +0.000 OA
ATOM     22  H   UNL     1       3.209  17.950  16.332  0.00  0.00    +0.000 HD
ENDBRANCH  20  21
ENDBRANCH  19  20
ENDBRANCH  16  19
ENDBRANCH   5  11
BRANCH  10  23
ATOM     23  C   UNL     1       3.236   4.326  18.921  0.00  0.00    +0.000 C 
BRANCH  23  24
ATOM     24  C   UNL     1       4.602   4.522  18.276  0.00  0.00    +0.000 A 
ATOM     25  C   UNL     1       4.835   4.025  16.981  0.00  0.00    +0.000 A 
ATOM     26  C   UNL     1       6.093   4.135  16.384  0.00  0.00    +0.000 A 
ATOM     27  C   UNL     1       7.142   4.743  17.072  0.00  0.00    +0.000 A 
ATOM     28  C   UNL     1       6.926   5.240  18.354  0.00  0.00    +0.000 A 
ATOM     29 CL   UNL     1       8.222   5.989  19.204  0.00  0.00    +0.000 Cl
ATOM     30  C   UNL     1       5.671   5.130  18.956  0.00  0.00    +0.000 A 
ENDBRANCH  23  24
BRANCH  23  31
ATOM     31  C   UNL     1       2.261   3.438  18.107  0.00  0.00    +0.000 C 
BRANCH  31  32
ATOM     32  O   UNL     1       1.315   4.231  17.380  0.00  0.00    +0.000 OA
ATOM     33  H   UNL     1       1.075   3.742  16.576  0.00  0.00    +0.000 HD
ENDBRANCH  31  32
ENDBRANCH  23  31
ENDBRANCH  10  23
TORSDOF 8
ENDMDL
