MODEL 1
REMARK VINA RESULT:      -7.3      0.000      0.000
REMARK  Name = 
REMARK  3 active torsions:
REMARK  status: ('A' for Active; 'I' for Inactive)
REMARK    1  A    between atoms: S_2  and  C_4
REMARK    2  A    between atoms: S_2  and  N_14
REMARK    3  A    between atoms: C_9  and  O_10
REMARK                            x       y       z     vdW  Elec       q    Type
REMARK                         _______ _______ _______ _____ _____    ______ ____
ROOT
ATOM      1  C   UNL     1       5.562   5.321  17.324  0.00  0.00    +0.000 A 
ATOM      2  C   UNL     1       4.627   6.339  17.127  0.00  0.00    +0.000 A 
ATOM      3  C   UNL     1       3.366   6.258  17.731  0.00  0.00    +0.000 A 
ATOM      4  C   UNL     1       3.033   5.132  18.515  0.00  0.00    +0.000 A 
ATOM      5  N   UNL     1       1.821   4.920  19.153  0.00  0.00    +0.000 NA
ATOM      6  C   UNL     1       1.865   3.768  19.765  0.00  0.00    +0.000 A 
ATOM      7  S   UNL     1       3.305   2.875  19.661  0.00  0.00    +0.000 S 
ATOM      8  C   UNL     1       3.982   4.118  18.675  0.00  0.00    +0.000 A 
ATOM      9  C   UNL     1       5.255   4.184  18.085  0.00  0.00    +0.000 A 
ENDROOT
BRANCH   1  11
ATOM     10  O   UNL     1       7.567   6.810  16.563  0.00  0.00    +0.000 OA
ATOM     11  S   UNL     1       7.155   5.423  16.522  0.00  0.00    +0.000 S 
ATOM     12  O   UNL     1       7.986   4.379  17.080  0.00  0.00    +0.000 OA
BRANCH  11  13
ATOM     13  N   UNL     1       6.801   5.023  14.894  0.00  0.00    +0.000 NA
ATOM     14  C   UNL     1       7.928   5.162  13.938  0.00  0.00    +0.000 C 
ATOM     15  C   UNL     1       7.423   5.079  12.500  0.00  0.00    +0.000 C 
ATOM     16  C   UNL     1       6.642   3.792  12.269  0.00  0.00    +0.000 C 
ATOM     17  C   UNL     1       5.493   3.694  13.265  0.00  0.00    +0.000 C 
ATOM     18  C   UNL     1       5.998   3.787  14.701  0.00  0.00    +0.000 C 
ENDBRANCH  11  13
ENDBRANCH   1  11
BRANCH   6  19
ATOM     19  O   UNL     1       0.803   3.349  20.427  0.00  0.00    +0.000 OA
ATOM     20  H   UNL     1       1.167   2.582  20.902  0.00  0.00    +0.000 HD
ENDBRANCH   6  19
TORSDOF 3
ENDMDL
MODEL 2
REMARK VINA RESULT:      -7.1      2.281      6.654
REMARK  Name = 
REMARK  3 active torsions:
REMARK  status: ('A' for Active; 'I' for Inactive)
REMARK    1  A    between atoms: S_2  and  C_4
REMARK    2  A    between atoms: S_2  and  N_14
REMARK    3  A    between atoms: C_9  and  O_10
REMARK                            x       y       z     vdW  Elec       q    Type
REMARK                         _______ _______ _______ _____ _____    ______ ____
ROOT
ATOM      1  C   UNL     1       5.276   3.715  17.770  0.00  0.00    +0.000 A 
ATOM      2  C   UNL     1       6.302   4.543  18.226  0.00  0.00    +0.000 A 
ATOM      3  C   UNL     1       7.143   5.186  17.309  0.00  0.00    +0.000 A 
ATOM      4  C   UNL     1       6.968   4.972  15.926  0.00  0.00    +0.000 A 
ATOM      5  N   UNL     1       7.736   5.532  14.917  0.00  0.00    +0.000 NA
ATOM      6  C   UNL     1       7.301   5.095  13.766  0.00  0.00    +0.000 A 
ATOM      7  S   UNL     1       5.974   4.037  13.776  0.00  0.00    +0.000 S 
ATOM      8  C   UNL     1       5.946   4.119  15.499  0.00  0.00    +0.000 A 
ATOM      9  C   UNL     1       5.086   3.471  16.402  0.00  0.00    +0.000 A 
ENDROOT
BRANCH   1  11
ATOM     10  O   UNL     1       3.538   1.823  18.240  0.00  0.00    +0.000 OA
ATOM     11  S   UNL     1       4.231   2.876  18.952  0.00  0.00    +0.000 S 
ATOM     12  O   UNL     1       5.044   2.584  20.113  0.00  0.00    +0.000 OA
BRANCH  11  13
ATOM     13  N   UNL     1       3.082   4.073  19.380  0.00  0.00    +0.000 NA
ATOM     14  C   UNL     1       2.113   3.685  20.436  0.00  0.00    +0.000 C 
ATOM     15  C   UNL     1       0.972   4.696  20.510  0.00  0.00    +0.000 C 
ATOM     16  C   UNL     1       1.505   6.107  20.724  0.00  0.00    +0.000 C 
ATOM     17  C   UNL     1       2.488   6.465  19.615  0.00  0.00    +0.000 C 
ATOM     18  C   UNL     1       3.623   5.448  19.535  0.00  0.00    +0.000 C 
ENDBRANCH  11  13
ENDBRANCH   1  11
BRANCH   6  19
ATOM     19  O   UNL     1       7.903   5.485  12.659  0.00  0.00    +0.000 OA
ATOM     20  H   UNL     1       7.390   5.006  11.986  0.00  0.00    +0.000 HD
ENDBRANCH   6  19
TORSDOF 3
ENDMDL
MODEL 3
REMARK VINA RESULT:      -6.8      2.917      6.442
REMARK  Name = 
REMARK  3 active torsions:
REMARK  status: ('A' for Active; 'I' for Inactive)
REMARK    1  A    between atoms: S_2  and  C_4
REMARK    2  A    between atoms: S_2  and  N_14
REMARK    3  A    between atoms: C_9  and  O_10
REMARK                            x       y       z     vdW  Elec       q    Type
REMARK                         _______ _______ _______ _____ _____    ______ ____
ROOT
ATOM      1  C   UNL     1       4.561   4.198  17.442  0.00  0.00    +0.000 A 
ATOM      2  C   UNL     1       4.501   5.073  16.356  0.00  0.00    +0.000 A 
ATOM      3  C   UNL     1       5.404   6.138  16.264  0.00  0.00    +0.000 A 
ATOM      4  C   UNL     1       6.356   6.344  17.286  0.00  0.00    +0.000 A 
ATOM      5  N   UNL     1       7.293   7.363  17.326  0.00  0.00    +0.000 NA
ATOM      6  C   UNL     1       7.989   7.251  18.425  0.00  0.00    +0.000 A 
ATOM      7  S   UNL     1       7.621   5.958  19.461  0.00  0.00    +0.000 S 
ATOM      8  C   UNL     1       6.377   5.465  18.373  0.00  0.00    +0.000 A 
ATOM      9  C   UNL     1       5.486   4.384  18.479  0.00  0.00    +0.000 A 
ENDROOT
BRANCH   1  11
ATOM     10  O   UNL     1       2.357   3.105  16.568  0.00  0.00    +0.000 OA
ATOM     11  S   UNL     1       3.381   2.862  17.561  0.00  0.00    +0.000 S 
ATOM     12  O   UNL     1       4.132   1.625  17.574  0.00  0.00    +0.000 OA
BRANCH  11  13
ATOM     13  N   UNL     1       2.684   3.090  19.110  0.00  0.00    +0.000 NA
ATOM     14  C   UNL     1       1.209   3.261  19.132  0.00  0.00    +0.000 C 
ATOM     15  C   UNL     1       0.750   3.756  20.501  0.00  0.00    +0.000 C 
ATOM     16  C   UNL     1       1.227   2.825  21.607  0.00  0.00    +0.000 C 
ATOM     17  C   UNL     1       2.744   2.684  21.551  0.00  0.00    +0.000 C 
ATOM     18  C   UNL     1       3.203   2.199  20.180  0.00  0.00    +0.000 C 
ENDBRANCH  11  13
ENDBRANCH   1  11
BRANCH   6  19
ATOM     19  O   UNL     1       8.932   8.136  18.683  0.00  0.00    +0.000 OA
ATOM     20  H   UNL     1       8.665   8.871  18.106  0.00  0.00    +0.000 HD
ENDBRANCH   6  19
TORSDOF 3
ENDMDL
MODEL 4
REMARK VINA RESULT:      -6.8      0.937      1.477
REMARK  Name = 
REMARK  3 active torsions:
REMARK  status: ('A' for Active; 'I' for Inactive)
REMARK    1  A    between atoms: S_2  and  C_4
REMARK    2  A    between atoms: S_2  and  N_14
REMARK    3  A    between atoms: C_9  and  O_10
REMARK                            x       y       z     vdW  Elec       q    Type
REMARK                         _______ _______ _______ _____ _____    ______ ____
ROOT
ATOM      1  C   UNL     1       5.470   4.907  17.009  0.00  0.00    +0.000 A 
ATOM      2  C   UNL     1       4.645   6.019  17.193  0.00  0.00    +0.000 A 
ATOM      3  C   UNL     1       3.335   5.849  17.656  0.00  0.00    +0.000 A 
ATOM      4  C   UNL     1       2.840   4.551  17.907  0.00  0.00    +0.000 A 
ATOM      5  N   UNL     1       1.564   4.243  18.351  0.00  0.00    +0.000 NA
ATOM      6  C   UNL     1       1.456   2.946  18.452  0.00  0.00    +0.000 A 
ATOM      7  S   UNL     1       2.819   2.010  18.067  0.00  0.00    +0.000 S 
ATOM      8  C   UNL     1       3.682   3.456  17.692  0.00  0.00    +0.000 A 
ATOM      9  C   UNL     1       5.003   3.605  17.238  0.00  0.00    +0.000 A 
ENDROOT
BRANCH   1  11
ATOM     10  O   UNL     1       7.387   6.562  16.373  0.00  0.00    +0.000 OA
ATOM     11  S   UNL     1       7.129   5.137  16.389  0.00  0.00    +0.000 S 
ATOM     12  O   UNL     1       7.990   4.229  17.115  0.00  0.00    +0.000 OA
BRANCH  11  13
ATOM     13  N   UNL     1       7.019   4.599  14.766  0.00  0.00    +0.000 NA
ATOM     14  C   UNL     1       5.681   4.119  14.337  0.00  0.00    +0.000 C 
ATOM     15  C   UNL     1       5.779   3.393  12.998  0.00  0.00    +0.000 C 
ATOM     16  C   UNL     1       6.426   4.277  11.942  0.00  0.00    +0.000 C 
ATOM     17  C   UNL     1       7.798   4.740  12.420  0.00  0.00    +0.000 C 
ATOM     18  C   UNL     1       7.701   5.457  13.762  0.00  0.00    +0.000 C 
ENDBRANCH  11  13
ENDBRANCH   1  11
BRANCH   6  19
ATOM     19  O   UNL     1       0.310   2.423  18.842  0.00  0.00    +0.000 OA
ATOM     20  H   UNL     1      -0.305   2.814  18.197  0.00  0.00    +0.000 HD
ENDBRANCH   6  19
TORSDOF 3
ENDMDL
MODEL 5
REMARK VINA RESULT:      -6.8      3.196      4.127
REMARK  Name = 
REMARK  3 active torsions:
REMARK  status: ('A' for Active; 'I' for Inactive)
REMARK    1  A    between atoms: S_2  and  C_4
REMARK    2  A    between atoms: S_2  and  N_14
REMARK    3  A    between atoms: C_9  and  O_10
REMARK                            x       y       z     vdW  Elec       q    Type
REMARK                         _______ _______ _______ _____ _____    ______ ____
ROOT
ATOM      1  C   UNL     1       3.290   5.130  19.019  0.00  0.00    +0.000 A 
ATOM      2  C   UNL     1       2.717   5.096  20.291  0.00  0.00    +0.000 A 
ATOM      3  C   UNL     1       1.987   6.195  20.760  0.00  0.00    +0.000 A 
ATOM      4  C   UNL     1       1.858   7.348  19.957  0.00  0.00    +0.000 A 
ATOM      5  N   UNL     1       1.180   8.506  20.304  0.00  0.00    +0.000 NA
ATOM      6  C   UNL     1       1.288   9.365  19.328  0.00  0.00    +0.000 A 
ATOM      7  S   UNL     1       2.153   8.885  17.948  0.00  0.00    +0.000 S 
ATOM      8  C   UNL     1       2.463   7.362  18.696  0.00  0.00    +0.000 A 
ATOM      9  C   UNL     1       3.190   6.266  18.203  0.00  0.00    +0.000 A 
ENDROOT
BRANCH   1  11
ATOM     10  O   UNL     1       5.144   3.361  19.518  0.00  0.00    +0.000 OA
ATOM     11  S   UNL     1       4.244   3.733  18.446  0.00  0.00    +0.000 S 
ATOM     12  O   UNL     1       3.313   2.777  17.885  0.00  0.00    +0.000 OA
BRANCH  11  13
ATOM     13  N   UNL     1       5.180   4.392  17.172  0.00  0.00    +0.000 NA
ATOM     14  C   UNL     1       6.584   4.731  17.515  0.00  0.00    +0.000 C 
ATOM     15  C   UNL     1       7.213   5.579  16.412  0.00  0.00    +0.000 C 
ATOM     16  C   UNL     1       7.115   4.880  15.063  0.00  0.00    +0.000 C 
ATOM     17  C   UNL     1       5.658   4.558  14.748  0.00  0.00    +0.000 C 
ATOM     18  C   UNL     1       5.028   3.719  15.855  0.00  0.00    +0.000 C 
ENDBRANCH  11  13
ENDBRANCH   1  11
BRANCH   6  19
ATOM     19  O   UNL     1       0.731  10.554  19.452  0.00  0.00    +0.000 OA
ATOM     20  H   UNL     1       0.510  10.757  18.526  0.00  0.00    +0.000 HD
ENDBRANCH   6  19
TORSDOF 3
ENDMDL
MODEL 6
REMARK VINA RESULT:      -6.8      3.766      5.175
REMARK  Name = 
REMARK  3 active torsions:
REMARK  status: ('A' for Active; 'I' for Inactive)
REMARK    1  A    between atoms: S_2  and  C_4
REMARK    2  A    between atoms: S_2  and  N_14
REMARK    3  A    between atoms: C_9  and  O_10
REMARK                            x       y       z     vdW  Elec       q    Type
REMARK                         _______ _______ _______ _____ _____    ______ ____
ROOT
ATOM      1  C   UNL     1       2.555   6.478  18.986  0.00  0.00    +0.000 A 
ATOM      2  C   UNL     1       2.542   7.335  17.884  0.00  0.00    +0.000 A 
ATOM      3  C   UNL     1       2.067   8.645  18.022  0.00  0.00    +0.000 A 
ATOM      4  C   UNL     1       1.574   9.087  19.268  0.00  0.00    +0.000 A 
ATOM      5  N   UNL     1       1.064  10.347  19.536  0.00  0.00    +0.000 NA
ATOM      6  C   UNL     1       0.685  10.390  20.785  0.00  0.00    +0.000 A 
ATOM      7  S   UNL     1       0.916   8.997  21.726  0.00  0.00    +0.000 S 
ATOM      8  C   UNL     1       1.578   8.198  20.348  0.00  0.00    +0.000 A 
ATOM      9  C   UNL     1       2.059   6.883  20.233  0.00  0.00    +0.000 A 
ENDROOT
BRANCH   1  11
ATOM     10  O   UNL     1       3.215   4.216  20.110  0.00  0.00    +0.000 OA
ATOM     11  S   UNL     1       3.134   4.800  18.787  0.00  0.00    +0.000 S 
ATOM     12  O   UNL     1       2.335   4.189  17.747  0.00  0.00    +0.000 OA
BRANCH  11  13
ATOM     13  N   UNL     1       4.730   5.002  18.198  0.00  0.00    +0.000 NA
ATOM     14  C   UNL     1       5.779   5.186  19.233  0.00  0.00    +0.000 C 
ATOM     15  C   UNL     1       7.083   5.657  18.594  0.00  0.00    +0.000 C 
ATOM     16  C   UNL     1       7.532   4.699  17.499  0.00  0.00    +0.000 C 
ATOM     17  C   UNL     1       6.430   4.546  16.457  0.00  0.00    +0.000 C 
ATOM     18  C   UNL     1       5.125   4.085  17.097  0.00  0.00    +0.000 C 
ENDBRANCH  11  13
ENDBRANCH   1  11
BRANCH   6  19
ATOM     19  O   UNL     1       0.146  11.497  21.257  0.00  0.00    +0.000 OA
ATOM     20  H   UNL     1       0.671  11.634  22.064  0.00  0.00    +0.000 HD
ENDBRANCH   6  19
TORSDOF 3
ENDMDL
MODEL 7
REMARK VINA RESULT:      -6.7      4.585      6.393
REMARK  Name = 
REMARK  3 active torsions:
REMARK  status: ('A' for Active; 'I' for Inactive)
REMARK    1  A    between atoms: S_2  and  C_4
REMARK    2  A    between atoms: S_2  and  N_14
REMARK    3  A    between atoms: C_9  and  O_10
REMARK                            x       y       z     vdW  Elec       q    Type
REMARK                         _______ _______ _______ _____ _____    ______ ____
ROOT
ATOM      1  C   UNL     1       2.626   7.296  18.843  0.00  0.00    +0.000 A 
ATOM      2  C   UNL     1       2.519   8.183  17.770  0.00  0.00    +0.000 A 
ATOM      3  C   UNL     1       1.784   9.366  17.910  0.00  0.00    +0.000 A 
ATOM      4  C   UNL     1       1.128   9.646  19.128  0.00  0.00    +0.000 A 
ATOM      5  N   UNL     1       0.359  10.768  19.394  0.00  0.00    +0.000 NA
ATOM      6  C   UNL     1      -0.107  10.679  20.611  0.00  0.00    +0.000 A 
ATOM      7  S   UNL     1       0.331   9.317  21.524  0.00  0.00    +0.000 S 
ATOM      8  C   UNL     1       1.233   8.728  20.177  0.00  0.00    +0.000 A 
ATOM      9  C   UNL     1       1.974   7.539  20.059  0.00  0.00    +0.000 A 
ENDROOT
BRANCH   1  11
ATOM     10  O   UNL     1       3.764   5.597  17.219  0.00  0.00    +0.000 OA
ATOM     11  S   UNL     1       3.541   5.775  18.638  0.00  0.00    +0.000 S 
ATOM     12  O   UNL     1       4.646   5.809  19.571  0.00  0.00    +0.000 OA
BRANCH  11  13
ATOM     13  N   UNL     1       2.431   4.577  19.155  0.00  0.00    +0.000 NA
ATOM     14  C   UNL     1       2.121   3.517  18.162  0.00  0.00    +0.000 C 
ATOM     15  C   UNL     1       0.913   2.700  18.613  0.00  0.00    +0.000 C 
ATOM     16  C   UNL     1       1.132   2.123  20.005  0.00  0.00    +0.000 C 
ATOM     17  C   UNL     1       1.440   3.244  20.991  0.00  0.00    +0.000 C 
ATOM     18  C   UNL     1       2.640   4.066  20.535  0.00  0.00    +0.000 C 
ENDBRANCH  11  13
ENDBRANCH   1  11
BRANCH   6  19
ATOM     19  O   UNL     1      -0.887  11.636  21.073  0.00  0.00    +0.000 OA
ATOM     20  H   UNL     1      -1.744  11.385  20.686  0.00  0.00    +0.000 HD
ENDBRANCH   6  19
TORSDOF 3
ENDMDL
MODEL 8
REMARK VINA RESULT:      -6.6      2.255      6.549
REMARK  Name = 
REMARK  3 active torsions:
REMARK  status: ('A' for Active; 'I' for Inactive)
REMARK    1  A    between atoms: S_2  and  C_4
REMARK    2  A    between atoms: S_2  and  N_14
REMARK    3  A    between atoms: C_9  and  O_10
REMARK                            x       y       z     vdW  Elec       q    Type
REMARK                         _______ _______ _______ _____ _____    ______ ____
ROOT
ATOM      1  C   UNL     1       5.200   3.960  17.592  0.00  0.00    +0.000 A 
ATOM      2  C   UNL     1       6.255   4.776  18.005  0.00  0.00    +0.000 A 
ATOM      3  C   UNL     1       7.134   5.317  17.059  0.00  0.00    +0.000 A 
ATOM      4  C   UNL     1       6.969   5.013  15.691  0.00  0.00    +0.000 A 
ATOM      5  N   UNL     1       7.772   5.467  14.657  0.00  0.00    +0.000 NA
ATOM      6  C   UNL     1       7.334   4.967  13.533  0.00  0.00    +0.000 A 
ATOM      7  S   UNL     1       5.963   3.969  13.597  0.00  0.00    +0.000 S 
ATOM      8  C   UNL     1       5.917   4.174  15.309  0.00  0.00    +0.000 A 
ATOM      9  C   UNL     1       5.019   3.628  16.242  0.00  0.00    +0.000 A 
ENDROOT
BRANCH   1  11
ATOM     10  O   UNL     1       3.117   2.471  18.101  0.00  0.00    +0.000 OA
ATOM     11  S   UNL     1       4.106   3.252  18.813  0.00  0.00    +0.000 S 
ATOM     12  O   UNL     1       4.935   2.654  19.838  0.00  0.00    +0.000 OA
BRANCH  11  13
ATOM     13  N   UNL     1       3.322   4.622  19.480  0.00  0.00    +0.000 NA
ATOM     14  C   UNL     1       2.960   5.689  18.513  0.00  0.00    +0.000 C 
ATOM     15  C   UNL     1       2.557   6.963  19.250  0.00  0.00    +0.000 C 
ATOM     16  C   UNL     1       1.431   6.690  20.238  0.00  0.00    +0.000 C 
ATOM     17  C   UNL     1       1.848   5.596  21.214  0.00  0.00    +0.000 C 
ATOM     18  C   UNL     1       2.260   4.326  20.476  0.00  0.00    +0.000 C 
ENDBRANCH  11  13
ENDBRANCH   1  11
BRANCH   6  19
ATOM     19  O   UNL     1       7.966   5.253  12.412  0.00  0.00    +0.000 OA
ATOM     20  H   UNL     1       8.483   6.032  12.679  0.00  0.00    +0.000 HD
ENDBRANCH   6  19
TORSDOF 3
ENDMDL
MODEL 9
REMARK VINA RESULT:      -6.6      2.900      6.369
REMARK  Name = 
REMARK  3 active torsions:
REMARK  status: ('A' for Active; 'I' for Inactive)
REMARK    1  A    between atoms: S_2  and  C_4
REMARK    2  A    between atoms: S_2  and  N_14
REMARK    3  A    between atoms: C_9  and  O_10
REMARK                            x       y       z     vdW  Elec       q    Type
REMARK                         _______ _______ _______ _____ _____    ______ ____
ROOT
ATOM      1  C   UNL     1       4.494   4.070  17.487  0.00  0.00    +0.000 A 
ATOM      2  C   UNL     1       4.366   4.976  16.432  0.00  0.00    +0.000 A 
ATOM      3  C   UNL     1       5.242   6.064  16.334  0.00  0.00    +0.000 A 
ATOM      4  C   UNL     1       6.235   6.259  17.317  0.00  0.00    +0.000 A 
ATOM      5  N   UNL     1       7.152   7.297  17.347  0.00  0.00    +0.000 NA
ATOM      6  C   UNL     1       7.900   7.167  18.410  0.00  0.00    +0.000 A 
ATOM      7  S   UNL     1       7.608   5.834  19.419  0.00  0.00    +0.000 S 
ATOM      8  C   UNL     1       6.324   5.347  18.374  0.00  0.00    +0.000 A 
ATOM      9  C   UNL     1       5.462   4.244  18.486  0.00  0.00    +0.000 A 
ENDROOT
BRANCH   1  11
ATOM     10  O   UNL     1       2.345   2.889  16.590  0.00  0.00    +0.000 OA
ATOM     11  S   UNL     1       3.349   2.705  17.617  0.00  0.00    +0.000 S 
ATOM     12  O   UNL     1       4.134   1.491  17.687  0.00  0.00    +0.000 OA
BRANCH  11  13
ATOM     13  N   UNL     1       2.605   2.960  19.139  0.00  0.00    +0.000 NA
ATOM     14  C   UNL     1       3.373   2.483  20.317  0.00  0.00    +0.000 C 
ATOM     15  C   UNL     1       2.493   2.484  21.564  0.00  0.00    +0.000 C 
ATOM     16  C   UNL     1       1.885   3.859  21.804  0.00  0.00    +0.000 C 
ATOM     17  C   UNL     1       1.102   4.304  20.574  0.00  0.00    +0.000 C 
ATOM     18  C   UNL     1       1.980   4.294  19.328  0.00  0.00    +0.000 C 
ENDBRANCH  11  13
ENDBRANCH   1  11
BRANCH   6  19
ATOM     19  O   UNL     1       8.836   8.063  18.653  0.00  0.00    +0.000 OA
ATOM     20  H   UNL     1       9.635   7.509  18.645  0.00  0.00    +0.000 HD
ENDBRANCH   6  19
TORSDOF 3
ENDMDL
