MODEL 1
REMARK VINA RESULT:      -7.2      0.000      0.000
REMARK  Name = 
REMARK  11 active torsions:
REMARK  status: ('A' for Active; 'I' for Inactive)
REMARK    1  A    between atoms: C_1  and  C_2
REMARK    2  A    between atoms: C_2  and  O_3
REMARK    3  A    between atoms: O_3  and  C_4
REMARK    4  A    between atoms: C_4  and  C_6
REMARK    5  A    between atoms: C_8  and  N_9
REMARK    6  A    between atoms: C_10  and  C_12
REMARK    7  A    between atoms: C_18  and  C_19
REMARK    8  A    between atoms: C_19  and  O_21
REMARK    9  A    between atoms: O_21  and  C_22
REMARK   10  A    between atoms: C_22  and  C_23
REMARK   11  A    between atoms: C_24  and  C_25
REMARK                            x       y       z     vdW  Elec       q    Type
REMARK                         _______ _______ _______ _____ _____    ______ ____
ROOT
ATOM      1  C   UNL     1       5.295   5.463  16.798  0.00  0.00    +0.000 A 
ATOM      2  S   UNL     1       4.803   6.979  17.405  0.00  0.00    +0.000 S 
ATOM      3  C   UNL     1       3.267   6.405  17.813  0.00  0.00    +0.000 A 
ATOM      4  C   UNL     1       3.118   5.042  17.649  0.00  0.00    +0.000 A 
ATOM      5  C   UNL     1       4.353   4.479  17.100  0.00  0.00    +0.000 A 
ATOM      6  C   UNL     1       4.620   3.012  16.906  0.00  0.00    +0.000 C 
ENDROOT
BRANCH   3   7
ATOM      7  N   UNL     1       2.468   7.433  18.244  0.00  0.00    +0.000 N 
ATOM      8  C   UNL     1       2.081   7.575  19.558  0.00  0.00    +0.000 C 
ATOM      9  O   UNL     1       2.362   6.807  20.470  0.00  0.00    +0.000 OA
ATOM     10  H   UNL     1       1.955   7.914  17.520  0.00  0.00    +0.000 HD
BRANCH   8  11
ATOM     11  C   UNL     1       1.276   8.799  19.831  0.00  0.00    +0.000 A 
ATOM     12  C   UNL     1       0.662   9.050  21.068  0.00  0.00    +0.000 A 
ATOM     13  C   UNL     1      -0.261  10.090  21.190  0.00  0.00    +0.000 A 
ATOM     14  C   UNL     1      -0.549  10.896  20.090  0.00  0.00    +0.000 A 
ATOM     15  C   UNL     1       0.126  10.703  18.886  0.00  0.00    +0.000 A 
ATOM     16  C   UNL     1       1.044   9.663  18.756  0.00  0.00    +0.000 A 
ENDBRANCH   8  11
ENDBRANCH   3   7
BRANCH   1  17
ATOM     17  C   UNL     1       6.585   5.280  16.165  0.00  0.00    +0.000 C 
ATOM     18  O   UNL     1       7.605   4.909  16.739  0.00  0.00    +0.000 OA
BRANCH  17  19
ATOM     19  O   UNL     1       6.559   5.670  14.860  0.00  0.00    +0.000 OA
BRANCH  19  21
ATOM     20  C   UNL     1       5.973   3.813  13.507  0.00  0.00    +0.000 C 
ATOM     21  C   UNL     1       7.110   4.716  13.949  0.00  0.00    +0.000 C 
ENDBRANCH  19  21
ENDBRANCH  17  19
ENDBRANCH   1  17
BRANCH   4  22
ATOM     22  C   UNL     1       1.959   4.236  18.042  0.00  0.00    +0.000 C 
ATOM     23  O   UNL     1       0.980   4.100  17.315  0.00  0.00    +0.000 OA
BRANCH  22  24
ATOM     24  O   UNL     1       2.142   3.533  19.203  0.00  0.00    +0.000 OA
BRANCH  24  25
ATOM     25  C   UNL     1       1.048   3.616  20.130  0.00  0.00    +0.000 C 
ATOM     26  C   UNL     1       1.327   2.818  21.389  0.00  0.00    +0.000 C 
ENDBRANCH  24  25
ENDBRANCH  22  24
ENDBRANCH   4  22
TORSDOF 8
ENDMDL
MODEL 2
REMARK VINA RESULT:      -7.1      0.903      1.010
REMARK  Name = 
REMARK  11 active torsions:
REMARK  status: ('A' for Active; 'I' for Inactive)
REMARK    1  A    between atoms: C_1  and  C_2
REMARK    2  A    between atoms: C_2  and  O_3
REMARK    3  A    between atoms: O_3  and  C_4
REMARK    4  A    between atoms: C_4  and  C_6
REMARK    5  A    between atoms: C_8  and  N_9
REMARK    6  A    between atoms: C_10  and  C_12
REMARK    7  A    between atoms: C_18  and  C_19
REMARK    8  A    between atoms: C_19  and  O_21
REMARK    9  A    between atoms: O_21  and  C_22
REMARK   10  A    between atoms: C_22  and  C_23
REMARK   11  A    between atoms: C_24  and  C_25
REMARK                            x       y       z     vdW  Elec       q    Type
REMARK                         _______ _______ _______ _____ _____    ______ ____
ROOT
ATOM      1  C   UNL     1       5.329   5.188  17.099  0.00  0.00    +0.000 A 
ATOM      2  S   UNL     1       5.032   6.440  18.218  0.00  0.00    +0.000 S 
ATOM      3  C   UNL     1       3.446   5.926  18.490  0.00  0.00    +0.000 A 
ATOM      4  C   UNL     1       3.132   4.730  17.875  0.00  0.00    +0.000 A 
ATOM      5  C   UNL     1       4.282   4.266  17.096  0.00  0.00    +0.000 A 
ATOM      6  C   UNL     1       4.368   2.939  16.395  0.00  0.00    +0.000 C 
ENDROOT
BRANCH   3   7
ATOM      7  N   UNL     1       2.782   6.819  19.293  0.00  0.00    +0.000 N 
ATOM      8  C   UNL     1       2.136   7.929  18.796  0.00  0.00    +0.000 C 
ATOM      9  O   UNL     1       2.105   8.268  17.620  0.00  0.00    +0.000 OA
ATOM     10  H   UNL     1       3.022   6.780  20.272  0.00  0.00    +0.000 HD
BRANCH   8  11
ATOM     11  C   UNL     1       1.414   8.729  19.826  0.00  0.00    +0.000 A 
ATOM     12  C   UNL     1       1.215   8.280  21.141  0.00  0.00    +0.000 A 
ATOM     13  C   UNL     1       0.340   8.965  21.986  0.00  0.00    +0.000 A 
ATOM     14  C   UNL     1      -0.310  10.111  21.533  0.00  0.00    +0.000 A 
ATOM     15  C   UNL     1      -0.045  10.607  20.257  0.00  0.00    +0.000 A 
ATOM     16  C   UNL     1       0.823   9.925  19.406  0.00  0.00    +0.000 A 
ENDBRANCH   8  11
ENDBRANCH   3   7
BRANCH   1  17
ATOM     17  C   UNL     1       6.577   5.101  16.369  0.00  0.00    +0.000 C 
ATOM     18  O   UNL     1       7.643   4.714  16.839  0.00  0.00    +0.000 OA
BRANCH  17  19
ATOM     19  O   UNL     1       6.453   5.603  15.108  0.00  0.00    +0.000 OA
BRANCH  19  21
ATOM     20  C   UNL     1       6.166   3.899  13.484  0.00  0.00    +0.000 C 
ATOM     21  C   UNL     1       7.158   4.863  14.108  0.00  0.00    +0.000 C 
ENDBRANCH  19  21
ENDBRANCH  17  19
ENDBRANCH   1  17
BRANCH   4  22
ATOM     22  C   UNL     1       1.892   3.966  18.032  0.00  0.00    +0.000 C 
ATOM     23  O   UNL     1       0.936   4.107  17.275  0.00  0.00    +0.000 OA
BRANCH  22  24
ATOM     24  O   UNL     1       1.963   2.984  18.984  0.00  0.00    +0.000 OA
BRANCH  24  25
ATOM     25  C   UNL     1       1.095   3.181  20.111  0.00  0.00    +0.000 C 
ATOM     26  C   UNL     1       1.853   3.727  21.307  0.00  0.00    +0.000 C 
ENDBRANCH  24  25
ENDBRANCH  22  24
ENDBRANCH   4  22
TORSDOF 8
ENDMDL
MODEL 3
REMARK VINA RESULT:      -7.0      0.828      1.266
REMARK  Name = 
REMARK  11 active torsions:
REMARK  status: ('A' for Active; 'I' for Inactive)
REMARK    1  A    between atoms: C_1  and  C_2
REMARK    2  A    between atoms: C_2  and  O_3
REMARK    3  A    between atoms: O_3  and  C_4
REMARK    4  A    between atoms: C_4  and  C_6
REMARK    5  A    between atoms: C_8  and  N_9
REMARK    6  A    between atoms: C_10  and  C_12
REMARK    7  A    between atoms: C_18  and  C_19
REMARK    8  A    between atoms: C_19  and  O_21
REMARK    9  A    between atoms: O_21  and  C_22
REMARK   10  A    between atoms: C_22  and  C_23
REMARK   11  A    between atoms: C_24  and  C_25
REMARK                            x       y       z     vdW  Elec       q    Type
REMARK                         _______ _______ _______ _____ _____    ______ ____
ROOT
ATOM      1  C   UNL     1       5.059   4.846  17.036  0.00  0.00    +0.000 A 
ATOM      2  S   UNL     1       4.721   6.493  17.319  0.00  0.00    +0.000 S 
ATOM      3  C   UNL     1       3.128   6.167  17.780  0.00  0.00    +0.000 A 
ATOM      4  C   UNL     1       2.839   4.820  17.880  0.00  0.00    +0.000 A 
ATOM      5  C   UNL     1       4.016   4.039  17.493  0.00  0.00    +0.000 A 
ATOM      6  C   UNL     1       4.130   2.544  17.598  0.00  0.00    +0.000 C 
ENDROOT
BRANCH   3   7
ATOM      7  N   UNL     1       2.435   7.335  17.975  0.00  0.00    +0.000 N 
ATOM      8  C   UNL     1       2.107   7.805  19.228  0.00  0.00    +0.000 C 
ATOM      9  O   UNL     1       2.352   7.241  20.287  0.00  0.00    +0.000 OA
ATOM     10  H   UNL     1       1.941   7.683  17.168  0.00  0.00    +0.000 HD
BRANCH   8  11
ATOM     11  C   UNL     1       1.420   9.127  19.225  0.00  0.00    +0.000 A 
ATOM     12  C   UNL     1       1.676  10.119  18.265  0.00  0.00    +0.000 A 
ATOM     13  C   UNL     1       1.177  11.410  18.446  0.00  0.00    +0.000 A 
ATOM     14  C   UNL     1       0.398  11.703  19.564  0.00  0.00    +0.000 A 
ATOM     15  C   UNL     1       0.070  10.697  20.471  0.00  0.00    +0.000 A 
ATOM     16  C   UNL     1       0.570   9.408  20.300  0.00  0.00    +0.000 A 
ENDBRANCH   8  11
ENDBRANCH   3   7
BRANCH   1  17
ATOM     17  C   UNL     1       6.331   4.413  16.494  0.00  0.00    +0.000 C 
ATOM     18  O   UNL     1       7.429   4.686  16.970  0.00  0.00    +0.000 OA
BRANCH  17  19
ATOM     19  O   UNL     1       6.169   3.743  15.319  0.00  0.00    +0.000 OA
BRANCH  19  21
ATOM     20  C   UNL     1       6.172   3.667  12.948  0.00  0.00    +0.000 C 
ATOM     21  C   UNL     1       6.607   4.465  14.164  0.00  0.00    +0.000 C 
ENDBRANCH  19  21
ENDBRANCH  17  19
ENDBRANCH   1  17
BRANCH   4  22
ATOM     22  C   UNL     1       1.597   4.228  18.384  0.00  0.00    +0.000 C 
ATOM     23  O   UNL     1       0.815   3.629  17.654  0.00  0.00    +0.000 OA
BRANCH  22  24
ATOM     24  O   UNL     1       1.480   4.265  19.748  0.00  0.00    +0.000 OA
BRANCH  24  25
ATOM     25  C   UNL     1       0.904   3.084  20.329  0.00  0.00    +0.000 C 
ATOM     26  C   UNL     1       1.699   2.615  21.533  0.00  0.00    +0.000 C 
ENDBRANCH  24  25
ENDBRANCH  22  24
ENDBRANCH   4  22
TORSDOF 8
ENDMDL
MODEL 4
REMARK VINA RESULT:      -7.0      1.037      1.960
REMARK  Name = 
REMARK  11 active torsions:
REMARK  status: ('A' for Active; 'I' for Inactive)
REMARK    1  A    between atoms: C_1  and  C_2
REMARK    2  A    between atoms: C_2  and  O_3
REMARK    3  A    between atoms: O_3  and  C_4
REMARK    4  A    between atoms: C_4  and  C_6
REMARK    5  A    between atoms: C_8  and  N_9
REMARK    6  A    between atoms: C_10  and  C_12
REMARK    7  A    between atoms: C_18  and  C_19
REMARK    8  A    between atoms: C_19  and  O_21
REMARK    9  A    between atoms: O_21  and  C_22
REMARK   10  A    between atoms: C_22  and  C_23
REMARK   11  A    between atoms: C_24  and  C_25
REMARK                            x       y       z     vdW  Elec       q    Type
REMARK                         _______ _______ _______ _____ _____    ______ ____
ROOT
ATOM      1  C   UNL     1       4.971   5.144  16.841  0.00  0.00    +0.000 A 
ATOM      2  S   UNL     1       4.578   6.762  17.214  0.00  0.00    +0.000 S 
ATOM      3  C   UNL     1       3.041   6.340  17.777  0.00  0.00    +0.000 A 
ATOM      4  C   UNL     1       2.824   4.977  17.843  0.00  0.00    +0.000 A 
ATOM      5  C   UNL     1       4.004   4.271  17.339  0.00  0.00    +0.000 A 
ATOM      6  C   UNL     1       4.195   2.780  17.375  0.00  0.00    +0.000 C 
ENDROOT
BRANCH   3   7
ATOM      7  N   UNL     1       2.311   7.464  18.069  0.00  0.00    +0.000 N 
ATOM      8  C   UNL     1       2.021   7.848  19.359  0.00  0.00    +0.000 C 
ATOM      9  O   UNL     1       2.336   7.236  20.373  0.00  0.00    +0.000 OA
ATOM     10  H   UNL     1       1.767   7.836  17.305  0.00  0.00    +0.000 HD
BRANCH   8  11
ATOM     11  C   UNL     1       1.281   9.138  19.462  0.00  0.00    +0.000 A 
ATOM     12  C   UNL     1       1.291  10.107  18.447  0.00  0.00    +0.000 A 
ATOM     13  C   UNL     1       0.773  11.380  18.693  0.00  0.00    +0.000 A 
ATOM     14  C   UNL     1       0.219  11.676  19.938  0.00  0.00    +0.000 A 
ATOM     15  C   UNL     1       0.129  10.687  20.916  0.00  0.00    +0.000 A 
ATOM     16  C   UNL     1       0.649   9.416  20.679  0.00  0.00    +0.000 A 
ENDBRANCH   8  11
ENDBRANCH   3   7
BRANCH   1  17
ATOM     17  C   UNL     1       6.217   4.796  16.190  0.00  0.00    +0.000 C 
ATOM     18  O   UNL     1       6.327   4.011  15.253  0.00  0.00    +0.000 OA
BRANCH  17  19
ATOM     19  O   UNL     1       7.283   5.371  16.814  0.00  0.00    +0.000 OA
BRANCH  19  21
ATOM     20  C   UNL     1       7.847   5.800  19.077  0.00  0.00    +0.000 C 
ATOM     21  C   UNL     1       7.679   4.720  18.024  0.00  0.00    +0.000 C 
ENDBRANCH  19  21
ENDBRANCH  17  19
ENDBRANCH   1  17
BRANCH   4  22
ATOM     22  C   UNL     1       1.653   4.307  18.412  0.00  0.00    +0.000 C 
ATOM     23  O   UNL     1       0.906   3.607  17.736  0.00  0.00    +0.000 OA
BRANCH  22  24
ATOM     24  O   UNL     1       1.570   4.400  19.776  0.00  0.00    +0.000 OA
BRANCH  24  25
ATOM     25  C   UNL     1       1.028   3.238  20.422  0.00  0.00    +0.000 C 
ATOM     26  C   UNL     1       1.956   2.724  21.508  0.00  0.00    +0.000 C 
ENDBRANCH  24  25
ENDBRANCH  22  24
ENDBRANCH   4  22
TORSDOF 8
ENDMDL
MODEL 5
REMARK VINA RESULT:      -6.9      1.292      1.944
REMARK  Name = 
REMARK  11 active torsions:
REMARK  status: ('A' for Active; 'I' for Inactive)
REMARK    1  A    between atoms: C_1  and  C_2
REMARK    2  A    between atoms: C_2  and  O_3
REMARK    3  A    between atoms: O_3  and  C_4
REMARK    4  A    between atoms: C_4  and  C_6
REMARK    5  A    between atoms: C_8  and  N_9
REMARK    6  A    between atoms: C_10  and  C_12
REMARK    7  A    between atoms: C_18  and  C_19
REMARK    8  A    between atoms: C_19  and  O_21
REMARK    9  A    between atoms: O_21  and  C_22
REMARK   10  A    between atoms: C_22  and  C_23
REMARK   11  A    between atoms: C_24  and  C_25
REMARK                            x       y       z     vdW  Elec       q    Type
REMARK                         _______ _______ _______ _____ _____    ______ ____
ROOT
ATOM      1  C   UNL     1       4.996   5.873  16.975  0.00  0.00    +0.000 A 
ATOM      2  S   UNL     1       4.592   7.286  17.841  0.00  0.00    +0.000 S 
ATOM      3  C   UNL     1       3.098   6.658  18.320  0.00  0.00    +0.000 A 
ATOM      4  C   UNL     1       2.913   5.333  17.978  0.00  0.00    +0.000 A 
ATOM      5  C   UNL     1       4.076   4.855  17.228  0.00  0.00    +0.000 A 
ATOM      6  C   UNL     1       4.299   3.431  16.800  0.00  0.00    +0.000 C 
ENDROOT
BRANCH   3   7
ATOM      7  N   UNL     1       2.363   7.614  18.975  0.00  0.00    +0.000 N 
ATOM      8  C   UNL     1       1.868   8.733  18.343  0.00  0.00    +0.000 C 
ATOM      9  O   UNL     1       2.047   9.026  17.168  0.00  0.00    +0.000 OA
ATOM     10  H   UNL     1       2.438   7.602  19.981  0.00  0.00    +0.000 HD
BRANCH   8  11
ATOM     11  C   UNL     1       1.033   9.608  19.214  0.00  0.00    +0.000 A 
ATOM     12  C   UNL     1       1.062   9.541  20.616  0.00  0.00    +0.000 A 
ATOM     13  C   UNL     1       0.099  10.218  21.366  0.00  0.00    +0.000 A 
ATOM     14  C   UNL     1      -0.871  10.984  20.723  0.00  0.00    +0.000 A 
ATOM     15  C   UNL     1      -0.847  11.122  19.336  0.00  0.00    +0.000 A 
ATOM     16  C   UNL     1       0.109  10.445  18.581  0.00  0.00    +0.000 A 
ENDBRANCH   8  11
ENDBRANCH   3   7
BRANCH   1  17
ATOM     17  C   UNL     1       6.211   5.783  16.191  0.00  0.00    +0.000 C 
ATOM     18  O   UNL     1       6.263   5.472  15.005  0.00  0.00    +0.000 OA
BRANCH  17  19
ATOM     19  O   UNL     1       7.317   5.988  16.961  0.00  0.00    +0.000 OA
BRANCH  19  21
ATOM     20  C   UNL     1       7.754   5.570  19.254  0.00  0.00    +0.000 C 
ATOM     21  C   UNL     1       7.595   4.933  17.885  0.00  0.00    +0.000 C 
ENDBRANCH  19  21
ENDBRANCH  17  19
ENDBRANCH   1  17
BRANCH   4  22
ATOM     22  C   UNL     1       1.788   4.479  18.371  0.00  0.00    +0.000 C 
ATOM     23  O   UNL     1       1.260   3.694  17.590  0.00  0.00    +0.000 OA
BRANCH  22  24
ATOM     24  O   UNL     1       1.501   4.522  19.709  0.00  0.00    +0.000 OA
BRANCH  24  25
ATOM     25  C   UNL     1       0.995   3.292  20.251  0.00  0.00    +0.000 C 
ATOM     26  C   UNL     1       1.756   2.881  21.497  0.00  0.00    +0.000 C 
ENDBRANCH  24  25
ENDBRANCH  22  24
ENDBRANCH   4  22
TORSDOF 8
ENDMDL
MODEL 6
REMARK VINA RESULT:      -6.8      1.262      2.102
REMARK  Name = 
REMARK  11 active torsions:
REMARK  status: ('A' for Active; 'I' for Inactive)
REMARK    1  A    between atoms: C_1  and  C_2
REMARK    2  A    between atoms: C_2  and  O_3
REMARK    3  A    between atoms: O_3  and  C_4
REMARK    4  A    between atoms: C_4  and  C_6
REMARK    5  A    between atoms: C_8  and  N_9
REMARK    6  A    between atoms: C_10  and  C_12
REMARK    7  A    between atoms: C_18  and  C_19
REMARK    8  A    between atoms: C_19  and  O_21
REMARK    9  A    between atoms: O_21  and  C_22
REMARK   10  A    between atoms: C_22  and  C_23
REMARK   11  A    between atoms: C_24  and  C_25
REMARK                            x       y       z     vdW  Elec       q    Type
REMARK                         _______ _______ _______ _____ _____    ______ ____
ROOT
ATOM      1  C   UNL     1       5.176   5.777  16.873  0.00  0.00    +0.000 A 
ATOM      2  S   UNL     1       4.768   7.124  17.836  0.00  0.00    +0.000 S 
ATOM      3  C   UNL     1       3.264   6.472  18.247  0.00  0.00    +0.000 A 
ATOM      4  C   UNL     1       3.076   5.177  17.805  0.00  0.00    +0.000 A 
ATOM      5  C   UNL     1       4.247   4.749  17.038  0.00  0.00    +0.000 A 
ATOM      6  C   UNL     1       4.469   3.360  16.508  0.00  0.00    +0.000 C 
ENDROOT
BRANCH   3   7
ATOM      7  N   UNL     1       2.524   7.382  18.961  0.00  0.00    +0.000 N 
ATOM      8  C   UNL     1       1.992   8.518  18.392  0.00  0.00    +0.000 C 
ATOM      9  O   UNL     1       2.138   8.867  17.228  0.00  0.00    +0.000 OA
ATOM     10  H   UNL     1       2.622   7.326  19.963  0.00  0.00    +0.000 HD
BRANCH   8  11
ATOM     11  C   UNL     1       1.160   9.335  19.321  0.00  0.00    +0.000 A 
ATOM     12  C   UNL     1       0.757  10.648  19.031  0.00  0.00    +0.000 A 
ATOM     13  C   UNL     1       0.180  11.436  20.028  0.00  0.00    +0.000 A 
ATOM     14  C   UNL     1      -0.023  10.907  21.301  0.00  0.00    +0.000 A 
ATOM     15  C   UNL     1       0.295   9.576  21.564  0.00  0.00    +0.000 A 
ATOM     16  C   UNL     1       0.877   8.785  20.575  0.00  0.00    +0.000 A 
ENDBRANCH   8  11
ENDBRANCH   3   7
BRANCH   1  17
ATOM     17  C   UNL     1       6.401   5.738  16.102  0.00  0.00    +0.000 C 
ATOM     18  O   UNL     1       6.467   5.530  14.894  0.00  0.00    +0.000 OA
BRANCH  17  19
ATOM     19  O   UNL     1       7.498   5.861  16.901  0.00  0.00    +0.000 OA
BRANCH  19  21
ATOM     20  C   UNL     1       7.982   5.552  19.202  0.00  0.00    +0.000 C 
ATOM     21  C   UNL     1       7.607   4.851  17.909  0.00  0.00    +0.000 C 
ENDBRANCH  19  21
ENDBRANCH  17  19
ENDBRANCH   1  17
BRANCH   4  22
ATOM     22  C   UNL     1       1.942   4.304  18.118  0.00  0.00    +0.000 C 
ATOM     23  O   UNL     1       0.976   4.192  17.369  0.00  0.00    +0.000 OA
BRANCH  22  24
ATOM     24  O   UNL     1       2.136   3.517  19.222  0.00  0.00    +0.000 OA
BRANCH  24  25
ATOM     25  C   UNL     1       1.436   3.954  20.397  0.00  0.00    +0.000 C 
ATOM     26  C   UNL     1       1.998   3.307  21.649  0.00  0.00    +0.000 C 
ENDBRANCH  24  25
ENDBRANCH  22  24
ENDBRANCH   4  22
TORSDOF 8
ENDMDL
MODEL 7
REMARK VINA RESULT:      -6.8      1.148      1.474
REMARK  Name = 
REMARK  11 active torsions:
REMARK  status: ('A' for Active; 'I' for Inactive)
REMARK    1  A    between atoms: C_1  and  C_2
REMARK    2  A    between atoms: C_2  and  O_3
REMARK    3  A    between atoms: O_3  and  C_4
REMARK    4  A    between atoms: C_4  and  C_6
REMARK    5  A    between atoms: C_8  and  N_9
REMARK    6  A    between atoms: C_10  and  C_12
REMARK    7  A    between atoms: C_18  and  C_19
REMARK    8  A    between atoms: C_19  and  O_21
REMARK    9  A    between atoms: O_21  and  C_22
REMARK   10  A    between atoms: C_22  and  C_23
REMARK   11  A    between atoms: C_24  and  C_25
REMARK                            x       y       z     vdW  Elec       q    Type
REMARK                         _______ _______ _______ _____ _____    ______ ____
ROOT
ATOM      1  C   UNL     1       4.819   5.444  16.903  0.00  0.00    +0.000 A 
ATOM      2  S   UNL     1       4.544   6.916  17.719  0.00  0.00    +0.000 S 
ATOM      3  C   UNL     1       3.061   6.388  18.332  0.00  0.00    +0.000 A 
ATOM      4  C   UNL     1       2.790   5.058  18.074  0.00  0.00    +0.000 A 
ATOM      5  C   UNL     1       3.874   4.487  17.272  0.00  0.00    +0.000 A 
ATOM      6  C   UNL     1       3.999   3.034  16.905  0.00  0.00    +0.000 C 
ENDROOT
BRANCH   3   7
ATOM      7  N   UNL     1       2.419   7.410  18.985  0.00  0.00    +0.000 N 
ATOM      8  C   UNL     1       1.976   8.543  18.339  0.00  0.00    +0.000 C 
ATOM      9  O   UNL     1       2.125   8.789  17.148  0.00  0.00    +0.000 OA
ATOM     10  H   UNL     1       2.535   7.422  19.987  0.00  0.00    +0.000 HD
BRANCH   8  11
ATOM     11  C   UNL     1       1.238   9.498  19.214  0.00  0.00    +0.000 A 
ATOM     12  C   UNL     1       0.930  10.810  18.823  0.00  0.00    +0.000 A 
ATOM     13  C   UNL     1       0.447  11.722  19.763  0.00  0.00    +0.000 A 
ATOM     14  C   UNL     1       0.243  11.319  21.081  0.00  0.00    +0.000 A 
ATOM     15  C   UNL     1       0.465   9.993  21.449  0.00  0.00    +0.000 A 
ATOM     16  C   UNL     1       0.953   9.079  20.517  0.00  0.00    +0.000 A 
ENDBRANCH   8  11
ENDBRANCH   3   7
BRANCH   1  17
ATOM     17  C   UNL     1       5.969   5.255  16.043  0.00  0.00    +0.000 C 
ATOM     18  O   UNL     1       7.139   5.373  16.394  0.00  0.00    +0.000 OA
BRANCH  17  19
ATOM     19  O   UNL     1       5.594   5.028  14.752  0.00  0.00    +0.000 OA
BRANCH  19  21
ATOM     20  C   UNL     1       5.704   3.629  12.840  0.00  0.00    +0.000 C 
ATOM     21  C   UNL     1       6.483   4.179  14.021  0.00  0.00    +0.000 C 
ENDBRANCH  19  21
ENDBRANCH  17  19
ENDBRANCH   1  17
BRANCH   4  22
ATOM     22  C   UNL     1       1.658   4.282  18.588  0.00  0.00    +0.000 C 
ATOM     23  O   UNL     1       1.081   3.440  17.908  0.00  0.00    +0.000 OA
BRANCH  22  24
ATOM     24  O   UNL     1       1.420   4.468  19.924  0.00  0.00    +0.000 OA
BRANCH  24  25
ATOM     25  C   UNL     1       1.126   3.264  20.650  0.00  0.00    +0.000 C 
ATOM     26  C   UNL     1       2.275   2.871  21.560  0.00  0.00    +0.000 C 
ENDBRANCH  24  25
ENDBRANCH  22  24
ENDBRANCH   4  22
TORSDOF 8
ENDMDL
MODEL 8
REMARK VINA RESULT:      -6.8      1.328      1.410
REMARK  Name = 
REMARK  11 active torsions:
REMARK  status: ('A' for Active; 'I' for Inactive)
REMARK    1  A    between atoms: C_1  and  C_2
REMARK    2  A    between atoms: C_2  and  O_3
REMARK    3  A    between atoms: O_3  and  C_4
REMARK    4  A    between atoms: C_4  and  C_6
REMARK    5  A    between atoms: C_8  and  N_9
REMARK    6  A    between atoms: C_10  and  C_12
REMARK    7  A    between atoms: C_18  and  C_19
REMARK    8  A    between atoms: C_19  and  O_21
REMARK    9  A    between atoms: O_21  and  C_22
REMARK   10  A    between atoms: C_22  and  C_23
REMARK   11  A    between atoms: C_24  and  C_25
REMARK                            x       y       z     vdW  Elec       q    Type
REMARK                         _______ _______ _______ _____ _____    ______ ____
ROOT
ATOM      1  C   UNL     1       5.115   4.750  18.209  0.00  0.00    +0.000 A 
ATOM      2  S   UNL     1       4.751   6.245  18.943  0.00  0.00    +0.000 S 
ATOM      3  C   UNL     1       3.089   5.940  18.920  0.00  0.00    +0.000 A 
ATOM      4  C   UNL     1       2.761   4.664  18.504  0.00  0.00    +0.000 A 
ATOM      5  C   UNL     1       3.981   3.941  18.140  0.00  0.00    +0.000 A 
ATOM      6  C   UNL     1       4.040   2.486  17.766  0.00  0.00    +0.000 C 
ENDROOT
BRANCH   3   7
ATOM      7  N   UNL     1       2.391   7.044  19.338  0.00  0.00    +0.000 N 
ATOM      8  C   UNL     1       2.154   8.128  18.521  0.00  0.00    +0.000 C 
ATOM      9  O   UNL     1       2.554   8.254  17.370  0.00  0.00    +0.000 OA
ATOM     10  H   UNL     1       2.303   7.147  20.337  0.00  0.00    +0.000 HD
BRANCH   8  11
ATOM     11  C   UNL     1       1.314   9.191  19.142  0.00  0.00    +0.000 A 
ATOM     12  C   UNL     1       1.146   9.317  20.530  0.00  0.00    +0.000 A 
ATOM     13  C   UNL     1       0.173  10.180  21.038  0.00  0.00    +0.000 A 
ATOM     14  C   UNL     1      -0.609  10.936  20.167  0.00  0.00    +0.000 A 
ATOM     15  C   UNL     1      -0.382  10.876  18.793  0.00  0.00    +0.000 A 
ATOM     16  C   UNL     1       0.583  10.013  18.279  0.00  0.00    +0.000 A 
ENDBRANCH   8  11
ENDBRANCH   3   7
BRANCH   1  17
ATOM     17  C   UNL     1       6.470   4.395  17.838  0.00  0.00    +0.000 C 
ATOM     18  O   UNL     1       7.461   4.562  18.544  0.00  0.00    +0.000 OA
BRANCH  17  19
ATOM     19  O   UNL     1       6.533   3.942  16.555  0.00  0.00    +0.000 OA
BRANCH  19  21
ATOM     20  C   UNL     1       5.529   4.469  14.471  0.00  0.00    +0.000 C 
ATOM     21  C   UNL     1       6.458   4.970  15.563  0.00  0.00    +0.000 C 
ENDBRANCH  19  21
ENDBRANCH  17  19
ENDBRANCH   1  17
BRANCH   4  22
ATOM     22  C   UNL     1       1.425   4.061  18.508  0.00  0.00    +0.000 C 
ATOM     23  O   UNL     1       0.921   3.582  17.497  0.00  0.00    +0.000 OA
BRANCH  22  24
ATOM     24  O   UNL     1       0.876   3.939  19.756  0.00  0.00    +0.000 OA
BRANCH  24  25
ATOM     25  C   UNL     1       1.273   2.758  20.470  0.00  0.00    +0.000 C 
ATOM     26  C   UNL     1       2.126   3.101  21.677  0.00  0.00    +0.000 C 
ENDBRANCH  24  25
ENDBRANCH  22  24
ENDBRANCH   4  22
TORSDOF 8
ENDMDL
MODEL 9
REMARK VINA RESULT:      -6.8      1.050      1.462
REMARK  Name = 
REMARK  11 active torsions:
REMARK  status: ('A' for Active; 'I' for Inactive)
REMARK    1  A    between atoms: C_1  and  C_2
REMARK    2  A    between atoms: C_2  and  O_3
REMARK    3  A    between atoms: O_3  and  C_4
REMARK    4  A    between atoms: C_4  and  C_6
REMARK    5  A    between atoms: C_8  and  N_9
REMARK    6  A    between atoms: C_10  and  C_12
REMARK    7  A    between atoms: C_18  and  C_19
REMARK    8  A    between atoms: C_19  and  O_21
REMARK    9  A    between atoms: O_21  and  C_22
REMARK   10  A    between atoms: C_22  and  C_23
REMARK   11  A    between atoms: C_24  and  C_25
REMARK                            x       y       z     vdW  Elec       q    Type
REMARK                         _______ _______ _______ _____ _____    ______ ____
ROOT
ATOM      1  C   UNL     1       5.589   4.983  17.295  0.00  0.00    +0.000 A 
ATOM      2  S   UNL     1       5.210   6.257  18.363  0.00  0.00    +0.000 S 
ATOM      3  C   UNL     1       3.610   5.741  18.533  0.00  0.00    +0.000 A 
ATOM      4  C   UNL     1       3.344   4.531  17.923  0.00  0.00    +0.000 A 
ATOM      5  C   UNL     1       4.548   4.056  17.238  0.00  0.00    +0.000 A 
ATOM      6  C   UNL     1       4.687   2.715  16.572  0.00  0.00    +0.000 C 
ENDROOT
BRANCH   3   7
ATOM      7  N   UNL     1       2.888   6.648  19.269  0.00  0.00    +0.000 N 
ATOM      8  C   UNL     1       2.327   7.777  18.714  0.00  0.00    +0.000 C 
ATOM      9  O   UNL     1       2.429   8.121  17.543  0.00  0.00    +0.000 OA
ATOM     10  H   UNL     1       3.023   6.598  20.267  0.00  0.00    +0.000 HD
BRANCH   8  11
ATOM     11  C   UNL     1       1.521   8.591  19.668  0.00  0.00    +0.000 A 
ATOM     12  C   UNL     1       0.973   9.839  19.332  0.00  0.00    +0.000 A 
ATOM     13  C   UNL     1       0.429  10.651  20.329  0.00  0.00    +0.000 A 
ATOM     14  C   UNL     1       0.404  10.209  21.650  0.00  0.00    +0.000 A 
ATOM     15  C   UNL     1       0.868   8.934  21.969  0.00  0.00    +0.000 A 
ATOM     16  C   UNL     1       1.418   8.120  20.980  0.00  0.00    +0.000 A 
ENDBRANCH   8  11
ENDBRANCH   3   7
BRANCH   1  17
ATOM     17  C   UNL     1       6.886   4.886  16.657  0.00  0.00    +0.000 C 
ATOM     18  O   UNL     1       7.892   4.410  17.174  0.00  0.00    +0.000 OA
BRANCH  17  19
ATOM     19  O   UNL     1       6.885   5.487  15.434  0.00  0.00    +0.000 OA
BRANCH  19  21
ATOM     20  C   UNL     1       5.897   4.193  13.709  0.00  0.00    +0.000 C 
ATOM     21  C   UNL     1       7.208   4.614  14.348  0.00  0.00    +0.000 C 
ENDBRANCH  19  21
ENDBRANCH  17  19
ENDBRANCH   1  17
BRANCH   4  22
ATOM     22  C   UNL     1       2.098   3.765  18.009  0.00  0.00    +0.000 C 
ATOM     23  O   UNL     1       1.100   4.064  17.362  0.00  0.00    +0.000 OA
BRANCH  22  24
ATOM     24  O   UNL     1       2.207   2.611  18.740  0.00  0.00    +0.000 OA
BRANCH  24  25
ATOM     25  C   UNL     1       2.374   2.812  20.152  0.00  0.00    +0.000 C 
ATOM     26  C   UNL     1       1.187   3.544  20.752  0.00  0.00    +0.000 C 
ENDBRANCH  24  25
ENDBRANCH  22  24
ENDBRANCH   4  22
TORSDOF 8
ENDMDL
