MODEL 1
REMARK VINA RESULT:      -7.1      0.000      0.000
REMARK  Name = 
REMARK  3 active torsions:
REMARK  status: ('A' for Active; 'I' for Inactive)
REMARK    1  A    between atoms: C_1  and  C_2
REMARK    2  A    between atoms: C_5  and  C_6
REMARK    3  A    between atoms: N_9  and  C_10
REMARK                            x       y       z     vdW  Elec       q    Type
REMARK                         _______ _______ _______ _____ _____    ______ ____
ROOT
ATOM      1  C   UNL     1       2.485   7.469  19.430  0.00  0.00    +0.000 C 
ATOM      2  C   UNL     1       2.437   8.192  18.121  0.00  0.00    +0.000 C 
ATOM      3  N   UNL     1       1.660   9.227  18.108  0.00  0.00    +0.000 NA
ATOM      4  N   UNL     1       1.117   9.323  19.378  0.00  0.00    +0.000 N 
ATOM      5  C   UNL     1       1.555   8.315  20.261  0.00  0.00    +0.000 C 
ATOM      6  O   UNL     1       1.292   8.125  21.438  0.00  0.00    +0.000 OA
ENDROOT
BRANCH   1  11
ATOM      7  C   UNL     1       0.882   1.889  18.876  0.00  0.00    +0.000 C 
ATOM      8  C   UNL     1       1.293   3.324  19.016  0.00  0.00    +0.000 A 
ATOM      9  C   UNL     1       1.667   4.077  17.901  0.00  0.00    +0.000 A 
ATOM     10  C   UNL     1       2.058   5.411  18.043  0.00  0.00    +0.000 A 
ATOM     11  C   UNL     1       2.079   6.020  19.306  0.00  0.00    +0.000 A 
ATOM     12  C   UNL     1       1.706   5.259  20.425  0.00  0.00    +0.000 A 
ATOM     13  C   UNL     1       1.316   3.925  20.279  0.00  0.00    +0.000 A 
ENDBRANCH   1  11
BRANCH   4  14
ATOM     14  C   UNL     1       0.274  10.425  19.672  0.00  0.00    +0.000 A 
ATOM     15  C   UNL     1      -0.963  10.596  19.035  0.00  0.00    +0.000 A 
ATOM     16  C   UNL     1      -1.812  11.654  19.379  0.00  0.00    +0.000 A 
ATOM     17  C   UNL     1      -1.425  12.565  20.356  0.00  0.00    +0.000 A 
ATOM     18 BR   UNL     1      -2.588  13.972  20.843  0.00  0.00    +0.000 Br
ATOM     19  C   UNL     1      -0.189  12.436  20.981  0.00  0.00    +0.000 A 
ATOM     20  C   UNL     1       0.653  11.370  20.641  0.00  0.00    +0.000 A 
ENDBRANCH   4  14
TORSDOF 2
ENDMDL
MODEL 2
REMARK VINA RESULT:      -7.1      3.712      7.180
REMARK  Name = 
REMARK  3 active torsions:
REMARK  status: ('A' for Active; 'I' for Inactive)
REMARK    1  A    between atoms: C_1  and  C_2
REMARK    2  A    between atoms: C_5  and  C_6
REMARK    3  A    between atoms: N_9  and  C_10
REMARK                            x       y       z     vdW  Elec       q    Type
REMARK                         _______ _______ _______ _____ _____    ______ ____
ROOT
ATOM      1  C   UNL     1       0.985  10.030  19.400  0.00  0.00    +0.000 C 
ATOM      2  C   UNL     1       0.974   8.945  20.431  0.00  0.00    +0.000 C 
ATOM      3  N   UNL     1       1.606   7.870  20.085  0.00  0.00    +0.000 NA
ATOM      4  N   UNL     1       2.111   8.105  18.817  0.00  0.00    +0.000 N 
ATOM      5  C   UNL     1       1.802   9.383  18.310  0.00  0.00    +0.000 C 
ATOM      6  O   UNL     1       2.107   9.910  17.252  0.00  0.00    +0.000 OA
ENDROOT
BRANCH   1  11
ATOM      7  C   UNL     1      -4.364  11.627  17.712  0.00  0.00    +0.000 C 
ATOM      8  C   UNL     1      -2.988  11.217  18.144  0.00  0.00    +0.000 A 
ATOM      9  C   UNL     1      -2.308  10.186  17.491  0.00  0.00    +0.000 A 
ATOM     10  C   UNL     1      -1.030   9.804  17.907  0.00  0.00    +0.000 A 
ATOM     11  C   UNL     1      -0.405  10.447  18.984  0.00  0.00    +0.000 A 
ATOM     12  C   UNL     1      -1.093  11.480  19.640  0.00  0.00    +0.000 A 
ATOM     13  C   UNL     1      -2.371  11.859  19.222  0.00  0.00    +0.000 A 
ENDBRANCH   1  11
BRANCH   4  14
ATOM     14  C   UNL     1       2.920   7.107  18.215  0.00  0.00    +0.000 A 
ATOM     15  C   UNL     1       2.583   5.748  18.280  0.00  0.00    +0.000 A 
ATOM     16  C   UNL     1       3.357   4.780  17.630  0.00  0.00    +0.000 A 
ATOM     17  C   UNL     1       4.489   5.161  16.918  0.00  0.00    +0.000 A 
ATOM     18 BR   UNL     1       5.513   3.857  16.012  0.00  0.00    +0.000 Br
ATOM     19  C   UNL     1       4.863   6.499  16.864  0.00  0.00    +0.000 A 
ATOM     20  C   UNL     1       4.079   7.466  17.508  0.00  0.00    +0.000 A 
ENDBRANCH   4  14
TORSDOF 2
ENDMDL
MODEL 3
REMARK VINA RESULT:      -7.0      0.047      1.079
REMARK  Name = 
REMARK  3 active torsions:
REMARK  status: ('A' for Active; 'I' for Inactive)
REMARK    1  A    between atoms: C_1  and  C_2
REMARK    2  A    between atoms: C_5  and  C_6
REMARK    3  A    between atoms: N_9  and  C_10
REMARK                            x       y       z     vdW  Elec       q    Type
REMARK                         _______ _______ _______ _____ _____    ______ ____
ROOT
ATOM      1  C   UNL     1       2.489   7.453  19.389  0.00  0.00    +0.000 C 
ATOM      2  C   UNL     1       2.457   8.192  18.088  0.00  0.00    +0.000 C 
ATOM      3  N   UNL     1       1.689   9.233  18.082  0.00  0.00    +0.000 NA
ATOM      4  N   UNL     1       1.137   9.319  19.349  0.00  0.00    +0.000 N 
ATOM      5  C   UNL     1       1.559   8.297  20.222  0.00  0.00    +0.000 C 
ATOM      6  O   UNL     1       1.285   8.095  21.395  0.00  0.00    +0.000 OA
ENDROOT
BRANCH   1  11
ATOM      7  C   UNL     1       0.916   1.857  18.906  0.00  0.00    +0.000 C 
ATOM      8  C   UNL     1       1.321   3.295  19.031  0.00  0.00    +0.000 A 
ATOM      9  C   UNL     1       1.346   3.929  20.276  0.00  0.00    +0.000 A 
ATOM     10  C   UNL     1       1.716   5.272  20.382  0.00  0.00    +0.000 A 
ATOM     11  C   UNL     1       2.072   6.009  19.244  0.00  0.00    +0.000 A 
ATOM     12  C   UNL     1       2.043   5.370  17.995  0.00  0.00    +0.000 A 
ATOM     13  C   UNL     1       1.672   4.027  17.892  0.00  0.00    +0.000 A 
ENDBRANCH   1  11
BRANCH   4  14
ATOM     14  C   UNL     1       0.300  10.424  19.649  0.00  0.00    +0.000 A 
ATOM     15  C   UNL     1      -0.951  10.589  19.038  0.00  0.00    +0.000 A 
ATOM     16  C   UNL     1      -1.792  11.651  19.389  0.00  0.00    +0.000 A 
ATOM     17  C   UNL     1      -1.384  12.572  20.347  0.00  0.00    +0.000 A 
ATOM     18 BR   UNL     1      -2.535  13.985  20.844  0.00  0.00    +0.000 Br
ATOM     19  C   UNL     1      -0.134  12.450  20.946  0.00  0.00    +0.000 A 
ATOM     20  C   UNL     1       0.700  11.379  20.599  0.00  0.00    +0.000 A 
ENDBRANCH   4  14
TORSDOF 2
ENDMDL
MODEL 4
REMARK VINA RESULT:      -7.0      0.103      1.082
REMARK  Name = 
REMARK  3 active torsions:
REMARK  status: ('A' for Active; 'I' for Inactive)
REMARK    1  A    between atoms: C_1  and  C_2
REMARK    2  A    between atoms: C_5  and  C_6
REMARK    3  A    between atoms: N_9  and  C_10
REMARK                            x       y       z     vdW  Elec       q    Type
REMARK                         _______ _______ _______ _____ _____    ______ ____
ROOT
ATOM      1  C   UNL     1       2.452   7.495  19.410  0.00  0.00    +0.000 C 
ATOM      2  C   UNL     1       2.323   8.234  18.115  0.00  0.00    +0.000 C 
ATOM      3  N   UNL     1       1.538   9.261  18.159  0.00  0.00    +0.000 NA
ATOM      4  N   UNL     1       1.067   9.338  19.459  0.00  0.00    +0.000 N 
ATOM      5  C   UNL     1       1.563   8.323  20.303  0.00  0.00    +0.000 C 
ATOM      6  O   UNL     1       1.371   8.117  21.491  0.00  0.00    +0.000 OA
ENDROOT
BRANCH   1  11
ATOM      7  C   UNL     1       0.873   1.906  18.879  0.00  0.00    +0.000 C 
ATOM      8  C   UNL     1       1.278   3.344  19.014  0.00  0.00    +0.000 A 
ATOM      9  C   UNL     1       1.656   4.092  17.896  0.00  0.00    +0.000 A 
ATOM     10  C   UNL     1       2.041   5.428  18.033  0.00  0.00    +0.000 A 
ATOM     11  C   UNL     1       2.052   6.045  19.292  0.00  0.00    +0.000 A 
ATOM     12  C   UNL     1       1.676   5.289  20.413  0.00  0.00    +0.000 A 
ATOM     13  C   UNL     1       1.292   3.953  20.273  0.00  0.00    +0.000 A 
ENDBRANCH   1  11
BRANCH   4  14
ATOM     14  C   UNL     1       0.233  10.428  19.814  0.00  0.00    +0.000 A 
ATOM     15  C   UNL     1       0.619  11.367  20.781  0.00  0.00    +0.000 A 
ATOM     16  C   UNL     1      -0.187  12.472  21.077  0.00  0.00    +0.000 A 
ATOM     17  C   UNL     1      -1.399  12.643  20.418  0.00  0.00    +0.000 A 
ATOM     18 BR   UNL     1      -2.470  14.154  20.794  0.00  0.00    +0.000 Br
ATOM     19  C   UNL     1      -1.821  11.709  19.477  0.00  0.00    +0.000 A 
ATOM     20  C   UNL     1      -1.006  10.610  19.176  0.00  0.00    +0.000 A 
ENDBRANCH   4  14
TORSDOF 2
ENDMDL
MODEL 5
REMARK VINA RESULT:      -7.0      3.693      7.289
REMARK  Name = 
REMARK  3 active torsions:
REMARK  status: ('A' for Active; 'I' for Inactive)
REMARK    1  A    between atoms: C_1  and  C_2
REMARK    2  A    between atoms: C_5  and  C_6
REMARK    3  A    between atoms: N_9  and  C_10
REMARK                            x       y       z     vdW  Elec       q    Type
REMARK                         _______ _______ _______ _____ _____    ______ ____
ROOT
ATOM      1  C   UNL     1       1.005  10.047  19.489  0.00  0.00    +0.000 C 
ATOM      2  C   UNL     1       1.003   8.930  20.485  0.00  0.00    +0.000 C 
ATOM      3  N   UNL     1       1.609   7.857  20.089  0.00  0.00    +0.000 NA
ATOM      4  N   UNL     1       2.086   8.125  18.817  0.00  0.00    +0.000 N 
ATOM      5  C   UNL     1       1.784   9.423  18.359  0.00  0.00    +0.000 C 
ATOM      6  O   UNL     1       2.072   9.980  17.311  0.00  0.00    +0.000 OA
ENDROOT
BRANCH   1  11
ATOM      7  C   UNL     1      -4.393  11.804  18.150  0.00  0.00    +0.000 C 
ATOM      8  C   UNL     1      -3.006  11.353  18.496  0.00  0.00    +0.000 A 
ATOM      9  C   UNL     1      -2.296  11.947  19.543  0.00  0.00    +0.000 A 
ATOM     10  C   UNL     1      -1.000  11.526  19.851  0.00  0.00    +0.000 A 
ATOM     11  C   UNL     1      -0.388  10.498  19.121  0.00  0.00    +0.000 A 
ATOM     12  C   UNL     1      -1.102   9.905  18.068  0.00  0.00    +0.000 A 
ATOM     13  C   UNL     1      -2.398  10.329  17.761  0.00  0.00    +0.000 A 
ENDBRANCH   1  11
BRANCH   4  14
ATOM     14  C   UNL     1       2.864   7.135  18.165  0.00  0.00    +0.000 A 
ATOM     15  C   UNL     1       4.024   7.464  17.449  0.00  0.00    +0.000 A 
ATOM     16  C   UNL     1       4.816   6.471  16.861  0.00  0.00    +0.000 A 
ATOM     17  C   UNL     1       4.448   5.135  16.971  0.00  0.00    +0.000 A 
ATOM     18 BR   UNL     1       5.537   3.793  16.207  0.00  0.00    +0.000 Br
ATOM     19  C   UNL     1       3.285   4.784  17.649  0.00  0.00    +0.000 A 
ATOM     20  C   UNL     1       2.501   5.780  18.244  0.00  0.00    +0.000 A 
ENDBRANCH   4  14
TORSDOF 2
ENDMDL
MODEL 6
REMARK VINA RESULT:      -6.9      0.123      1.529
REMARK  Name = 
REMARK  3 active torsions:
REMARK  status: ('A' for Active; 'I' for Inactive)
REMARK    1  A    between atoms: C_1  and  C_2
REMARK    2  A    between atoms: C_5  and  C_6
REMARK    3  A    between atoms: N_9  and  C_10
REMARK                            x       y       z     vdW  Elec       q    Type
REMARK                         _______ _______ _______ _____ _____    ______ ____
ROOT
ATOM      1  C   UNL     1       2.456   7.530  19.400  0.00  0.00    +0.000 C 
ATOM      2  C   UNL     1       2.354   8.297  18.120  0.00  0.00    +0.000 C 
ATOM      3  N   UNL     1       1.572   9.327  18.173  0.00  0.00    +0.000 NA
ATOM      4  N   UNL     1       1.079   9.377  19.466  0.00  0.00    +0.000 N 
ATOM      5  C   UNL     1       1.555   8.342  20.295  0.00  0.00    +0.000 C 
ATOM      6  O   UNL     1       1.340   8.110  21.475  0.00  0.00    +0.000 OA
ENDROOT
BRANCH   1  11
ATOM      7  C   UNL     1       0.934   1.925  18.868  0.00  0.00    +0.000 C 
ATOM      8  C   UNL     1       1.326   3.365  19.006  0.00  0.00    +0.000 A 
ATOM      9  C   UNL     1       1.333   3.992  20.255  0.00  0.00    +0.000 A 
ATOM     10  C   UNL     1       1.691   5.337  20.373  0.00  0.00    +0.000 A 
ATOM     11  C   UNL     1       2.053   6.084  19.243  0.00  0.00    +0.000 A 
ATOM     12  C   UNL     1       2.042   5.452  17.990  0.00  0.00    +0.000 A 
ATOM     13  C   UNL     1       1.683   4.107  17.875  0.00  0.00    +0.000 A 
ENDBRANCH   1  11
BRANCH   4  14
ATOM     14  C   UNL     1       0.242  10.463  19.829  0.00  0.00    +0.000 A 
ATOM     15  C   UNL     1       0.629  11.397  20.800  0.00  0.00    +0.000 A 
ATOM     16  C   UNL     1      -0.179  12.498  21.105  0.00  0.00    +0.000 A 
ATOM     17  C   UNL     1      -1.394  12.669  20.451  0.00  0.00    +0.000 A 
ATOM     18 BR   UNL     1      -2.468  14.175  20.839  0.00  0.00    +0.000 Br
ATOM     19  C   UNL     1      -1.816  11.740  19.506  0.00  0.00    +0.000 A 
ATOM     20  C   UNL     1      -0.999  10.645  19.196  0.00  0.00    +0.000 A 
ENDBRANCH   4  14
TORSDOF 2
ENDMDL
MODEL 7
REMARK VINA RESULT:      -6.9      3.520      7.157
REMARK  Name = 
REMARK  3 active torsions:
REMARK  status: ('A' for Active; 'I' for Inactive)
REMARK    1  A    between atoms: C_1  and  C_2
REMARK    2  A    between atoms: C_5  and  C_6
REMARK    3  A    between atoms: N_9  and  C_10
REMARK                            x       y       z     vdW  Elec       q    Type
REMARK                         _______ _______ _______ _____ _____    ______ ____
ROOT
ATOM      1  C   UNL     1       0.871  10.103  19.355  0.00  0.00    +0.000 C 
ATOM      2  C   UNL     1       0.824   9.691  20.793  0.00  0.00    +0.000 C 
ATOM      3  N   UNL     1       1.259   8.494  21.022  0.00  0.00    +0.000 NA
ATOM      4  N   UNL     1       1.650   7.979  19.798  0.00  0.00    +0.000 N 
ATOM      5  C   UNL     1       1.467   8.871  18.722  0.00  0.00    +0.000 C 
ATOM      6  O   UNL     1       1.724   8.743  17.535  0.00  0.00    +0.000 OA
ENDROOT
BRANCH   1  11
ATOM      7  C   UNL     1      -4.394  11.632  17.367  0.00  0.00    +0.000 C 
ATOM      8  C   UNL     1      -3.041  11.239  17.880  0.00  0.00    +0.000 A 
ATOM      9  C   UNL     1      -2.490  11.860  19.003  0.00  0.00    +0.000 A 
ATOM     10  C   UNL     1      -1.224  11.494  19.468  0.00  0.00    +0.000 A 
ATOM     11  C   UNL     1      -0.485  10.495  18.820  0.00  0.00    +0.000 A 
ATOM     12  C   UNL     1      -1.040   9.875  17.689  0.00  0.00    +0.000 A 
ATOM     13  C   UNL     1      -2.306  10.244  17.226  0.00  0.00    +0.000 A 
ENDBRANCH   1  11
BRANCH   4  14
ATOM     14  C   UNL     1       2.243   6.691  19.763  0.00  0.00    +0.000 A 
ATOM     15  C   UNL     1       3.341   6.407  18.940  0.00  0.00    +0.000 A 
ATOM     16  C   UNL     1       3.954   5.149  18.962  0.00  0.00    +0.000 A 
ATOM     17  C   UNL     1       3.465   4.154  19.799  0.00  0.00    +0.000 A 
ATOM     18 BR   UNL     1       4.316   2.467  19.853  0.00  0.00    +0.000 Br
ATOM     19  C   UNL     1       2.357   4.399  20.603  0.00  0.00    +0.000 A 
ATOM     20  C   UNL     1       1.753   5.662  20.586  0.00  0.00    +0.000 A 
ENDBRANCH   4  14
TORSDOF 2
ENDMDL
MODEL 8
REMARK VINA RESULT:      -6.9      3.550      7.100
REMARK  Name = 
REMARK  3 active torsions:
REMARK  status: ('A' for Active; 'I' for Inactive)
REMARK    1  A    between atoms: C_1  and  C_2
REMARK    2  A    between atoms: C_5  and  C_6
REMARK    3  A    between atoms: N_9  and  C_10
REMARK                            x       y       z     vdW  Elec       q    Type
REMARK                         _______ _______ _______ _____ _____    ______ ____
ROOT
ATOM      1  C   UNL     1       0.969   9.970  19.409  0.00  0.00    +0.000 C 
ATOM      2  C   UNL     1       0.877   9.543  20.840  0.00  0.00    +0.000 C 
ATOM      3  N   UNL     1       1.295   8.340  21.069  0.00  0.00    +0.000 NA
ATOM      4  N   UNL     1       1.717   7.835  19.851  0.00  0.00    +0.000 N 
ATOM      5  C   UNL     1       1.572   8.740  18.780  0.00  0.00    +0.000 C 
ATOM      6  O   UNL     1       1.863   8.623  17.600  0.00  0.00    +0.000 OA
ENDROOT
BRANCH   1  11
ATOM      7  C   UNL     1      -4.164  11.540  17.129  0.00  0.00    +0.000 C 
ATOM      8  C   UNL     1      -2.844  11.136  17.713  0.00  0.00    +0.000 A 
ATOM      9  C   UNL     1      -2.068  10.140  17.116  0.00  0.00    +0.000 A 
ATOM     10  C   UNL     1      -0.843   9.764  17.673  0.00  0.00    +0.000 A 
ATOM     11  C   UNL     1      -0.367  10.380  18.839  0.00  0.00    +0.000 A 
ATOM     12  C   UNL     1      -1.151  11.378  19.439  0.00  0.00    +0.000 A 
ATOM     13  C   UNL     1      -2.376  11.751  18.879  0.00  0.00    +0.000 A 
ENDBRANCH   1  11
BRANCH   4  14
ATOM     14  C   UNL     1       2.300   6.542  19.820  0.00  0.00    +0.000 A 
ATOM     15  C   UNL     1       3.480   6.284  19.109  0.00  0.00    +0.000 A 
ATOM     16  C   UNL     1       4.078   5.018  19.138  0.00  0.00    +0.000 A 
ATOM     17  C   UNL     1       3.490   3.990  19.867  0.00  0.00    +0.000 A 
ATOM     18 BR   UNL     1       4.317   2.292  19.932  0.00  0.00    +0.000 Br
ATOM     19  C   UNL     1       2.302   4.212  20.555  0.00  0.00    +0.000 A 
ATOM     20  C   UNL     1       1.713   5.483  20.532  0.00  0.00    +0.000 A 
ENDBRANCH   4  14
TORSDOF 2
ENDMDL
MODEL 9
REMARK VINA RESULT:      -6.8      3.503      7.065
REMARK  Name = 
REMARK  3 active torsions:
REMARK  status: ('A' for Active; 'I' for Inactive)
REMARK    1  A    between atoms: C_1  and  C_2
REMARK    2  A    between atoms: C_5  and  C_6
REMARK    3  A    between atoms: N_9  and  C_10
REMARK                            x       y       z     vdW  Elec       q    Type
REMARK                         _______ _______ _______ _____ _____    ______ ____
ROOT
ATOM      1  C   UNL     1       0.709  10.309  19.236  0.00  0.00    +0.000 C 
ATOM      2  C   UNL     1       0.677   9.912  20.679  0.00  0.00    +0.000 C 
ATOM      3  N   UNL     1       1.172   8.742  20.924  0.00  0.00    +0.000 NA
ATOM      4  N   UNL     1       1.593   8.233  19.706  0.00  0.00    +0.000 N 
ATOM      5  C   UNL     1       1.369   9.102  18.620  0.00  0.00    +0.000 C 
ATOM      6  O   UNL     1       1.637   8.975  17.435  0.00  0.00    +0.000 OA
ENDROOT
BRANCH   1  11
ATOM      7  C   UNL     1      -4.564  11.513  17.055  0.00  0.00    +0.000 C 
ATOM      8  C   UNL     1      -3.208  11.204  17.614  0.00  0.00    +0.000 A 
ATOM      9  C   UNL     1      -2.411  10.203  17.053  0.00  0.00    +0.000 A 
ATOM     10  C   UNL     1      -1.152   9.915  17.587  0.00  0.00    +0.000 A 
ATOM     11  C   UNL     1      -0.663  10.625  18.692  0.00  0.00    +0.000 A 
ATOM     12  C   UNL     1      -1.469  11.627  19.256  0.00  0.00    +0.000 A 
ATOM     13  C   UNL     1      -2.727  11.913  18.720  0.00  0.00    +0.000 A 
ENDBRANCH   1  11
BRANCH   4  14
ATOM     14  C   UNL     1       2.252   6.977  19.689  0.00  0.00    +0.000 A 
ATOM     15  C   UNL     1       1.913   5.956  20.588  0.00  0.00    +0.000 A 
ATOM     16  C   UNL     1       2.528   4.701  20.520  0.00  0.00    +0.000 A 
ATOM     17  C   UNL     1       3.503   4.457  19.559  0.00  0.00    +0.000 A 
ATOM     18 BR   UNL     1       4.307   2.751  19.446  0.00  0.00    +0.000 Br
ATOM     19  C   UNL     1       3.879   5.463  18.675  0.00  0.00    +0.000 A 
ATOM     20  C   UNL     1       3.254   6.714  18.740  0.00  0.00    +0.000 A 
ENDBRANCH   4  14
TORSDOF 2
ENDMDL
