MODEL 1
REMARK VINA RESULT:      -7.2      0.000      0.000
REMARK  Name = 
REMARK  4 active torsions:
REMARK  status: ('A' for Active; 'I' for Inactive)
REMARK    1  A    between atoms: C_2  and  C_12
REMARK    2  A    between atoms: N_3  and  N_4
REMARK    3  A    between atoms: C_5  and  C_6
REMARK    4  A    between atoms: C_18  and  O_19
REMARK                            x       y       z     vdW  Elec       q    Type
REMARK                         _______ _______ _______ _____ _____    ______ ____
ROOT
ATOM      1  O   UNL     1       4.937   5.704  16.509  0.00  0.00    +0.000 OA
ATOM      2  C   UNL     1       5.268   4.581  16.132  0.00  0.00    +0.000 C 
ATOM      3  N   UNL     1       5.051   3.415  16.847  0.00  0.00    +0.000 N 
ATOM      4  H   UNL     1       5.406   2.529  16.494  0.00  0.00    +0.000 HD
ENDROOT
BRANCH   2   5
ATOM      5  C   UNL     1       5.911   4.447  14.797  0.00  0.00    +0.000 A 
ATOM      6  C   UNL     1       5.240   3.653  13.854  0.00  0.00    +0.000 A 
ATOM      7  C   UNL     1       5.749   3.505  12.568  0.00  0.00    +0.000 A 
ATOM      8 CL   UNL     1       4.929   2.510  11.430  0.00  0.00    +0.000 Cl
ATOM      9  C   UNL     1       6.923   4.158  12.198  0.00  0.00    +0.000 A 
ATOM     10  C   UNL     1       7.598   4.958  13.124  0.00  0.00    +0.000 A 
ATOM     11  C   UNL     1       7.097   5.098  14.423  0.00  0.00    +0.000 A 
BRANCH  11  12
ATOM     12  O   UNL     1       7.777   5.881  15.315  0.00  0.00    +0.000 OA
ATOM     13  H   UNL     1       8.125   5.311  16.024  0.00  0.00    +0.000 HD
ENDBRANCH  11  12
ENDBRANCH   2   5
BRANCH   3  14
ATOM     14  N   UNL     1       4.530   3.510  18.101  0.00  0.00    +0.000 NA
ATOM     15  C   UNL     1       3.712   2.581  18.466  0.00  0.00    +0.000 C 
BRANCH  15  16
ATOM     16  C   UNL     1       3.170   2.595  19.884  0.00  0.00    +0.000 C 
ATOM     17  C   UNL     1       3.178   4.002  20.483  0.00  0.00    +0.000 C 
ATOM     18  C   UNL     1       2.106   4.912  19.891  0.00  0.00    +0.000 C 
ATOM     19  C   UNL     1       0.721   4.272  19.924  0.00  0.00    +0.000 C 
ATOM     20  C   UNL     1       0.709   2.877  19.306  0.00  0.00    +0.000 C 
ATOM     21  C   UNL     1       1.774   1.970  19.918  0.00  0.00    +0.000 C 
ENDBRANCH  15  16
ENDBRANCH   3  14
TORSDOF 4
ENDMDL
MODEL 2
REMARK VINA RESULT:      -7.0      0.874      1.049
REMARK  Name = 
REMARK  4 active torsions:
REMARK  status: ('A' for Active; 'I' for Inactive)
REMARK    1  A    between atoms: C_2  and  C_12
REMARK    2  A    between atoms: N_3  and  N_4
REMARK    3  A    between atoms: C_5  and  C_6
REMARK    4  A    between atoms: C_18  and  O_19
REMARK                            x       y       z     vdW  Elec       q    Type
REMARK                         _______ _______ _______ _____ _____    ______ ____
ROOT
ATOM      1  O   UNL     1       6.279   5.991  16.068  0.00  0.00    +0.000 OA
ATOM      2  C   UNL     1       6.091   4.845  15.663  0.00  0.00    +0.000 C 
ATOM      3  N   UNL     1       5.580   3.812  16.431  0.00  0.00    +0.000 N 
ATOM      4  H   UNL     1       5.508   2.875  16.040  0.00  0.00    +0.000 HD
ENDROOT
BRANCH   2   5
ATOM      5  C   UNL     1       6.392   4.543  14.237  0.00  0.00    +0.000 A 
ATOM      6  C   UNL     1       5.444   3.772  13.546  0.00  0.00    +0.000 A 
ATOM      7  C   UNL     1       5.626   3.476  12.198  0.00  0.00    +0.000 A 
ATOM      8 CL   UNL     1       4.469   2.510  11.370  0.00  0.00    +0.000 Cl
ATOM      9  C   UNL     1       6.741   3.959  11.517  0.00  0.00    +0.000 A 
ATOM     10  C   UNL     1       7.688   4.734  12.191  0.00  0.00    +0.000 A 
ATOM     11  C   UNL     1       7.518   5.022  13.550  0.00  0.00    +0.000 A 
BRANCH  11  12
ATOM     12  O   UNL     1       8.461   5.779  14.191  0.00  0.00    +0.000 OA
ATOM     13  H   UNL     1       9.259   5.815  13.633  0.00  0.00    +0.000 HD
ENDBRANCH  11  12
ENDBRANCH   2   5
BRANCH   3  14
ATOM     14  N   UNL     1       5.361   4.035  17.756  0.00  0.00    +0.000 NA
ATOM     15  C   UNL     1       4.201   3.714  18.219  0.00  0.00    +0.000 C 
BRANCH  15  16
ATOM     16  C   UNL     1       3.936   3.863  19.706  0.00  0.00    +0.000 C 
ATOM     17  C   UNL     1       3.063   5.081  20.010  0.00  0.00    +0.000 C 
ATOM     18  C   UNL     1       1.605   4.890  19.604  0.00  0.00    +0.000 C 
ATOM     19  C   UNL     1       1.015   3.597  20.158  0.00  0.00    +0.000 C 
ATOM     20  C   UNL     1       1.875   2.379  19.837  0.00  0.00    +0.000 C 
ATOM     21  C   UNL     1       3.328   2.575  20.263  0.00  0.00    +0.000 C 
ENDBRANCH  15  16
ENDBRANCH   3  14
TORSDOF 4
ENDMDL
MODEL 3
REMARK VINA RESULT:      -6.9      5.794      7.908
REMARK  Name = 
REMARK  4 active torsions:
REMARK  status: ('A' for Active; 'I' for Inactive)
REMARK    1  A    between atoms: C_2  and  C_12
REMARK    2  A    between atoms: N_3  and  N_4
REMARK    3  A    between atoms: C_5  and  C_6
REMARK    4  A    between atoms: C_18  and  O_19
REMARK                            x       y       z     vdW  Elec       q    Type
REMARK                         _______ _______ _______ _____ _____    ______ ____
ROOT
ATOM      1  O   UNL     1       8.199   6.140  19.300  0.00  0.00    +0.000 OA
ATOM      2  C   UNL     1       7.671   6.668  18.323  0.00  0.00    +0.000 C 
ATOM      3  N   UNL     1       7.902   7.969  17.910  0.00  0.00    +0.000 N 
ATOM      4  H   UNL     1       7.382   8.353  17.124  0.00  0.00    +0.000 HD
ENDROOT
BRANCH   2   5
ATOM      5  C   UNL     1       6.746   5.848  17.493  0.00  0.00    +0.000 A 
ATOM      6  C   UNL     1       7.132   5.624  16.161  0.00  0.00    +0.000 A 
ATOM      7  C   UNL     1       6.347   4.836  15.325  0.00  0.00    +0.000 A 
ATOM      8 CL   UNL     1       6.818   4.589  13.690  0.00  0.00    +0.000 Cl
ATOM      9  C   UNL     1       5.180   4.246  15.807  0.00  0.00    +0.000 A 
ATOM     10  C   UNL     1       4.789   4.455  17.132  0.00  0.00    +0.000 A 
ATOM     11  C   UNL     1       5.566   5.259  17.972  0.00  0.00    +0.000 A 
BRANCH  11  12
ATOM     12  O   UNL     1       5.162   5.454  19.265  0.00  0.00    +0.000 OA
ATOM     13  H   UNL     1       4.976   6.402  19.391  0.00  0.00    +0.000 HD
ENDBRANCH  11  12
ENDBRANCH   2   5
BRANCH   3  14
ATOM     14  N   UNL     1       8.686   8.767  18.687  0.00  0.00    +0.000 NA
ATOM     15  C   UNL     1       8.801  10.001  18.328  0.00  0.00    +0.000 C 
BRANCH  15  16
ATOM     16  C   UNL     1       9.594  10.951  19.207  0.00  0.00    +0.000 C 
ATOM     17  C   UNL     1      11.024  11.136  18.700  0.00  0.00    +0.000 C 
ATOM     18  C   UNL     1      11.106  11.982  17.432  0.00  0.00    +0.000 C 
ATOM     19  C   UNL     1      10.360  13.305  17.571  0.00  0.00    +0.000 C 
ATOM     20  C   UNL     1       8.926  13.119  18.056  0.00  0.00    +0.000 C 
ATOM     21  C   UNL     1       8.858  12.285  19.334  0.00  0.00    +0.000 C 
ENDBRANCH  15  16
ENDBRANCH   3  14
TORSDOF 4
ENDMDL
MODEL 4
REMARK VINA RESULT:      -6.9      5.981      7.970
REMARK  Name = 
REMARK  4 active torsions:
REMARK  status: ('A' for Active; 'I' for Inactive)
REMARK    1  A    between atoms: C_2  and  C_12
REMARK    2  A    between atoms: N_3  and  N_4
REMARK    3  A    between atoms: C_5  and  C_6
REMARK    4  A    between atoms: C_18  and  O_19
REMARK                            x       y       z     vdW  Elec       q    Type
REMARK                         _______ _______ _______ _____ _____    ______ ____
ROOT
ATOM      1  O   UNL     1       8.135   6.069  19.297  0.00  0.00    +0.000 OA
ATOM      2  C   UNL     1       7.563   6.646  18.374  0.00  0.00    +0.000 C 
ATOM      3  N   UNL     1       7.842   7.937  17.958  0.00  0.00    +0.000 N 
ATOM      4  H   UNL     1       7.286   8.366  17.222  0.00  0.00    +0.000 HD
ENDROOT
BRANCH   2   5
ATOM      5  C   UNL     1       6.523   5.900  17.614  0.00  0.00    +0.000 A 
ATOM      6  C   UNL     1       5.374   5.524  18.327  0.00  0.00    +0.000 A 
ATOM      7  C   UNL     1       4.334   4.859  17.685  0.00  0.00    +0.000 A 
ATOM      8 CL   UNL     1       2.942   4.384  18.576  0.00  0.00    +0.000 Cl
ATOM      9  C   UNL     1       4.415   4.575  16.323  0.00  0.00    +0.000 A 
ATOM     10  C   UNL     1       5.551   4.950  15.600  0.00  0.00    +0.000 A 
ATOM     11  C   UNL     1       6.606   5.605  16.244  0.00  0.00    +0.000 A 
BRANCH  11  12
ATOM     12  O   UNL     1       7.710   5.959  15.517  0.00  0.00    +0.000 OA
ATOM     13  H   UNL     1       8.071   5.158  15.095  0.00  0.00    +0.000 HD
ENDBRANCH  11  12
ENDBRANCH   2   5
BRANCH   3  14
ATOM     14  N   UNL     1       8.737   8.671  18.676  0.00  0.00    +0.000 NA
ATOM     15  C   UNL     1       8.787   9.936  18.428  0.00  0.00    +0.000 C 
BRANCH  15  16
ATOM     16  C   UNL     1       9.706  10.812  19.261  0.00  0.00    +0.000 C 
ATOM     17  C   UNL     1      11.014  11.120  18.531  0.00  0.00    +0.000 C 
ATOM     18  C   UNL     1      10.841  12.111  17.383  0.00  0.00    +0.000 C 
ATOM     19  C   UNL     1      10.103  13.374  17.817  0.00  0.00    +0.000 C 
ATOM     20  C   UNL     1       8.787  13.067  18.525  0.00  0.00    +0.000 C 
ATOM     21  C   UNL     1       8.976  12.087  19.682  0.00  0.00    +0.000 C 
ENDBRANCH  15  16
ENDBRANCH   3  14
TORSDOF 4
ENDMDL
MODEL 5
REMARK VINA RESULT:      -6.7      6.414      9.112
REMARK  Name = 
REMARK  4 active torsions:
REMARK  status: ('A' for Active; 'I' for Inactive)
REMARK    1  A    between atoms: C_2  and  C_12
REMARK    2  A    between atoms: N_3  and  N_4
REMARK    3  A    between atoms: C_5  and  C_6
REMARK    4  A    between atoms: C_18  and  O_19
REMARK                            x       y       z     vdW  Elec       q    Type
REMARK                         _______ _______ _______ _____ _____    ______ ____
ROOT
ATOM      1  O   UNL     1      -0.506   8.051  21.928  0.00  0.00    +0.000 OA
ATOM      2  C   UNL     1       0.142   8.836  21.237  0.00  0.00    +0.000 C 
ATOM      3  N   UNL     1       1.317   8.519  20.577  0.00  0.00    +0.000 N 
ATOM      4  H   UNL     1       1.826   9.240  20.070  0.00  0.00    +0.000 HD
ENDROOT
BRANCH   2   5
ATOM      5  C   UNL     1      -0.386  10.216  21.057  0.00  0.00    +0.000 A 
ATOM      6  C   UNL     1      -0.638  10.623  19.737  0.00  0.00    +0.000 A 
ATOM      7  C   UNL     1      -1.169  11.882  19.478  0.00  0.00    +0.000 A 
ATOM      8 CL   UNL     1      -1.451  12.377  17.856  0.00  0.00    +0.000 Cl
ATOM      9  C   UNL     1      -1.474  12.746  20.529  0.00  0.00    +0.000 A 
ATOM     10  C   UNL     1      -1.235  12.351  21.848  0.00  0.00    +0.000 A 
ATOM     11  C   UNL     1      -0.686  11.091  22.112  0.00  0.00    +0.000 A 
BRANCH  11  12
ATOM     12  O   UNL     1      -0.456  10.726  23.411  0.00  0.00    +0.000 OA
ATOM     13  H   UNL     1      -1.002  11.288  23.990  0.00  0.00    +0.000 HD
ENDBRANCH  11  12
ENDBRANCH   2   5
BRANCH   3  14
ATOM     14  N   UNL     1       1.863   7.288  20.778  0.00  0.00    +0.000 NA
ATOM     15  C   UNL     1       2.209   6.623  19.728  0.00  0.00    +0.000 C 
BRANCH  15  16
ATOM     16  C   UNL     1       2.900   5.283  19.902  0.00  0.00    +0.000 C 
ATOM     17  C   UNL     1       2.111   4.351  20.822  0.00  0.00    +0.000 C 
ATOM     18  C   UNL     1       0.846   3.797  20.172  0.00  0.00    +0.000 C 
ATOM     19  C   UNL     1       1.122   3.174  18.807  0.00  0.00    +0.000 C 
ATOM     20  C   UNL     1       1.889   4.113  17.882  0.00  0.00    +0.000 C 
ATOM     21  C   UNL     1       3.162   4.647  18.536  0.00  0.00    +0.000 C 
ENDBRANCH  15  16
ENDBRANCH   3  14
TORSDOF 4
ENDMDL
MODEL 6
REMARK VINA RESULT:      -6.7      5.997      8.398
REMARK  Name = 
REMARK  4 active torsions:
REMARK  status: ('A' for Active; 'I' for Inactive)
REMARK    1  A    between atoms: C_2  and  C_12
REMARK    2  A    between atoms: N_3  and  N_4
REMARK    3  A    between atoms: C_5  and  C_6
REMARK    4  A    between atoms: C_18  and  O_19
REMARK                            x       y       z     vdW  Elec       q    Type
REMARK                         _______ _______ _______ _____ _____    ______ ____
ROOT
ATOM      1  O   UNL     1       1.672   9.256  17.972  0.00  0.00    +0.000 OA
ATOM      2  C   UNL     1       1.112   9.297  19.066  0.00  0.00    +0.000 C 
ATOM      3  N   UNL     1       1.375   8.437  20.119  0.00  0.00    +0.000 N 
ATOM      4  H   UNL     1       0.828   8.498  20.975  0.00  0.00    +0.000 HD
ENDROOT
BRANCH   2   5
ATOM      5  C   UNL     1       0.106  10.369  19.303  0.00  0.00    +0.000 A 
ATOM      6  C   UNL     1      -0.955  10.447  18.388  0.00  0.00    +0.000 A 
ATOM      7  C   UNL     1      -1.961  11.393  18.556  0.00  0.00    +0.000 A 
ATOM      8 CL   UNL     1      -3.244  11.492  17.415  0.00  0.00    +0.000 Cl
ATOM      9  C   UNL     1      -1.935  12.261  19.646  0.00  0.00    +0.000 A 
ATOM     10  C   UNL     1      -0.887  12.190  20.568  0.00  0.00    +0.000 A 
ATOM     11  C   UNL     1       0.135  11.250  20.395  0.00  0.00    +0.000 A 
BRANCH  11  12
ATOM     12  O   UNL     1       1.153  11.201  21.308  0.00  0.00    +0.000 OA
ATOM     13  H   UNL     1       1.970  10.944  20.845  0.00  0.00    +0.000 HD
ENDBRANCH  11  12
ENDBRANCH   2   5
BRANCH   3  14
ATOM     14  N   UNL     1       2.236   7.402  19.911  0.00  0.00    +0.000 NA
ATOM     15  C   UNL     1       1.877   6.245  20.354  0.00  0.00    +0.000 C 
BRANCH  15  16
ATOM     16  C   UNL     1       2.761   5.044  20.074  0.00  0.00    +0.000 C 
ATOM     17  C   UNL     1       2.347   3.827  20.901  0.00  0.00    +0.000 C 
ATOM     18  C   UNL     1       1.048   3.187  20.418  0.00  0.00    +0.000 C 
ATOM     19  C   UNL     1       1.068   2.896  18.921  0.00  0.00    +0.000 C 
ATOM     20  C   UNL     1       1.460   4.117  18.094  0.00  0.00    +0.000 C 
ATOM     21  C   UNL     1       2.770   4.737  18.576  0.00  0.00    +0.000 C 
ENDBRANCH  15  16
ENDBRANCH   3  14
TORSDOF 4
ENDMDL
MODEL 7
REMARK VINA RESULT:      -6.7      4.936      7.896
REMARK  Name = 
REMARK  4 active torsions:
REMARK  status: ('A' for Active; 'I' for Inactive)
REMARK    1  A    between atoms: C_2  and  C_12
REMARK    2  A    between atoms: N_3  and  N_4
REMARK    3  A    between atoms: C_5  and  C_6
REMARK    4  A    between atoms: C_18  and  O_19
REMARK                            x       y       z     vdW  Elec       q    Type
REMARK                         _______ _______ _______ _____ _____    ______ ____
ROOT
ATOM      1  O   UNL     1       2.287   7.292  17.702  0.00  0.00    +0.000 OA
ATOM      2  C   UNL     1       2.311   7.452  18.921  0.00  0.00    +0.000 C 
ATOM      3  N   UNL     1       3.000   6.643  19.808  0.00  0.00    +0.000 N 
ATOM      4  H   UNL     1       2.923   6.806  20.810  0.00  0.00    +0.000 HD
ENDROOT
BRANCH   2   5
ATOM      5  C   UNL     1       1.584   8.619  19.492  0.00  0.00    +0.000 A 
ATOM      6  C   UNL     1       1.158   8.500  20.825  0.00  0.00    +0.000 A 
ATOM      7  C   UNL     1       0.506   9.558  21.451  0.00  0.00    +0.000 A 
ATOM      8 CL   UNL     1      -0.032   9.391  23.076  0.00  0.00    +0.000 Cl
ATOM      9  C   UNL     1       0.287  10.752  20.769  0.00  0.00    +0.000 A 
ATOM     10  C   UNL     1       0.714  10.887  19.444  0.00  0.00    +0.000 A 
ATOM     11  C   UNL     1       1.355   9.821  18.805  0.00  0.00    +0.000 A 
BRANCH  11  12
ATOM     12  O   UNL     1       1.760   9.972  17.506  0.00  0.00    +0.000 OA
ATOM     13  H   UNL     1       1.244   9.361  16.949  0.00  0.00    +0.000 HD
ENDBRANCH  11  12
ENDBRANCH   2   5
BRANCH   3  14
ATOM     14  N   UNL     1       3.615   5.527  19.326  0.00  0.00    +0.000 NA
ATOM     15  C   UNL     1       4.824   5.666  18.898  0.00  0.00    +0.000 C 
BRANCH  15  16
ATOM     16  C   UNL     1       5.583   4.438  18.430  0.00  0.00    +0.000 C 
ATOM     17  C   UNL     1       4.889   3.754  17.252  0.00  0.00    +0.000 C 
ATOM     18  C   UNL     1       5.019   4.533  15.945  0.00  0.00    +0.000 C 
ATOM     19  C   UNL     1       6.466   4.903  15.635  0.00  0.00    +0.000 C 
ATOM     20  C   UNL     1       7.152   5.605  16.804  0.00  0.00    +0.000 C 
ATOM     21  C   UNL     1       7.029   4.808  18.101  0.00  0.00    +0.000 C 
ENDBRANCH  15  16
ENDBRANCH   3  14
TORSDOF 4
ENDMDL
MODEL 8
REMARK VINA RESULT:      -6.7      5.279      7.448
REMARK  Name = 
REMARK  4 active torsions:
REMARK  status: ('A' for Active; 'I' for Inactive)
REMARK    1  A    between atoms: C_2  and  C_12
REMARK    2  A    between atoms: N_3  and  N_4
REMARK    3  A    between atoms: C_5  and  C_6
REMARK    4  A    between atoms: C_18  and  O_19
REMARK                            x       y       z     vdW  Elec       q    Type
REMARK                         _______ _______ _______ _____ _____    ______ ____
ROOT
ATOM      1  O   UNL     1       2.919   6.913  18.959  0.00  0.00    +0.000 OA
ATOM      2  C   UNL     1       2.078   7.226  19.800  0.00  0.00    +0.000 C 
ATOM      3  N   UNL     1       1.641   6.402  20.823  0.00  0.00    +0.000 N 
ATOM      4  H   UNL     1       0.899   6.713  21.445  0.00  0.00    +0.000 HD
ENDROOT
BRANCH   2   5
ATOM      5  C   UNL     1       1.511   8.602  19.750  0.00  0.00    +0.000 A 
ATOM      6  C   UNL     1       0.926   9.082  20.932  0.00  0.00    +0.000 A 
ATOM      7  C   UNL     1       0.407  10.372  20.987  0.00  0.00    +0.000 A 
ATOM      8 CL   UNL     1      -0.328  10.939  22.434  0.00  0.00    +0.000 Cl
ATOM      9  C   UNL     1       0.479  11.206  19.873  0.00  0.00    +0.000 A 
ATOM     10  C   UNL     1       1.065  10.743  18.692  0.00  0.00    +0.000 A 
ATOM     11  C   UNL     1       1.575   9.442  18.627  0.00  0.00    +0.000 A 
BRANCH  11  12
ATOM     12  O   UNL     1       2.140   9.008  17.459  0.00  0.00    +0.000 OA
ATOM     13  H   UNL     1       2.195   8.035  17.486  0.00  0.00    +0.000 HD
ENDBRANCH  11  12
ENDBRANCH   2   5
BRANCH   3  14
ATOM     14  N   UNL     1       2.086   5.115  20.854  0.00  0.00    +0.000 NA
ATOM     15  C   UNL     1       1.296   4.211  20.381  0.00  0.00    +0.000 C 
BRANCH  15  16
ATOM     16  C   UNL     1       1.779   2.774  20.315  0.00  0.00    +0.000 C 
ATOM     17  C   UNL     1       1.367   2.095  19.009  0.00  0.00    +0.000 C 
ATOM     18  C   UNL     1       2.159   2.588  17.801  0.00  0.00    +0.000 C 
ATOM     19  C   UNL     1       3.665   2.536  18.036  0.00  0.00    +0.000 C 
ATOM     20  C   UNL     1       4.079   3.233  19.329  0.00  0.00    +0.000 C 
ATOM     21  C   UNL     1       3.292   2.719  20.533  0.00  0.00    +0.000 C 
ENDBRANCH  15  16
ENDBRANCH   3  14
TORSDOF 4
ENDMDL
MODEL 9
REMARK VINA RESULT:      -6.6      5.605      8.057
REMARK  Name = 
REMARK  4 active torsions:
REMARK  status: ('A' for Active; 'I' for Inactive)
REMARK    1  A    between atoms: C_2  and  C_12
REMARK    2  A    between atoms: N_3  and  N_4
REMARK    3  A    between atoms: C_5  and  C_6
REMARK    4  A    between atoms: C_18  and  O_19
REMARK                            x       y       z     vdW  Elec       q    Type
REMARK                         _______ _______ _______ _____ _____    ______ ____
ROOT
ATOM      1  O   UNL     1       1.890   9.151  17.386  0.00  0.00    +0.000 OA
ATOM      2  C   UNL     1       1.779   8.879  18.580  0.00  0.00    +0.000 C 
ATOM      3  N   UNL     1       2.241   7.714  19.169  0.00  0.00    +0.000 N 
ATOM      4  H   UNL     1       2.060   7.536  20.155  0.00  0.00    +0.000 HD
ENDROOT
BRANCH   2   5
ATOM      5  C   UNL     1       1.141   9.883  19.475  0.00  0.00    +0.000 A 
ATOM      6  C   UNL     1       0.658   9.409  20.705  0.00  0.00    +0.000 A 
ATOM      7  C   UNL     1       0.082  10.286  21.620  0.00  0.00    +0.000 A 
ATOM      8 CL   UNL     1      -0.527   9.688  23.113  0.00  0.00    +0.000 Cl
ATOM      9  C   UNL     1      -0.003  11.646  21.331  0.00  0.00    +0.000 A 
ATOM     10  C   UNL     1       0.481  12.132  20.114  0.00  0.00    +0.000 A 
ATOM     11  C   UNL     1       1.046  11.253  19.184  0.00  0.00    +0.000 A 
BRANCH  11  12
ATOM     12  O   UNL     1       1.509  11.750  17.996  0.00  0.00    +0.000 OA
ATOM     13  H   UNL     1       0.819  11.625  17.320  0.00  0.00    +0.000 HD
ENDBRANCH  11  12
ENDBRANCH   2   5
BRANCH   3  14
ATOM     14  N   UNL     1       2.765   6.746  18.368  0.00  0.00    +0.000 NA
ATOM     15  C   UNL     1       2.350   5.539  18.561  0.00  0.00    +0.000 C 
BRANCH  15  16
ATOM     16  C   UNL     1       2.838   4.437  17.639  0.00  0.00    +0.000 C 
ATOM     17  C   UNL     1       4.333   4.170  17.814  0.00  0.00    +0.000 C 
ATOM     18  C   UNL     1       4.665   3.449  19.118  0.00  0.00    +0.000 C 
ATOM     19  C   UNL     1       3.821   2.194  19.315  0.00  0.00    +0.000 C 
ATOM     20  C   UNL     1       2.327   2.466  19.163  0.00  0.00    +0.000 C 
ATOM     21  C   UNL     1       2.006   3.172  17.847  0.00  0.00    +0.000 C 
ENDBRANCH  15  16
ENDBRANCH   3  14
TORSDOF 4
ENDMDL
