MODEL 1
REMARK VINA RESULT:      -6.9      0.000      0.000
REMARK  Name = 
REMARK  13 active torsions:
REMARK  status: ('A' for Active; 'I' for Inactive)
REMARK    1  A    between atoms: C_2  and  C_3
REMARK    2  A    between atoms: C_3  and  C_4
REMARK    3  A    between atoms: C_4  and  C_5
REMARK    4  A    between atoms: C_5  and  N_6
REMARK    5  A    between atoms: N_6  and  C_7
REMARK    6  A    between atoms: N_6  and  C_8
REMARK    7  A    between atoms: C_12  and  C_13
REMARK    8  A    between atoms: C_15  and  O_16
REMARK    9  A    between atoms: O_16  and  C_17
REMARK   10  A    between atoms: C_18  and  O_19
REMARK   11  A    between atoms: O_19  and  C_20
REMARK   12  A    between atoms: C_21  and  O_22
REMARK   13  A    between atoms: O_22  and  C_23
REMARK                            x       y       z     vdW  Elec       q    Type
REMARK                         _______ _______ _______ _____ _____    ______ ____
ROOT
ATOM      1  C   UNL     1       4.045   4.982  18.514  0.00  0.00    +0.000 C 
ATOM      2  C   UNL     1       3.528   5.425  19.908  0.00  0.00    +0.000 C 
ATOM      3  C   UNL     1       2.498   6.530  19.679  0.00  0.00    +0.000 C 
ATOM      4  C   UNL     1       2.998   7.170  18.416  0.00  0.00    +0.000 C 
ATOM      5  C   UNL     1       2.545   8.313  17.883  0.00  0.00    +0.000 C 
ATOM      6  C   UNL     1       3.954   6.275  17.759  0.00  0.00    +0.000 C 
ATOM      7  O   UNL     1       4.405   6.461  16.638  0.00  0.00    +0.000 OA
ENDROOT
BRANCH   5   8
ATOM      8  C   UNL     1       1.485   9.095  18.531  0.00  0.00    +0.000 A 
ATOM      9  C   UNL     1       1.601   9.388  19.879  0.00  0.00    +0.000 A 
ATOM     10  C   UNL     1       0.606  10.116  20.553  0.00  0.00    +0.000 A 
ATOM     11  C   UNL     1      -0.527  10.582  19.825  0.00  0.00    +0.000 A 
ATOM     12  C   UNL     1      -0.639  10.292  18.448  0.00  0.00    +0.000 A 
ATOM     13  C   UNL     1       0.371   9.537  17.810  0.00  0.00    +0.000 A 
BRANCH  10  14
ATOM     14  O   UNL     1       0.719  10.352  21.882  0.00  0.00    +0.000 OA
ATOM     15  C   UNL     1       0.226   9.553  22.894  0.00  0.00    +0.000 C 
ENDBRANCH  10  14
BRANCH  11  16
ATOM     16  O   UNL     1      -1.534  11.302  20.395  0.00  0.00    +0.000 OA
ATOM     17  C   UNL     1      -1.560  12.658  20.646  0.00  0.00    +0.000 C 
ENDBRANCH  11  16
BRANCH  12  18
ATOM     18  O   UNL     1      -1.729  10.745  17.771  0.00  0.00    +0.000 OA
ATOM     19  C   UNL     1      -2.762   9.968  17.279  0.00  0.00    +0.000 C 
ENDBRANCH  12  18
ENDBRANCH   5   8
BRANCH   1  20
ATOM     20  C   UNL     1       5.522   4.494  18.670  0.00  0.00    +0.000 C 
BRANCH  20  22
ATOM     21  C   UNL     1       7.609   5.830  18.698  0.00  0.00    +0.000 C 
ATOM     22  C   UNL     1       6.463   5.498  19.297  0.00  0.00    +0.000 C 
ENDBRANCH  20  22
ENDBRANCH   1  20
BRANCH   1  23
ATOM     23  C   UNL     1       3.191   3.834  17.857  0.00  0.00    +0.000 C 
BRANCH  23  24
ATOM     24  N   UNL     1       2.698   2.710  18.707  0.00  0.00    +0.000 NA
ATOM     25  C   UNL     1       1.263   2.399  18.534  0.00  0.00    +0.000 C 
ATOM     26  C   UNL     1       3.436   1.494  18.306  0.00  0.00    +0.000 C 
ENDBRANCH  23  24
ENDBRANCH   1  23
TORSDOF 8
ENDMDL
MODEL 2
REMARK VINA RESULT:      -6.7      0.918      1.066
REMARK  Name = 
REMARK  13 active torsions:
REMARK  status: ('A' for Active; 'I' for Inactive)
REMARK    1  A    between atoms: C_2  and  C_3
REMARK    2  A    between atoms: C_3  and  C_4
REMARK    3  A    between atoms: C_4  and  C_5
REMARK    4  A    between atoms: C_5  and  N_6
REMARK    5  A    between atoms: N_6  and  C_7
REMARK    6  A    between atoms: N_6  and  C_8
REMARK    7  A    between atoms: C_12  and  C_13
REMARK    8  A    between atoms: C_15  and  O_16
REMARK    9  A    between atoms: O_16  and  C_17
REMARK   10  A    between atoms: C_18  and  O_19
REMARK   11  A    between atoms: O_19  and  C_20
REMARK   12  A    between atoms: C_21  and  O_22
REMARK   13  A    between atoms: O_22  and  C_23
REMARK                            x       y       z     vdW  Elec       q    Type
REMARK                         _______ _______ _______ _____ _____    ______ ____
ROOT
ATOM      1  C   UNL     1       3.992   5.139  18.413  0.00  0.00    +0.000 C 
ATOM      2  C   UNL     1       3.457   5.649  19.776  0.00  0.00    +0.000 C 
ATOM      3  C   UNL     1       2.467   6.775  19.482  0.00  0.00    +0.000 C 
ATOM      4  C   UNL     1       3.015   7.352  18.209  0.00  0.00    +0.000 C 
ATOM      5  C   UNL     1       2.610   8.487  17.623  0.00  0.00    +0.000 C 
ATOM      6  C   UNL     1       3.958   6.405  17.608  0.00  0.00    +0.000 C 
ATOM      7  O   UNL     1       4.440   6.535  16.493  0.00  0.00    +0.000 OA
ENDROOT
BRANCH   5   8
ATOM      8  C   UNL     1       1.559   9.324  18.216  0.00  0.00    +0.000 A 
ATOM      9  C   UNL     1       1.898  10.197  19.236  0.00  0.00    +0.000 A 
ATOM     10  C   UNL     1       0.929  11.006  19.853  0.00  0.00    +0.000 A 
ATOM     11  C   UNL     1      -0.420  10.943  19.397  0.00  0.00    +0.000 A 
ATOM     12  C   UNL     1      -0.762  10.061  18.349  0.00  0.00    +0.000 A 
ATOM     13  C   UNL     1       0.236   9.246  17.770  0.00  0.00    +0.000 A 
BRANCH  10  14
ATOM     14  O   UNL     1       1.274  11.819  20.880  0.00  0.00    +0.000 OA
ATOM     15  C   UNL     1       1.881  13.054  20.769  0.00  0.00    +0.000 C 
ENDBRANCH  10  14
BRANCH  11  16
ATOM     16  O   UNL     1      -1.422  11.698  19.930  0.00  0.00    +0.000 OA
ATOM     17  C   UNL     1      -1.698  13.027  19.681  0.00  0.00    +0.000 C 
ENDBRANCH  11  16
BRANCH  12  18
ATOM     18  O   UNL     1      -2.056  10.016  17.929  0.00  0.00    +0.000 OA
ATOM     19  C   UNL     1      -2.503  10.257  16.643  0.00  0.00    +0.000 C 
ENDBRANCH  12  18
ENDBRANCH   5   8
BRANCH   1  20
ATOM     20  C   UNL     1       5.449   4.614  18.622  0.00  0.00    +0.000 C 
BRANCH  20  22
ATOM     21  C   UNL     1       7.576   5.882  18.741  0.00  0.00    +0.000 C 
ATOM     22  C   UNL     1       6.391   5.593  19.286  0.00  0.00    +0.000 C 
ENDBRANCH  20  22
ENDBRANCH   1  20
BRANCH   1  23
ATOM     23  C   UNL     1       3.119   3.993  17.779  0.00  0.00    +0.000 C 
BRANCH  23  24
ATOM     24  N   UNL     1       2.625   2.883  18.645  0.00  0.00    +0.000 NA
ATOM     25  C   UNL     1       1.172   2.631  18.545  0.00  0.00    +0.000 C 
ATOM     26  C   UNL     1       3.292   1.641  18.199  0.00  0.00    +0.000 C 
ENDBRANCH  23  24
ENDBRANCH   1  23
TORSDOF 8
ENDMDL
MODEL 3
REMARK VINA RESULT:      -6.7      0.285      2.457
REMARK  Name = 
REMARK  13 active torsions:
REMARK  status: ('A' for Active; 'I' for Inactive)
REMARK    1  A    between atoms: C_2  and  C_3
REMARK    2  A    between atoms: C_3  and  C_4
REMARK    3  A    between atoms: C_4  and  C_5
REMARK    4  A    between atoms: C_5  and  N_6
REMARK    5  A    between atoms: N_6  and  C_7
REMARK    6  A    between atoms: N_6  and  C_8
REMARK    7  A    between atoms: C_12  and  C_13
REMARK    8  A    between atoms: C_15  and  O_16
REMARK    9  A    between atoms: O_16  and  C_17
REMARK   10  A    between atoms: C_18  and  O_19
REMARK   11  A    between atoms: O_19  and  C_20
REMARK   12  A    between atoms: C_21  and  O_22
REMARK   13  A    between atoms: O_22  and  C_23
REMARK                            x       y       z     vdW  Elec       q    Type
REMARK                         _______ _______ _______ _____ _____    ______ ____
ROOT
ATOM      1  C   UNL     1       4.169   5.102  18.334  0.00  0.00    +0.000 C 
ATOM      2  C   UNL     1       3.700   5.519  19.752  0.00  0.00    +0.000 C 
ATOM      3  C   UNL     1       2.631   6.595  19.578  0.00  0.00    +0.000 C 
ATOM      4  C   UNL     1       3.056   7.259  18.301  0.00  0.00    +0.000 C 
ATOM      5  C   UNL     1       2.549   8.393  17.798  0.00  0.00    +0.000 C 
ATOM      6  C   UNL     1       4.009   6.398  17.595  0.00  0.00    +0.000 C 
ATOM      7  O   UNL     1       4.405   6.606  16.458  0.00  0.00    +0.000 OA
ENDROOT
BRANCH   5   8
ATOM      8  C   UNL     1       1.495   9.139  18.498  0.00  0.00    +0.000 A 
ATOM      9  C   UNL     1       0.402   9.586  17.776  0.00  0.00    +0.000 A 
ATOM     10  C   UNL     1      -0.625  10.321  18.391  0.00  0.00    +0.000 A 
ATOM     11  C   UNL     1      -0.548  10.584  19.790  0.00  0.00    +0.000 A 
ATOM     12  C   UNL     1       0.562  10.117  20.528  0.00  0.00    +0.000 A 
ATOM     13  C   UNL     1       1.586   9.402  19.869  0.00  0.00    +0.000 A 
BRANCH  10  14
ATOM     14  O   UNL     1      -1.663  10.788  17.656  0.00  0.00    +0.000 OA
ATOM     15  C   UNL     1      -2.441  10.049  16.788  0.00  0.00    +0.000 C 
ENDBRANCH  10  14
BRANCH  11  16
ATOM     16  O   UNL     1      -1.503  11.280  20.471  0.00  0.00    +0.000 OA
ATOM     17  C   UNL     1      -1.588  12.646  20.638  0.00  0.00    +0.000 C 
ENDBRANCH  11  16
BRANCH  12  18
ATOM     18  O   UNL     1       0.616  10.380  21.862  0.00  0.00    +0.000 OA
ATOM     19  C   UNL     1       0.286   9.502  22.878  0.00  0.00    +0.000 C 
ENDBRANCH  12  18
ENDBRANCH   5   8
BRANCH   1  20
ATOM     20  C   UNL     1       5.665   4.657  18.422  0.00  0.00    +0.000 C 
BRANCH  20  22
ATOM     21  C   UNL     1       7.745   5.688  19.290  0.00  0.00    +0.000 C 
ATOM     22  C   UNL     1       6.664   5.788  18.512  0.00  0.00    +0.000 C 
ENDBRANCH  20  22
ENDBRANCH   1  20
BRANCH   1  23
ATOM     23  C   UNL     1       3.321   3.935  17.703  0.00  0.00    +0.000 C 
BRANCH  23  24
ATOM     24  N   UNL     1       2.798   2.850  18.585  0.00  0.00    +0.000 NA
ATOM     25  C   UNL     1       1.353   2.583  18.431  0.00  0.00    +0.000 C 
ATOM     26  C   UNL     1       3.493   1.600  18.211  0.00  0.00    +0.000 C 
ENDBRANCH  23  24
ENDBRANCH   1  23
TORSDOF 8
ENDMDL
MODEL 4
REMARK VINA RESULT:      -6.7      1.305      2.507
REMARK  Name = 
REMARK  13 active torsions:
REMARK  status: ('A' for Active; 'I' for Inactive)
REMARK    1  A    between atoms: C_2  and  C_3
REMARK    2  A    between atoms: C_3  and  C_4
REMARK    3  A    between atoms: C_4  and  C_5
REMARK    4  A    between atoms: C_5  and  N_6
REMARK    5  A    between atoms: N_6  and  C_7
REMARK    6  A    between atoms: N_6  and  C_8
REMARK    7  A    between atoms: C_12  and  C_13
REMARK    8  A    between atoms: C_15  and  O_16
REMARK    9  A    between atoms: O_16  and  C_17
REMARK   10  A    between atoms: C_18  and  O_19
REMARK   11  A    between atoms: O_19  and  C_20
REMARK   12  A    between atoms: C_21  and  O_22
REMARK   13  A    between atoms: O_22  and  C_23
REMARK                            x       y       z     vdW  Elec       q    Type
REMARK                         _______ _______ _______ _____ _____    ______ ____
ROOT
ATOM      1  C   UNL     1       3.777   5.152  18.549  0.00  0.00    +0.000 C 
ATOM      2  C   UNL     1       3.220   5.798  19.844  0.00  0.00    +0.000 C 
ATOM      3  C   UNL     1       2.346   6.978  19.423  0.00  0.00    +0.000 C 
ATOM      4  C   UNL     1       3.003   7.417  18.147  0.00  0.00    +0.000 C 
ATOM      5  C   UNL     1       2.726   8.539  17.467  0.00  0.00    +0.000 C 
ATOM      6  C   UNL     1       3.891   6.357  17.663  0.00  0.00    +0.000 C 
ATOM      7  O   UNL     1       4.437   6.370  16.569  0.00  0.00    +0.000 OA
ENDROOT
BRANCH   5   8
ATOM      8  C   UNL     1       1.722   9.497  17.945  0.00  0.00    +0.000 A 
ATOM      9  C   UNL     1       0.383   9.231  17.717  0.00  0.00    +0.000 A 
ATOM     10  C   UNL     1      -0.618  10.124  18.134  0.00  0.00    +0.000 A 
ATOM     11  C   UNL     1      -0.243  11.310  18.830  0.00  0.00    +0.000 A 
ATOM     12  C   UNL     1       1.122  11.576  19.072  0.00  0.00    +0.000 A 
ATOM     13  C   UNL     1       2.101  10.665  18.615  0.00  0.00    +0.000 A 
BRANCH  10  14
ATOM     14  O   UNL     1      -1.919   9.865  17.861  0.00  0.00    +0.000 OA
ATOM     15  C   UNL     1      -2.527   9.978  16.627  0.00  0.00    +0.000 C 
ENDBRANCH  10  14
BRANCH  11  16
ATOM     16  O   UNL     1      -1.147  12.227  19.279  0.00  0.00    +0.000 OA
ATOM     17  C   UNL     1      -1.861  12.195  20.459  0.00  0.00    +0.000 C 
ENDBRANCH  11  16
BRANCH  12  18
ATOM     18  O   UNL     1       1.458  12.715  19.736  0.00  0.00    +0.000 OA
ATOM     19  C   UNL     1       2.458  13.601  19.377  0.00  0.00    +0.000 C 
ENDBRANCH  12  18
ENDBRANCH   5   8
BRANCH   1  20
ATOM     20  C   UNL     1       5.172   4.526  18.873  0.00  0.00    +0.000 C 
BRANCH  20  22
ATOM     21  C   UNL     1       7.422   5.543  18.660  0.00  0.00    +0.000 C 
ATOM     22  C   UNL     1       6.238   5.518  19.278  0.00  0.00    +0.000 C 
ENDBRANCH  20  22
ENDBRANCH   1  20
BRANCH   1  23
ATOM     23  C   UNL     1       2.842   4.040  17.943  0.00  0.00    +0.000 C 
BRANCH  23  24
ATOM     24  N   UNL     1       2.443   2.877  18.790  0.00  0.00    +0.000 NA
ATOM     25  C   UNL     1       0.999   2.563  18.754  0.00  0.00    +0.000 C 
ATOM     26  C   UNL     1       3.139   1.684  18.262  0.00  0.00    +0.000 C 
ENDBRANCH  23  24
ENDBRANCH   1  23
TORSDOF 8
ENDMDL
MODEL 5
REMARK VINA RESULT:      -6.6      2.717      7.883
REMARK  Name = 
REMARK  13 active torsions:
REMARK  status: ('A' for Active; 'I' for Inactive)
REMARK    1  A    between atoms: C_2  and  C_3
REMARK    2  A    between atoms: C_3  and  C_4
REMARK    3  A    between atoms: C_4  and  C_5
REMARK    4  A    between atoms: C_5  and  N_6
REMARK    5  A    between atoms: N_6  and  C_7
REMARK    6  A    between atoms: N_6  and  C_8
REMARK    7  A    between atoms: C_12  and  C_13
REMARK    8  A    between atoms: C_15  and  O_16
REMARK    9  A    between atoms: O_16  and  C_17
REMARK   10  A    between atoms: C_18  and  O_19
REMARK   11  A    between atoms: O_19  and  C_20
REMARK   12  A    between atoms: C_21  and  O_22
REMARK   13  A    between atoms: O_22  and  C_23
REMARK                            x       y       z     vdW  Elec       q    Type
REMARK                         _______ _______ _______ _____ _____    ______ ____
ROOT
ATOM      1  C   UNL     1       0.710  10.357  19.361  0.00  0.00    +0.000 C 
ATOM      2  C   UNL     1       1.576   9.906  18.156  0.00  0.00    +0.000 C 
ATOM      3  C   UNL     1       1.817   8.405  18.307  0.00  0.00    +0.000 C 
ATOM      4  C   UNL     1       1.798   8.231  19.798  0.00  0.00    +0.000 C 
ATOM      5  C   UNL     1       2.143   7.120  20.464  0.00  0.00    +0.000 C 
ATOM      6  C   UNL     1       1.193   9.412  20.422  0.00  0.00    +0.000 C 
ATOM      7  O   UNL     1       0.904   9.486  21.607  0.00  0.00    +0.000 OA
ENDROOT
BRANCH   5   8
ATOM      8  C   UNL     1       2.618   5.922  19.762  0.00  0.00    +0.000 A 
ATOM      9  C   UNL     1       1.686   5.060  19.208  0.00  0.00    +0.000 A 
ATOM     10  C   UNL     1       2.084   3.888  18.543  0.00  0.00    +0.000 A 
ATOM     11  C   UNL     1       3.474   3.601  18.415  0.00  0.00    +0.000 A 
ATOM     12  C   UNL     1       4.424   4.486  18.970  0.00  0.00    +0.000 A 
ATOM     13  C   UNL     1       3.984   5.642  19.652  0.00  0.00    +0.000 A 
BRANCH  10  14
ATOM     14  O   UNL     1       1.154   3.037  18.049  0.00  0.00    +0.000 OA
ATOM     15  C   UNL     1       0.475   2.072  18.764  0.00  0.00    +0.000 C 
ENDBRANCH  10  14
BRANCH  11  16
ATOM     16  O   UNL     1       3.950   2.494  17.777  0.00  0.00    +0.000 OA
ATOM     17  C   UNL     1       3.934   1.191  18.230  0.00  0.00    +0.000 C 
ENDBRANCH  11  16
BRANCH  12  18
ATOM     18  O   UNL     1       5.746   4.192  18.837  0.00  0.00    +0.000 OA
ATOM     19  C   UNL     1       6.642   4.836  18.004  0.00  0.00    +0.000 C 
ENDBRANCH  12  18
ENDBRANCH   5   8
BRANCH   1  20
ATOM     20  C   UNL     1       1.064  11.843  19.692  0.00  0.00    +0.000 C 
BRANCH  20  22
ATOM     21  C   UNL     1       2.693  13.344  18.581  0.00  0.00    +0.000 C 
ATOM     22  C   UNL     1       1.547  12.661  18.516  0.00  0.00    +0.000 C 
ENDBRANCH  20  22
ENDBRANCH   1  20
BRANCH   1  23
ATOM     23  C   UNL     1      -0.839  10.242  19.107  0.00  0.00    +0.000 C 
BRANCH  23  24
ATOM     24  N   UNL     1      -1.429  10.864  17.885  0.00  0.00    +0.000 NA
ATOM     25  C   UNL     1      -2.016   9.898  16.931  0.00  0.00    +0.000 C 
ATOM     26  C   UNL     1      -2.538  11.738  18.323  0.00  0.00    +0.000 C 
ENDBRANCH  23  24
ENDBRANCH   1  23
TORSDOF 8
ENDMDL
MODEL 6
REMARK VINA RESULT:      -6.6      2.588      7.813
REMARK  Name = 
REMARK  13 active torsions:
REMARK  status: ('A' for Active; 'I' for Inactive)
REMARK    1  A    between atoms: C_2  and  C_3
REMARK    2  A    between atoms: C_3  and  C_4
REMARK    3  A    between atoms: C_4  and  C_5
REMARK    4  A    between atoms: C_5  and  N_6
REMARK    5  A    between atoms: N_6  and  C_7
REMARK    6  A    between atoms: N_6  and  C_8
REMARK    7  A    between atoms: C_12  and  C_13
REMARK    8  A    between atoms: C_15  and  O_16
REMARK    9  A    between atoms: O_16  and  C_17
REMARK   10  A    between atoms: C_18  and  O_19
REMARK   11  A    between atoms: O_19  and  C_20
REMARK   12  A    between atoms: C_21  and  O_22
REMARK   13  A    between atoms: O_22  and  C_23
REMARK                            x       y       z     vdW  Elec       q    Type
REMARK                         _______ _______ _______ _____ _____    ______ ____
ROOT
ATOM      1  C   UNL     1       0.322  10.361  19.167  0.00  0.00    +0.000 C 
ATOM      2  C   UNL     1       1.329  10.432  17.990  0.00  0.00    +0.000 C 
ATOM      3  C   UNL     1       1.878   9.023  17.777  0.00  0.00    +0.000 C 
ATOM      4  C   UNL     1       1.816   8.448  19.162  0.00  0.00    +0.000 C 
ATOM      5  C   UNL     1       2.356   7.285  19.555  0.00  0.00    +0.000 C 
ATOM      6  C   UNL     1       0.939   9.274  19.997  0.00  0.00    +0.000 C 
ATOM      7  O   UNL     1       0.577   8.964  21.122  0.00  0.00    +0.000 OA
ENDROOT
BRANCH   5   8
ATOM      8  C   UNL     1       3.114   6.439  18.625  0.00  0.00    +0.000 A 
ATOM      9  C   UNL     1       4.302   6.920  18.102  0.00  0.00    +0.000 A 
ATOM     10  C   UNL     1       5.056   6.160  17.193  0.00  0.00    +0.000 A 
ATOM     11  C   UNL     1       4.601   4.860  16.828  0.00  0.00    +0.000 A 
ATOM     12  C   UNL     1       3.395   4.365  17.372  0.00  0.00    +0.000 A 
ATOM     13  C   UNL     1       2.651   5.168  18.265  0.00  0.00    +0.000 A 
BRANCH  10  14
ATOM     14  O   UNL     1       6.192   6.670  16.657  0.00  0.00    +0.000 OA
ATOM     15  C   UNL     1       7.241   7.228  17.359  0.00  0.00    +0.000 C 
ENDBRANCH  10  14
BRANCH  11  16
ATOM     16  O   UNL     1       5.274   4.050  15.962  0.00  0.00    +0.000 OA
ATOM     17  C   UNL     1       5.497   4.259  14.617  0.00  0.00    +0.000 C 
ENDBRANCH  11  16
BRANCH  12  18
ATOM     18  O   UNL     1       2.977   3.122  17.010  0.00  0.00    +0.000 OA
ATOM     19  C   UNL     1       2.943   2.005  17.825  0.00  0.00    +0.000 C 
ENDBRANCH  12  18
ENDBRANCH   5   8
BRANCH   1  20
ATOM     20  C   UNL     1       0.330  11.739  19.905  0.00  0.00    +0.000 C 
BRANCH  20  22
ATOM     21  C   UNL     1       2.267  13.218  20.359  0.00  0.00    +0.000 C 
ATOM     22  C   UNL     1       1.422  12.690  19.469  0.00  0.00    +0.000 C 
ENDBRANCH  20  22
ENDBRANCH   1  20
BRANCH   1  23
ATOM     23  C   UNL     1      -1.150  10.024  18.723  0.00  0.00    +0.000 C 
BRANCH  23  24
ATOM     24  N   UNL     1      -1.757  10.763  17.577  0.00  0.00    +0.000 NA
ATOM     25  C   UNL     1      -2.314   9.895  16.518  0.00  0.00    +0.000 C 
ATOM     26  C   UNL     1      -2.891  11.549  18.106  0.00  0.00    +0.000 C 
ENDBRANCH  23  24
ENDBRANCH   1  23
TORSDOF 8
ENDMDL
MODEL 7
REMARK VINA RESULT:      -6.6      2.596      8.049
REMARK  Name = 
REMARK  13 active torsions:
REMARK  status: ('A' for Active; 'I' for Inactive)
REMARK    1  A    between atoms: C_2  and  C_3
REMARK    2  A    between atoms: C_3  and  C_4
REMARK    3  A    between atoms: C_4  and  C_5
REMARK    4  A    between atoms: C_5  and  N_6
REMARK    5  A    between atoms: N_6  and  C_7
REMARK    6  A    between atoms: N_6  and  C_8
REMARK    7  A    between atoms: C_12  and  C_13
REMARK    8  A    between atoms: C_15  and  O_16
REMARK    9  A    between atoms: O_16  and  C_17
REMARK   10  A    between atoms: C_18  and  O_19
REMARK   11  A    between atoms: O_19  and  C_20
REMARK   12  A    between atoms: C_21  and  O_22
REMARK   13  A    between atoms: O_22  and  C_23
REMARK                            x       y       z     vdW  Elec       q    Type
REMARK                         _______ _______ _______ _____ _____    ______ ____
ROOT
ATOM      1  C   UNL     1       0.310  10.430  19.147  0.00  0.00    +0.000 C 
ATOM      2  C   UNL     1       1.362  10.545  18.014  0.00  0.00    +0.000 C 
ATOM      3  C   UNL     1       1.911   9.142  17.761  0.00  0.00    +0.000 C 
ATOM      4  C   UNL     1       1.792   8.508  19.116  0.00  0.00    +0.000 C 
ATOM      5  C   UNL     1       2.309   7.325  19.478  0.00  0.00    +0.000 C 
ATOM      6  C   UNL     1       0.888   9.303  19.951  0.00  0.00    +0.000 C 
ATOM      7  O   UNL     1       0.480   8.947  21.047  0.00  0.00    +0.000 OA
ENDROOT
BRANCH   5   8
ATOM      8  C   UNL     1       3.098   6.514  18.542  0.00  0.00    +0.000 A 
ATOM      9  C   UNL     1       2.620   5.268  18.172  0.00  0.00    +0.000 A 
ATOM     10  C   UNL     1       3.344   4.443  17.296  0.00  0.00    +0.000 A 
ATOM     11  C   UNL     1       4.578   4.913  16.760  0.00  0.00    +0.000 A 
ATOM     12  C   UNL     1       5.059   6.188  17.129  0.00  0.00    +0.000 A 
ATOM     13  C   UNL     1       4.314   6.980  18.031  0.00  0.00    +0.000 A 
BRANCH  10  14
ATOM     14  O   UNL     1       2.880   3.209  16.983  0.00  0.00    +0.000 OA
ATOM     15  C   UNL     1       2.626   2.187  17.875  0.00  0.00    +0.000 C 
ENDBRANCH  10  14
BRANCH  11  16
ATOM     16  O   UNL     1       5.341   4.184  15.896  0.00  0.00    +0.000 OA
ATOM     17  C   UNL     1       5.438   4.332  14.528  0.00  0.00    +0.000 C 
ENDBRANCH  11  16
BRANCH  12  18
ATOM     18  O   UNL     1       6.240   6.617  16.606  0.00  0.00    +0.000 OA
ATOM     19  C   UNL     1       7.404   6.856  17.314  0.00  0.00    +0.000 C 
ENDBRANCH  12  18
ENDBRANCH   5   8
BRANCH   1  20
ATOM     20  C   UNL     1       0.297  11.774  19.944  0.00  0.00    +0.000 C 
BRANCH  20  22
ATOM     21  C   UNL     1       0.096  14.053  18.989  0.00  0.00    +0.000 C 
ATOM     22  C   UNL     1       0.846  12.967  19.194  0.00  0.00    +0.000 C 
ENDBRANCH  20  22
ENDBRANCH   1  20
BRANCH   1  23
ATOM     23  C   UNL     1      -1.146  10.124  18.632  0.00  0.00    +0.000 C 
BRANCH  23  24
ATOM     24  N   UNL     1      -1.789  11.054  17.657  0.00  0.00    +0.000 NA
ATOM     25  C   UNL     1      -2.311  10.396  16.441  0.00  0.00    +0.000 C 
ATOM     26  C   UNL     1      -2.954  11.665  18.330  0.00  0.00    +0.000 C 
ENDBRANCH  23  24
ENDBRANCH   1  23
TORSDOF 8
ENDMDL
MODEL 8
REMARK VINA RESULT:      -6.4      2.477      4.271
REMARK  Name = 
REMARK  13 active torsions:
REMARK  status: ('A' for Active; 'I' for Inactive)
REMARK    1  A    between atoms: C_2  and  C_3
REMARK    2  A    between atoms: C_3  and  C_4
REMARK    3  A    between atoms: C_4  and  C_5
REMARK    4  A    between atoms: C_5  and  N_6
REMARK    5  A    between atoms: N_6  and  C_7
REMARK    6  A    between atoms: N_6  and  C_8
REMARK    7  A    between atoms: C_12  and  C_13
REMARK    8  A    between atoms: C_15  and  O_16
REMARK    9  A    between atoms: O_16  and  C_17
REMARK   10  A    between atoms: C_18  and  O_19
REMARK   11  A    between atoms: O_19  and  C_20
REMARK   12  A    between atoms: C_21  and  O_22
REMARK   13  A    between atoms: O_22  and  C_23
REMARK                            x       y       z     vdW  Elec       q    Type
REMARK                         _______ _______ _______ _____ _____    ______ ____
ROOT
ATOM      1  C   UNL     1       5.796   5.013  16.631  0.00  0.00    +0.000 C 
ATOM      2  C   UNL     1       5.164   6.256  15.951  0.00  0.00    +0.000 C 
ATOM      3  C   UNL     1       4.339   6.982  17.011  0.00  0.00    +0.000 C 
ATOM      4  C   UNL     1       3.907   5.854  17.902  0.00  0.00    +0.000 C 
ATOM      5  C   UNL     1       3.006   5.935  18.891  0.00  0.00    +0.000 C 
ATOM      6  C   UNL     1       4.734   4.674  17.635  0.00  0.00    +0.000 C 
ATOM      7  O   UNL     1       4.715   3.658  18.314  0.00  0.00    +0.000 OA
ENDROOT
BRANCH   5   8
ATOM      8  C   UNL     1       2.308   7.191  19.192  0.00  0.00    +0.000 A 
ATOM      9  C   UNL     1       2.371   8.225  18.274  0.00  0.00    +0.000 A 
ATOM     10  C   UNL     1       1.738   9.455  18.520  0.00  0.00    +0.000 A 
ATOM     11  C   UNL     1       0.997   9.626  19.726  0.00  0.00    +0.000 A 
ATOM     12  C   UNL     1       0.924   8.566  20.656  0.00  0.00    +0.000 A 
ATOM     13  C   UNL     1       1.593   7.352  20.383  0.00  0.00    +0.000 A 
BRANCH  10  14
ATOM     14  O   UNL     1       1.851  10.470  17.629  0.00  0.00    +0.000 OA
ATOM     15  C   UNL     1       2.505  11.666  17.840  0.00  0.00    +0.000 C 
ENDBRANCH  10  14
BRANCH  11  16
ATOM     16  O   UNL     1       0.344  10.780  20.041  0.00  0.00    +0.000 OA
ATOM     17  C   UNL     1      -0.904  11.184  19.617  0.00  0.00    +0.000 C 
ENDBRANCH  11  16
BRANCH  12  18
ATOM     18  O   UNL     1       0.211   8.750  21.801  0.00  0.00    +0.000 OA
ATOM     19  C   UNL     1       0.689   9.301  22.976  0.00  0.00    +0.000 C 
ENDBRANCH  12  18
ENDBRANCH   5   8
BRANCH   1  20
ATOM     20  C   UNL     1       5.963   3.894  15.551  0.00  0.00    +0.000 C 
BRANCH  20  22
ATOM     21  C   UNL     1       6.081   3.589  13.095  0.00  0.00    +0.000 C 
ATOM     22  C   UNL     1       6.228   4.395  14.150  0.00  0.00    +0.000 C 
ENDBRANCH  20  22
ENDBRANCH   1  20
BRANCH   1  23
ATOM     23  C   UNL     1       7.193   5.297  17.298  0.00  0.00    +0.000 C 
BRANCH  23  24
ATOM     24  N   UNL     1       7.267   6.189  18.492  0.00  0.00    +0.000 NA
ATOM     25  C   UNL     1       8.043   5.633  19.621  0.00  0.00    +0.000 C 
ATOM     26  C   UNL     1       7.965   7.425  18.080  0.00  0.00    +0.000 C 
ENDBRANCH  23  24
ENDBRANCH   1  23
TORSDOF 8
ENDMDL
MODEL 9
REMARK VINA RESULT:      -6.3      2.468      7.971
REMARK  Name = 
REMARK  13 active torsions:
REMARK  status: ('A' for Active; 'I' for Inactive)
REMARK    1  A    between atoms: C_2  and  C_3
REMARK    2  A    between atoms: C_3  and  C_4
REMARK    3  A    between atoms: C_4  and  C_5
REMARK    4  A    between atoms: C_5  and  N_6
REMARK    5  A    between atoms: N_6  and  C_7
REMARK    6  A    between atoms: N_6  and  C_8
REMARK    7  A    between atoms: C_12  and  C_13
REMARK    8  A    between atoms: C_15  and  O_16
REMARK    9  A    between atoms: O_16  and  C_17
REMARK   10  A    between atoms: C_18  and  O_19
REMARK   11  A    between atoms: O_19  and  C_20
REMARK   12  A    between atoms: C_21  and  O_22
REMARK   13  A    between atoms: O_22  and  C_23
REMARK                            x       y       z     vdW  Elec       q    Type
REMARK                         _______ _______ _______ _____ _____    ______ ____
ROOT
ATOM      1  C   UNL     1       0.375  10.227  19.740  0.00  0.00    +0.000 C 
ATOM      2  C   UNL     1       1.479  10.337  18.657  0.00  0.00    +0.000 C 
ATOM      3  C   UNL     1       1.965   8.920  18.359  0.00  0.00    +0.000 C 
ATOM      4  C   UNL     1       1.756   8.232  19.676  0.00  0.00    +0.000 C 
ATOM      5  C   UNL     1       2.195   7.008  20.001  0.00  0.00    +0.000 C 
ATOM      6  C   UNL     1       0.859   9.035  20.512  0.00  0.00    +0.000 C 
ATOM      7  O   UNL     1       0.387   8.651  21.572  0.00  0.00    +0.000 OA
ENDROOT
BRANCH   5   8
ATOM      8  C   UNL     1       2.980   6.199  19.060  0.00  0.00    +0.000 A 
ATOM      9  C   UNL     1       2.379   5.109  18.454  0.00  0.00    +0.000 A 
ATOM     10  C   UNL     1       3.090   4.290  17.561  0.00  0.00    +0.000 A 
ATOM     11  C   UNL     1       4.445   4.608  17.256  0.00  0.00    +0.000 A 
ATOM     12  C   UNL     1       5.054   5.727  17.866  0.00  0.00    +0.000 A 
ATOM     13  C   UNL     1       4.314   6.513  18.777  0.00  0.00    +0.000 A 
BRANCH  10  14
ATOM     14  O   UNL     1       2.496   3.202  17.014  0.00  0.00    +0.000 OA
ATOM     15  C   UNL     1       2.128   2.054  17.686  0.00  0.00    +0.000 C 
ENDBRANCH  10  14
BRANCH  11  16
ATOM     16  O   UNL     1       5.207   3.875  16.395  0.00  0.00    +0.000 OA
ATOM     17  C   UNL     1       5.493   4.159  15.076  0.00  0.00    +0.000 C 
ENDBRANCH  11  16
BRANCH  12  18
ATOM     18  O   UNL     1       6.349   6.012  17.563  0.00  0.00    +0.000 OA
ATOM     19  C   UNL     1       6.842   7.245  17.176  0.00  0.00    +0.000 C 
ENDBRANCH  12  18
ENDBRANCH   5   8
BRANCH   1  20
ATOM     20  C   UNL     1       0.397  11.532  20.600  0.00  0.00    +0.000 C 
BRANCH  20  22
ATOM     21  C   UNL     1      -0.937  11.713  22.681  0.00  0.00    +0.000 C 
ATOM     22  C   UNL     1      -0.882  11.824  21.351  0.00  0.00    +0.000 C 
ENDBRANCH  20  22
ENDBRANCH   1  20
BRANCH   1  23
ATOM     23  C   UNL     1      -1.071  10.023  19.153  0.00  0.00    +0.000 C 
BRANCH  23  24
ATOM     24  N   UNL     1      -1.366  10.470  17.759  0.00  0.00    +0.000 NA
ATOM     25  C   UNL     1      -2.452   9.719  17.095  0.00  0.00    +0.000 C 
ATOM     26  C   UNL     1      -1.819  11.875  17.831  0.00  0.00    +0.000 C 
ENDBRANCH  23  24
ENDBRANCH   1  23
TORSDOF 8
ENDMDL
