MODEL 1
REMARK VINA RESULT:      -8.1      0.000      0.000
REMARK  Name = 
REMARK  7 active torsions:
REMARK  status: ('A' for Active; 'I' for Inactive)
REMARK    1  A    between atoms: C_1  and  C_2
REMARK    2  A    between atoms: C_2  and  S_3
REMARK    3  A    between atoms: S_3  and  N_6
REMARK    4  A    between atoms: C_15  and  C_16
REMARK    5  A    between atoms: N_18  and  C_19
REMARK    6  A    between atoms: C_24  and  O_25
REMARK    7  A    between atoms: O_25  and  C_26
REMARK                            x       y       z     vdW  Elec       q    Type
REMARK                         _______ _______ _______ _____ _____    ______ ____
ROOT
ATOM      1  N   UNL     1       4.131   5.369  17.126  0.00  0.00    +0.000 NA
ATOM      2  C   UNL     1       3.541   3.984  17.135  0.00  0.00    +0.000 C 
ATOM      3  C   UNL     1       2.686   3.656  18.346  0.00  0.00    +0.000 A 
ATOM      4  C   UNL     1       1.557   2.834  18.269  0.00  0.00    +0.000 A 
ATOM      5  C   UNL     1       0.825   2.533  19.423  0.00  0.00    +0.000 A 
ATOM      6  C   UNL     1       1.244   3.007  20.666  0.00  0.00    +0.000 A 
ATOM      7  C   UNL     1       2.379   3.806  20.758  0.00  0.00    +0.000 A 
ATOM      8  C   UNL     1       3.081   4.149  19.600  0.00  0.00    +0.000 A 
ATOM      9  C   UNL     1       4.221   5.130  19.635  0.00  0.00    +0.000 C 
ATOM     10  C   UNL     1       4.060   6.093  18.455  0.00  0.00    +0.000 C 
ENDROOT
BRANCH  10  11
ATOM     11  C   UNL     1       2.795   6.951  18.583  0.00  0.00    +0.000 C 
ATOM     12  O   UNL     1       1.947   6.966  17.687  0.00  0.00    +0.000 OA
ATOM     13  N   UNL     1       2.685   7.651  19.779  0.00  0.00    +0.000 N 
ATOM     14  H   UNL     1       3.555   7.820  20.267  0.00  0.00    +0.000 HD
BRANCH  13  15
ATOM     15  C   UNL     1       1.549   8.415  20.121  0.00  0.00    +0.000 A 
ATOM     16  C   UNL     1       0.811   8.044  21.258  0.00  0.00    +0.000 A 
ATOM     17  C   UNL     1      -0.295   8.783  21.677  0.00  0.00    +0.000 A 
ATOM     18  C   UNL     1      -0.693   9.897  20.953  0.00  0.00    +0.000 A 
ATOM     19  C   UNL     1       0.040  10.292  19.833  0.00  0.00    +0.000 A 
ATOM     20  C   UNL     1       1.168   9.569  19.415  0.00  0.00    +0.000 A 
BRANCH  20  21
ATOM     21  O   UNL     1       1.814  10.121  18.342  0.00  0.00    +0.000 OA
ATOM     22  C   UNL     1       2.054  11.519  18.414  0.00  0.00    +0.000 C 
ENDBRANCH  20  21
ENDBRANCH  13  15
ENDBRANCH  10  11
BRANCH   1  23
ATOM     23  S   UNL     1       5.660   5.513  16.368  0.00  0.00    +0.000 S 
ATOM     24  O   UNL     1       6.650   5.753  17.392  0.00  0.00    +0.000 OA
ATOM     25  O   UNL     1       5.521   6.403  15.233  0.00  0.00    +0.000 OA
BRANCH  23  27
ATOM     26  C   UNL     1       6.135   3.944  14.196  0.00  0.00    +0.000 C 
ATOM     27  C   UNL     1       5.891   3.869  15.694  0.00  0.00    +0.000 C 
ENDBRANCH  23  27
ENDBRANCH   1  23
TORSDOF 5
ENDMDL
MODEL 2
REMARK VINA RESULT:      -8.1      1.026      1.384
REMARK  Name = 
REMARK  7 active torsions:
REMARK  status: ('A' for Active; 'I' for Inactive)
REMARK    1  A    between atoms: C_1  and  C_2
REMARK    2  A    between atoms: C_2  and  S_3
REMARK    3  A    between atoms: S_3  and  N_6
REMARK    4  A    between atoms: C_15  and  C_16
REMARK    5  A    between atoms: N_18  and  C_19
REMARK    6  A    between atoms: C_24  and  O_25
REMARK    7  A    between atoms: O_25  and  C_26
REMARK                            x       y       z     vdW  Elec       q    Type
REMARK                         _______ _______ _______ _____ _____    ______ ____
ROOT
ATOM      1  N   UNL     1       4.092   5.268  17.192  0.00  0.00    +0.000 NA
ATOM      2  C   UNL     1       3.494   3.887  17.217  0.00  0.00    +0.000 C 
ATOM      3  C   UNL     1       2.635   3.578  18.430  0.00  0.00    +0.000 A 
ATOM      4  C   UNL     1       1.503   2.760  18.361  0.00  0.00    +0.000 A 
ATOM      5  C   UNL     1       0.767   2.477  19.518  0.00  0.00    +0.000 A 
ATOM      6  C   UNL     1       1.186   2.966  20.756  0.00  0.00    +0.000 A 
ATOM      7  C   UNL     1       2.324   3.760  20.840  0.00  0.00    +0.000 A 
ATOM      8  C   UNL     1       3.030   4.085  19.679  0.00  0.00    +0.000 A 
ATOM      9  C   UNL     1       4.175   5.060  19.704  0.00  0.00    +0.000 C 
ATOM     10  C   UNL     1       4.021   6.009  18.512  0.00  0.00    +0.000 C 
ENDROOT
BRANCH  10  11
ATOM     11  C   UNL     1       2.760   6.875  18.626  0.00  0.00    +0.000 C 
ATOM     12  O   UNL     1       1.899   6.858  17.743  0.00  0.00    +0.000 OA
ATOM     13  N   UNL     1       2.669   7.620  19.796  0.00  0.00    +0.000 N 
ATOM     14  H   UNL     1       3.547   7.805  20.265  0.00  0.00    +0.000 HD
BRANCH  13  15
ATOM     15  C   UNL     1       1.540   8.399  20.126  0.00  0.00    +0.000 A 
ATOM     16  C   UNL     1       0.815   8.070  21.283  0.00  0.00    +0.000 A 
ATOM     17  C   UNL     1      -0.284   8.827  21.691  0.00  0.00    +0.000 A 
ATOM     18  C   UNL     1      -0.687   9.917  20.934  0.00  0.00    +0.000 A 
ATOM     19  C   UNL     1       0.035  10.271  19.792  0.00  0.00    +0.000 A 
ATOM     20  C   UNL     1       1.154   9.531  19.386  0.00  0.00    +0.000 A 
BRANCH  20  21
ATOM     21  O   UNL     1       1.790  10.044  18.288  0.00  0.00    +0.000 OA
ATOM     22  C   UNL     1       2.095  11.430  18.338  0.00  0.00    +0.000 C 
ENDBRANCH  20  21
ENDBRANCH  13  15
ENDBRANCH  10  11
BRANCH   1  23
ATOM     23  S   UNL     1       5.623   5.395  16.435  0.00  0.00    +0.000 S 
ATOM     24  O   UNL     1       5.412   5.560  15.016  0.00  0.00    +0.000 OA
ATOM     25  O   UNL     1       6.471   4.340  16.952  0.00  0.00    +0.000 OA
BRANCH  23  27
ATOM     26  C   UNL     1       7.579   6.690  17.814  0.00  0.00    +0.000 C 
ATOM     27  C   UNL     1       6.246   6.926  17.124  0.00  0.00    +0.000 C 
ENDBRANCH  23  27
ENDBRANCH   1  23
TORSDOF 5
ENDMDL
MODEL 3
REMARK VINA RESULT:      -7.9      1.329      1.963
REMARK  Name = 
REMARK  7 active torsions:
REMARK  status: ('A' for Active; 'I' for Inactive)
REMARK    1  A    between atoms: C_1  and  C_2
REMARK    2  A    between atoms: C_2  and  S_3
REMARK    3  A    between atoms: S_3  and  N_6
REMARK    4  A    between atoms: C_15  and  C_16
REMARK    5  A    between atoms: N_18  and  C_19
REMARK    6  A    between atoms: C_24  and  O_25
REMARK    7  A    between atoms: O_25  and  C_26
REMARK                            x       y       z     vdW  Elec       q    Type
REMARK                         _______ _______ _______ _____ _____    ______ ____
ROOT
ATOM      1  N   UNL     1       4.414   5.467  16.890  0.00  0.00    +0.000 NA
ATOM      2  C   UNL     1       4.041   4.009  16.892  0.00  0.00    +0.000 C 
ATOM      3  C   UNL     1       3.176   3.566  18.058  0.00  0.00    +0.000 A 
ATOM      4  C   UNL     1       2.192   2.580  17.933  0.00  0.00    +0.000 A 
ATOM      5  C   UNL     1       1.447   2.183  19.049  0.00  0.00    +0.000 A 
ATOM      6  C   UNL     1       1.714   2.729  20.305  0.00  0.00    +0.000 A 
ATOM      7  C   UNL     1       2.707   3.693  20.446  0.00  0.00    +0.000 A 
ATOM      8  C   UNL     1       3.416   4.127  19.323  0.00  0.00    +0.000 A 
ATOM      9  C   UNL     1       4.390   5.270  19.405  0.00  0.00    +0.000 C 
ATOM     10  C   UNL     1       4.155   6.185  18.199  0.00  0.00    +0.000 C 
ENDROOT
BRANCH  10  11
ATOM     11  C   UNL     1       2.769   6.841  18.238  0.00  0.00    +0.000 C 
ATOM     12  O   UNL     1       1.767   6.228  17.860  0.00  0.00    +0.000 OA
ATOM     13  N   UNL     1       2.748   8.130  18.758  0.00  0.00    +0.000 N 
ATOM     14  H   UNL     1       3.628   8.630  18.720  0.00  0.00    +0.000 HD
BRANCH  13  15
ATOM     15  C   UNL     1       1.557   8.858  18.965  0.00  0.00    +0.000 A 
ATOM     16  C   UNL     1       0.919   9.427  17.850  0.00  0.00    +0.000 A 
ATOM     17  C   UNL     1      -0.285  10.120  17.979  0.00  0.00    +0.000 A 
ATOM     18  C   UNL     1      -0.861  10.271  19.232  0.00  0.00    +0.000 A 
ATOM     19  C   UNL     1      -0.251   9.694  20.347  0.00  0.00    +0.000 A 
ATOM     20  C   UNL     1       0.947   8.976  20.226  0.00  0.00    +0.000 A 
BRANCH  20  21
ATOM     21  O   UNL     1       1.382   8.418  21.398  0.00  0.00    +0.000 OA
ATOM     22  C   UNL     1       1.213   9.214  22.563  0.00  0.00    +0.000 C 
ENDBRANCH  20  21
ENDBRANCH  13  15
ENDBRANCH  10  11
BRANCH   1  23
ATOM     23  S   UNL     1       5.945   5.835  16.218  0.00  0.00    +0.000 S 
ATOM     24  O   UNL     1       6.416   7.063  16.815  0.00  0.00    +0.000 OA
ATOM     25  O   UNL     1       5.857   5.683  14.780  0.00  0.00    +0.000 OA
BRANCH  23  27
ATOM     26  C   UNL     1       7.713   4.879  18.053  0.00  0.00    +0.000 C 
ATOM     27  C   UNL     1       6.942   4.470  16.809  0.00  0.00    +0.000 C 
ENDBRANCH  23  27
ENDBRANCH   1  23
TORSDOF 5
ENDMDL
MODEL 4
REMARK VINA RESULT:      -7.9      1.409      2.206
REMARK  Name = 
REMARK  7 active torsions:
REMARK  status: ('A' for Active; 'I' for Inactive)
REMARK    1  A    between atoms: C_1  and  C_2
REMARK    2  A    between atoms: C_2  and  S_3
REMARK    3  A    between atoms: S_3  and  N_6
REMARK    4  A    between atoms: C_15  and  C_16
REMARK    5  A    between atoms: N_18  and  C_19
REMARK    6  A    between atoms: C_24  and  O_25
REMARK    7  A    between atoms: O_25  and  C_26
REMARK                            x       y       z     vdW  Elec       q    Type
REMARK                         _______ _______ _______ _____ _____    ______ ____
ROOT
ATOM      1  N   UNL     1       4.206   5.383  17.057  0.00  0.00    +0.000 NA
ATOM      2  C   UNL     1       3.693   3.973  17.176  0.00  0.00    +0.000 C 
ATOM      3  C   UNL     1       2.749   3.726  18.339  0.00  0.00    +0.000 A 
ATOM      4  C   UNL     1       1.679   2.829  18.261  0.00  0.00    +0.000 A 
ATOM      5  C   UNL     1       0.862   2.610  19.376  0.00  0.00    +0.000 A 
ATOM      6  C   UNL     1       1.138   3.245  20.587  0.00  0.00    +0.000 A 
ATOM      7  C   UNL     1       2.214   4.121  20.682  0.00  0.00    +0.000 A 
ATOM      8  C   UNL     1       3.000   4.379  19.556  0.00  0.00    +0.000 A 
ATOM      9  C   UNL     1       4.077   5.428  19.575  0.00  0.00    +0.000 C 
ATOM     10  C   UNL     1       3.973   6.243  18.283  0.00  0.00    +0.000 C 
ENDROOT
BRANCH  10  11
ATOM     11  C   UNL     1       2.657   7.027  18.202  0.00  0.00    +0.000 C 
ATOM     12  O   UNL     1       1.736   6.645  17.475  0.00  0.00    +0.000 OA
ATOM     13  N   UNL     1       2.592   8.143  19.027  0.00  0.00    +0.000 N 
ATOM     14  H   UNL     1       3.485   8.531  19.307  0.00  0.00    +0.000 HD
BRANCH  13  15
ATOM     15  C   UNL     1       1.431   8.932  19.165  0.00  0.00    +0.000 A 
ATOM     16  C   UNL     1       0.863   9.494  18.009  0.00  0.00    +0.000 A 
ATOM     17  C   UNL     1      -0.310  10.246  18.069  0.00  0.00    +0.000 A 
ATOM     18  C   UNL     1      -0.925  10.465  19.293  0.00  0.00    +0.000 A 
ATOM     19  C   UNL     1      -0.386   9.897  20.449  0.00  0.00    +0.000 A 
ATOM     20  C   UNL     1       0.780   9.120  20.396  0.00  0.00    +0.000 A 
BRANCH  20  21
ATOM     21  O   UNL     1       1.143   8.582  21.601  0.00  0.00    +0.000 OA
ATOM     22  C   UNL     1       0.730   9.305  22.753  0.00  0.00    +0.000 C 
ENDBRANCH  20  21
ENDBRANCH  13  15
ENDBRANCH  10  11
BRANCH   1  23
ATOM     23  S   UNL     1       5.788   5.541  16.420  0.00  0.00    +0.000 S 
ATOM     24  O   UNL     1       5.680   5.802  15.004  0.00  0.00    +0.000 OA
ATOM     25  O   UNL     1       6.589   4.443  16.924  0.00  0.00    +0.000 OA
BRANCH  23  27
ATOM     26  C   UNL     1       7.639   6.711  18.035  0.00  0.00    +0.000 C 
ATOM     27  C   UNL     1       6.372   7.015  17.253  0.00  0.00    +0.000 C 
ENDBRANCH  23  27
ENDBRANCH   1  23
TORSDOF 5
ENDMDL
MODEL 5
REMARK VINA RESULT:      -7.9      1.036      1.695
REMARK  Name = 
REMARK  7 active torsions:
REMARK  status: ('A' for Active; 'I' for Inactive)
REMARK    1  A    between atoms: C_1  and  C_2
REMARK    2  A    between atoms: C_2  and  S_3
REMARK    3  A    between atoms: S_3  and  N_6
REMARK    4  A    between atoms: C_15  and  C_16
REMARK    5  A    between atoms: N_18  and  C_19
REMARK    6  A    between atoms: C_24  and  O_25
REMARK    7  A    between atoms: O_25  and  C_26
REMARK                            x       y       z     vdW  Elec       q    Type
REMARK                         _______ _______ _______ _____ _____    ______ ____
ROOT
ATOM      1  N   UNL     1       4.198   5.267  17.022  0.00  0.00    +0.000 NA
ATOM      2  C   UNL     1       3.752   3.838  17.175  0.00  0.00    +0.000 C 
ATOM      3  C   UNL     1       2.884   3.560  18.389  0.00  0.00    +0.000 A 
ATOM      4  C   UNL     1       1.849   2.619  18.374  0.00  0.00    +0.000 A 
ATOM      5  C   UNL     1       1.104   2.374  19.533  0.00  0.00    +0.000 A 
ATOM      6  C   UNL     1       1.419   3.028  20.725  0.00  0.00    +0.000 A 
ATOM      7  C   UNL     1       2.461   3.948  20.757  0.00  0.00    +0.000 A 
ATOM      8  C   UNL     1       3.174   4.230  19.588  0.00  0.00    +0.000 A 
ATOM      9  C   UNL     1       4.205   5.323  19.544  0.00  0.00    +0.000 C 
ATOM     10  C   UNL     1       3.998   6.125  18.256  0.00  0.00    +0.000 C 
ENDROOT
BRANCH  10  11
ATOM     11  C   UNL     1       2.648   6.853  18.244  0.00  0.00    +0.000 C 
ATOM     12  O   UNL     1       1.641   6.313  17.778  0.00  0.00    +0.000 OA
ATOM     13  N   UNL     1       2.662   8.116  18.824  0.00  0.00    +0.000 N 
ATOM     14  H   UNL     1       3.567   8.568  18.863  0.00  0.00    +0.000 HD
BRANCH  13  15
ATOM     15  C   UNL     1       1.499   8.897  18.995  0.00  0.00    +0.000 A 
ATOM     16  C   UNL     1       0.866   9.414  17.852  0.00  0.00    +0.000 A 
ATOM     17  C   UNL     1      -0.311  10.155  17.948  0.00  0.00    +0.000 A 
ATOM     18  C   UNL     1      -0.865  10.409  19.194  0.00  0.00    +0.000 A 
ATOM     19  C   UNL     1      -0.260   9.887  20.339  0.00  0.00    +0.000 A 
ATOM     20  C   UNL     1       0.911   9.120  20.252  0.00  0.00    +0.000 A 
BRANCH  20  21
ATOM     21  O   UNL     1       1.342   8.627  21.454  0.00  0.00    +0.000 OA
ATOM     22  C   UNL     1       0.778   9.231  22.610  0.00  0.00    +0.000 C 
ENDBRANCH  20  21
ENDBRANCH  13  15
ENDBRANCH  10  11
BRANCH   1  23
ATOM     23  S   UNL     1       5.735   5.486  16.300  0.00  0.00    +0.000 S 
ATOM     24  O   UNL     1       6.698   5.717  17.351  0.00  0.00    +0.000 OA
ATOM     25  O   UNL     1       5.589   6.414  15.196  0.00  0.00    +0.000 OA
BRANCH  23  27
ATOM     26  C   UNL     1       6.061   3.984  14.055  0.00  0.00    +0.000 C 
ATOM     27  C   UNL     1       6.029   3.877  15.570  0.00  0.00    +0.000 C 
ENDBRANCH  23  27
ENDBRANCH   1  23
TORSDOF 5
ENDMDL
MODEL 6
REMARK VINA RESULT:      -7.6      2.478      4.557
REMARK  Name = 
REMARK  7 active torsions:
REMARK  status: ('A' for Active; 'I' for Inactive)
REMARK    1  A    between atoms: C_1  and  C_2
REMARK    2  A    between atoms: C_2  and  S_3
REMARK    3  A    between atoms: S_3  and  N_6
REMARK    4  A    between atoms: C_15  and  C_16
REMARK    5  A    between atoms: N_18  and  C_19
REMARK    6  A    between atoms: C_24  and  O_25
REMARK    7  A    between atoms: O_25  and  C_26
REMARK                            x       y       z     vdW  Elec       q    Type
REMARK                         _______ _______ _______ _____ _____    ______ ____
ROOT
ATOM      1  N   UNL     1       3.539   4.116  18.933  0.00  0.00    +0.000 NA
ATOM      2  C   UNL     1       5.026   3.946  19.101  0.00  0.00    +0.000 C 
ATOM      3  C   UNL     1       5.867   5.112  18.612  0.00  0.00    +0.000 A 
ATOM      4  C   UNL     1       7.054   5.498  19.243  0.00  0.00    +0.000 A 
ATOM      5  C   UNL     1       7.811   6.557  18.728  0.00  0.00    +0.000 A 
ATOM      6  C   UNL     1       7.416   7.201  17.555  0.00  0.00    +0.000 A 
ATOM      7  C   UNL     1       6.250   6.809  16.907  0.00  0.00    +0.000 A 
ATOM      8  C   UNL     1       5.466   5.786  17.448  0.00  0.00    +0.000 A 
ATOM      9  C   UNL     1       4.126   5.433  16.864  0.00  0.00    +0.000 C 
ATOM     10  C   UNL     1       3.135   5.253  18.017  0.00  0.00    +0.000 C 
ENDROOT
BRANCH  10  11
ATOM     11  C   UNL     1       2.902   6.562  18.783  0.00  0.00    +0.000 C 
ATOM     12  O   UNL     1       3.471   6.778  19.856  0.00  0.00    +0.000 OA
ATOM     13  N   UNL     1       2.050   7.461  18.153  0.00  0.00    +0.000 N 
ATOM     14  H   UNL     1       1.409   7.058  17.481  0.00  0.00    +0.000 HD
BRANCH  13  15
ATOM     15  C   UNL     1       1.791   8.755  18.653  0.00  0.00    +0.000 A 
ATOM     16  C   UNL     1       2.126   9.861  17.854  0.00  0.00    +0.000 A 
ATOM     17  C   UNL     1       1.855  11.165  18.269  0.00  0.00    +0.000 A 
ATOM     18  C   UNL     1       1.260  11.384  19.502  0.00  0.00    +0.000 A 
ATOM     19  C   UNL     1       0.902  10.297  20.301  0.00  0.00    +0.000 A 
ATOM     20  C   UNL     1       1.149   8.981  19.883  0.00  0.00    +0.000 A 
BRANCH  20  21
ATOM     21  O   UNL     1       0.681   8.028  20.747  0.00  0.00    +0.000 OA
ATOM     22  C   UNL     1      -0.265   8.473  21.709  0.00  0.00    +0.000 C 
ENDBRANCH  20  21
ENDBRANCH  13  15
ENDBRANCH  10  11
BRANCH   1  23
ATOM     23  S   UNL     1       2.662   2.675  18.637  0.00  0.00    +0.000 S 
ATOM     24  O   UNL     1       3.610   1.605  18.433  0.00  0.00    +0.000 OA
ATOM     25  O   UNL     1       1.634   2.965  17.658  0.00  0.00    +0.000 OA
BRANCH  23  27
ATOM     26  C   UNL     1       1.110   3.708  20.618  0.00  0.00    +0.000 C 
ATOM     27  C   UNL     1       1.819   2.432  20.197  0.00  0.00    +0.000 C 
ENDBRANCH  23  27
ENDBRANCH   1  23
TORSDOF 5
ENDMDL
MODEL 7
REMARK VINA RESULT:      -7.2      2.399      4.234
REMARK  Name = 
REMARK  7 active torsions:
REMARK  status: ('A' for Active; 'I' for Inactive)
REMARK    1  A    between atoms: C_1  and  C_2
REMARK    2  A    between atoms: C_2  and  S_3
REMARK    3  A    between atoms: S_3  and  N_6
REMARK    4  A    between atoms: C_15  and  C_16
REMARK    5  A    between atoms: N_18  and  C_19
REMARK    6  A    between atoms: C_24  and  O_25
REMARK    7  A    between atoms: O_25  and  C_26
REMARK                            x       y       z     vdW  Elec       q    Type
REMARK                         _______ _______ _______ _____ _____    ______ ____
ROOT
ATOM      1  N   UNL     1       3.384   4.338  18.880  0.00  0.00    +0.000 NA
ATOM      2  C   UNL     1       4.832   4.088  19.204  0.00  0.00    +0.000 C 
ATOM      3  C   UNL     1       5.795   5.159  18.721  0.00  0.00    +0.000 A 
ATOM      4  C   UNL     1       6.942   5.517  19.437  0.00  0.00    +0.000 A 
ATOM      5  C   UNL     1       7.815   6.484  18.928  0.00  0.00    +0.000 A 
ATOM      6  C   UNL     1       7.578   7.061  17.681  0.00  0.00    +0.000 A 
ATOM      7  C   UNL     1       6.453   6.696  16.949  0.00  0.00    +0.000 A 
ATOM      8  C   UNL     1       5.553   5.767  17.479  0.00  0.00    +0.000 A 
ATOM      9  C   UNL     1       4.252   5.457  16.792  0.00  0.00    +0.000 C 
ATOM     10  C   UNL     1       3.147   5.426  17.852  0.00  0.00    +0.000 C 
ENDROOT
BRANCH  10  11
ATOM     11  C   UNL     1       2.935   6.801  18.499  0.00  0.00    +0.000 C 
ATOM     12  O   UNL     1       3.560   7.789  18.106  0.00  0.00    +0.000 OA
ATOM     13  N   UNL     1       1.977   6.829  19.506  0.00  0.00    +0.000 N 
ATOM     14  H   UNL     1       1.786   5.940  19.951  0.00  0.00    +0.000 HD
BRANCH  13  15
ATOM     15  C   UNL     1       1.574   8.018  20.151  0.00  0.00    +0.000 A 
ATOM     16  C   UNL     1       1.752   8.118  21.541  0.00  0.00    +0.000 A 
ATOM     17  C   UNL     1       1.417   9.282  22.233  0.00  0.00    +0.000 A 
ATOM     18  C   UNL     1       0.878  10.359  21.546  0.00  0.00    +0.000 A 
ATOM     19  C   UNL     1       0.712  10.284  20.162  0.00  0.00    +0.000 A 
ATOM     20  C   UNL     1       1.068   9.128  19.453  0.00  0.00    +0.000 A 
BRANCH  20  21
ATOM     21  O   UNL     1       0.906   9.236  18.098  0.00  0.00    +0.000 OA
ATOM     22  C   UNL     1      -0.310   9.828  17.664  0.00  0.00    +0.000 C 
ENDBRANCH  20  21
ENDBRANCH  13  15
ENDBRANCH  10  11
BRANCH   1  23
ATOM     23  S   UNL     1       2.440   2.937  18.598  0.00  0.00    +0.000 S 
ATOM     24  O   UNL     1       3.226   1.783  18.966  0.00  0.00    +0.000 OA
ATOM     25  O   UNL     1       1.841   3.051  17.283  0.00  0.00    +0.000 OA
BRANCH  23  27
ATOM     26  C   UNL     1       1.667   3.523  21.140  0.00  0.00    +0.000 C 
ATOM     27  C   UNL     1       1.109   3.148  19.778  0.00  0.00    +0.000 C 
ENDBRANCH  23  27
ENDBRANCH   1  23
TORSDOF 5
ENDMDL
MODEL 8
REMARK VINA RESULT:      -6.9      2.442      4.419
REMARK  Name = 
REMARK  7 active torsions:
REMARK  status: ('A' for Active; 'I' for Inactive)
REMARK    1  A    between atoms: C_1  and  C_2
REMARK    2  A    between atoms: C_2  and  S_3
REMARK    3  A    between atoms: S_3  and  N_6
REMARK    4  A    between atoms: C_15  and  C_16
REMARK    5  A    between atoms: N_18  and  C_19
REMARK    6  A    between atoms: C_24  and  O_25
REMARK    7  A    between atoms: O_25  and  C_26
REMARK                            x       y       z     vdW  Elec       q    Type
REMARK                         _______ _______ _______ _____ _____    ______ ____
ROOT
ATOM      1  N   UNL     1       3.125   4.750  19.319  0.00  0.00    +0.000 NA
ATOM      2  C   UNL     1       4.560   4.490  19.692  0.00  0.00    +0.000 C 
ATOM      3  C   UNL     1       5.587   5.243  18.866  0.00  0.00    +0.000 A 
ATOM      4  C   UNL     1       6.789   5.712  19.407  0.00  0.00    +0.000 A 
ATOM      5  C   UNL     1       7.719   6.368  18.592  0.00  0.00    +0.000 A 
ATOM      6  C   UNL     1       7.478   6.514  17.226  0.00  0.00    +0.000 A 
ATOM      7  C   UNL     1       6.297   6.031  16.673  0.00  0.00    +0.000 A 
ATOM      8  C   UNL     1       5.346   5.421  17.495  0.00  0.00    +0.000 A 
ATOM      9  C   UNL     1       3.996   5.020  16.967  0.00  0.00    +0.000 C 
ATOM     10  C   UNL     1       2.937   5.449  17.988  0.00  0.00    +0.000 C 
ENDROOT
BRANCH  10  11
ATOM     11  C   UNL     1       2.868   6.974  18.137  0.00  0.00    +0.000 C 
ATOM     12  O   UNL     1       3.593   7.710  17.462  0.00  0.00    +0.000 OA
ATOM     13  N   UNL     1       1.917   7.429  19.042  0.00  0.00    +0.000 N 
ATOM     14  H   UNL     1       1.634   6.761  19.749  0.00  0.00    +0.000 HD
BRANCH  13  15
ATOM     15  C   UNL     1       1.638   8.797  19.244  0.00  0.00    +0.000 A 
ATOM     16  C   UNL     1       1.858   9.688  18.180  0.00  0.00    +0.000 A 
ATOM     17  C   UNL     1       1.560  11.046  18.298  0.00  0.00    +0.000 A 
ATOM     18  C   UNL     1       1.053  11.538  19.492  0.00  0.00    +0.000 A 
ATOM     19  C   UNL     1       0.809  10.663  20.552  0.00  0.00    +0.000 A 
ATOM     20  C   UNL     1       1.084   9.293  20.437  0.00  0.00    +0.000 A 
BRANCH  20  21
ATOM     21  O   UNL     1       0.729   8.561  21.538  0.00  0.00    +0.000 OA
ATOM     22  C   UNL     1       0.584   9.292  22.748  0.00  0.00    +0.000 C 
ENDBRANCH  20  21
ENDBRANCH  13  15
ENDBRANCH  10  11
BRANCH   1  23
ATOM     23  S   UNL     1       2.056   3.429  19.536  0.00  0.00    +0.000 S 
ATOM     24  O   UNL     1       1.189   3.357  18.383  0.00  0.00    +0.000 OA
ATOM     25  O   UNL     1       1.517   3.499  20.879  0.00  0.00    +0.000 OA
BRANCH  23  27
ATOM     26  C   UNL     1       3.429   1.578  18.090  0.00  0.00    +0.000 C 
ATOM     27  C   UNL     1       3.184   2.038  19.517  0.00  0.00    +0.000 C 
ENDBRANCH  23  27
ENDBRANCH   1  23
TORSDOF 5
ENDMDL
MODEL 9
REMARK VINA RESULT:      -6.9      2.584      4.579
REMARK  Name = 
REMARK  7 active torsions:
REMARK  status: ('A' for Active; 'I' for Inactive)
REMARK    1  A    between atoms: C_1  and  C_2
REMARK    2  A    between atoms: C_2  and  S_3
REMARK    3  A    between atoms: S_3  and  N_6
REMARK    4  A    between atoms: C_15  and  C_16
REMARK    5  A    between atoms: N_18  and  C_19
REMARK    6  A    between atoms: C_24  and  O_25
REMARK    7  A    between atoms: O_25  and  C_26
REMARK                            x       y       z     vdW  Elec       q    Type
REMARK                         _______ _______ _______ _____ _____    ______ ____
ROOT
ATOM      1  N   UNL     1       3.377   4.637  19.904  0.00  0.00    +0.000 NA
ATOM      2  C   UNL     1       4.873   4.470  19.942  0.00  0.00    +0.000 C 
ATOM      3  C   UNL     1       5.626   5.142  18.808  0.00  0.00    +0.000 A 
ATOM      4  C   UNL     1       6.892   5.712  18.980  0.00  0.00    +0.000 A 
ATOM      5  C   UNL     1       7.558   6.286  17.891  0.00  0.00    +0.000 A 
ATOM      6  C   UNL     1       6.990   6.248  16.618  0.00  0.00    +0.000 A 
ATOM      7  C   UNL     1       5.742   5.663  16.431  0.00  0.00    +0.000 A 
ATOM      8  C   UNL     1       5.053   5.135  17.526  0.00  0.00    +0.000 A 
ATOM      9  C   UNL     1       3.643   4.630  17.395  0.00  0.00    +0.000 C 
ATOM     10  C   UNL     1       2.835   5.154  18.586  0.00  0.00    +0.000 C 
ENDROOT
BRANCH  10  11
ATOM     11  C   UNL     1       2.712   6.683  18.568  0.00  0.00    +0.000 C 
ATOM     12  O   UNL     1       3.295   7.355  17.713  0.00  0.00    +0.000 OA
ATOM     13  N   UNL     1       1.880   7.212  19.547  0.00  0.00    +0.000 N 
ATOM     14  H   UNL     1       1.734   6.626  20.359  0.00  0.00    +0.000 HD
BRANCH  13  15
ATOM     15  C   UNL     1       1.564   8.585  19.629  0.00  0.00    +0.000 A 
ATOM     16  C   UNL     1       1.578   9.347  18.448  0.00  0.00    +0.000 A 
ATOM     17  C   UNL     1       1.231  10.698  18.453  0.00  0.00    +0.000 A 
ATOM     18  C   UNL     1       0.884  11.315  19.645  0.00  0.00    +0.000 A 
ATOM     19  C   UNL     1       0.846  10.569  20.825  0.00  0.00    +0.000 A 
ATOM     20  C   UNL     1       1.169   9.204  20.828  0.00  0.00    +0.000 A 
BRANCH  20  21
ATOM     21  O   UNL     1       1.020   8.602  22.047  0.00  0.00    +0.000 OA
ATOM     22  C   UNL     1       0.291   9.339  23.019  0.00  0.00    +0.000 C 
ENDBRANCH  20  21
ENDBRANCH  13  15
ENDBRANCH  10  11
BRANCH   1  23
ATOM     23  S   UNL     1       2.473   3.324  20.529  0.00  0.00    +0.000 S 
ATOM     24  O   UNL     1       2.290   3.537  21.946  0.00  0.00    +0.000 OA
ATOM     25  O   UNL     1       3.049   2.095  20.021  0.00  0.00    +0.000 OA
BRANCH  23  27
ATOM     26  C   UNL     1       0.604   2.315  18.828  0.00  0.00    +0.000 C 
ATOM     27  C   UNL     1       0.903   3.529  19.692  0.00  0.00    +0.000 C 
ENDBRANCH  23  27
ENDBRANCH   1  23
TORSDOF 5
ENDMDL
