MODEL 1
REMARK VINA RESULT:      -5.6      0.000      0.000
REMARK  Name = 
REMARK  20 active torsions:
REMARK  status: ('A' for Active; 'I' for Inactive)
REMARK    1  A    between atoms: C_2  and  O_3
REMARK    2  A    between atoms: C_2  and  C_4
REMARK    3  A    between atoms: C_4  and  N_5
REMARK    4  A    between atoms: C_6  and  C_8
REMARK    5  A    between atoms: C_8  and  C_9
REMARK    6  A    between atoms: C_9  and  C_10
REMARK    7  A    between atoms: C_10  and  C_11
REMARK    8  A    between atoms: C_12  and  C_13
REMARK    9  A    between atoms: C_13  and  C_14
REMARK   10  A    between atoms: C_14  and  C_15
REMARK   11  A    between atoms: C_15  and  C_16
REMARK   12  A    between atoms: C_16  and  C_17
REMARK   13  A    between atoms: C_17  and  C_18
REMARK   14  A    between atoms: C_18  and  C_19
REMARK   15  A    between atoms: C_19  and  C_20
REMARK   16  A    between atoms: C_21  and  C_22
REMARK   17  A    between atoms: C_22  and  C_23
REMARK   18  A    between atoms: C_23  and  C_24
REMARK   19  A    between atoms: C_24  and  C_25
REMARK   20  A    between atoms: C_25  and  O_26
REMARK                            x       y       z     vdW  Elec       q    Type
REMARK                         _______ _______ _______ _____ _____    ______ ____
ROOT
ATOM      1  C   UNL     1       0.901   3.475  20.114  0.00  0.00    +0.000 C 
ENDROOT
BRANCH   1   3
ATOM      2  C   UNL     1       2.364   5.414  20.844  0.00  0.00    +0.000 C 
ATOM      3  C   UNL     1       1.829   4.201  21.043  0.00  0.00    +0.000 C 
BRANCH   2   4
ATOM      4  C   UNL     1       2.121   6.302  19.662  0.00  0.00    +0.000 C 
BRANCH   4   5
ATOM      5  C   UNL     1       1.941   7.749  20.098  0.00  0.00    +0.000 C 
BRANCH   5   6
ATOM      6  C   UNL     1       1.661   8.638  18.891  0.00  0.00    +0.000 C 
BRANCH   6   8
ATOM      7  N   UNL     1       0.412  10.591  18.208  0.00  0.00    +0.000 N 
ATOM      8  C   UNL     1       0.724   9.763  19.255  0.00  0.00    +0.000 C 
ATOM      9  O   UNL     1       0.267   9.940  20.378  0.00  0.00    +0.000 OA
ATOM     10  H   UNL     1       0.806  10.453  17.279  0.00  0.00    +0.000 HD
BRANCH   7  11
ATOM     11  C   UNL     1      -0.474  11.707  18.434  0.00  0.00    +0.000 C 
BRANCH  11  13
ATOM     12  O   UNL     1      -2.095  10.786  16.878  0.00  0.00    +0.000 OA
ATOM     13  C   UNL     1      -1.852  11.498  17.846  0.00  0.00    +0.000 C 
BRANCH  13  14
ATOM     14  O   UNL     1      -2.816  12.190  18.504  0.00  0.00    +0.000 OA
ATOM     15  H   UNL     1      -2.568  13.112  18.717  0.00  0.00    +0.000 HD
ENDBRANCH  13  14
ENDBRANCH  11  13
ENDBRANCH   7  11
ENDBRANCH   6   8
ENDBRANCH   5   6
ENDBRANCH   4   5
ENDBRANCH   2   4
ENDBRANCH   1   3
BRANCH   1  16
ATOM     16  C   UNL     1       1.537   2.231  19.488  0.00  0.00    +0.000 C 
BRANCH  16  17
ATOM     17  C   UNL     1       1.972   2.401  18.026  0.00  0.00    +0.000 C 
BRANCH  17  18
ATOM     18  C   UNL     1       3.487   2.390  17.822  0.00  0.00    +0.000 C 
BRANCH  18  19
ATOM     19  C   UNL     1       4.112   3.780  17.969  0.00  0.00    +0.000 C 
BRANCH  19  20
ATOM     20  C   UNL     1       5.181   3.835  19.060  0.00  0.00    +0.000 C 
BRANCH  20  21
ATOM     21  C   UNL     1       5.746   5.235  19.319  0.00  0.00    +0.000 C 
BRANCH  21  22
ATOM     22  C   UNL     1       6.933   5.559  18.451  0.00  0.00    +0.000 C 
ATOM     23  C   UNL     1       6.884   6.258  17.309  0.00  0.00    +0.000 C 
BRANCH  23  24
ATOM     24  C   UNL     1       5.607   6.803  16.758  0.00  0.00    +0.000 C 
BRANCH  24  25
ATOM     25  C   UNL     1       5.289   6.263  15.374  0.00  0.00    +0.000 C 
BRANCH  25  26
ATOM     26  C   UNL     1       6.434   5.364  14.910  0.00  0.00    +0.000 C 
BRANCH  26  27
ATOM     27  C   UNL     1       5.944   3.970  14.559  0.00  0.00    +0.000 C 
BRANCH  27  28
ATOM     28  O   UNL     1       6.261   3.052  15.595  0.00  0.00    +0.000 OA
ATOM     29  H   UNL     1       6.550   3.567  16.368  0.00  0.00    +0.000 HD
ENDBRANCH  27  28
ENDBRANCH  26  27
ENDBRANCH  25  26
ENDBRANCH  24  25
ENDBRANCH  23  24
ENDBRANCH  21  22
ENDBRANCH  20  21
ENDBRANCH  19  20
ENDBRANCH  18  19
ENDBRANCH  17  18
ENDBRANCH  16  17
ENDBRANCH   1  16
TORSDOF 20
ENDMDL
MODEL 2
REMARK VINA RESULT:      -5.4      2.900      7.825
REMARK  Name = 
REMARK  20 active torsions:
REMARK  status: ('A' for Active; 'I' for Inactive)
REMARK    1  A    between atoms: C_2  and  O_3
REMARK    2  A    between atoms: C_2  and  C_4
REMARK    3  A    between atoms: C_4  and  N_5
REMARK    4  A    between atoms: C_6  and  C_8
REMARK    5  A    between atoms: C_8  and  C_9
REMARK    6  A    between atoms: C_9  and  C_10
REMARK    7  A    between atoms: C_10  and  C_11
REMARK    8  A    between atoms: C_12  and  C_13
REMARK    9  A    between atoms: C_13  and  C_14
REMARK   10  A    between atoms: C_14  and  C_15
REMARK   11  A    between atoms: C_15  and  C_16
REMARK   12  A    between atoms: C_16  and  C_17
REMARK   13  A    between atoms: C_17  and  C_18
REMARK   14  A    between atoms: C_18  and  C_19
REMARK   15  A    between atoms: C_19  and  C_20
REMARK   16  A    between atoms: C_21  and  C_22
REMARK   17  A    between atoms: C_22  and  C_23
REMARK   18  A    between atoms: C_23  and  C_24
REMARK   19  A    between atoms: C_24  and  C_25
REMARK   20  A    between atoms: C_25  and  O_26
REMARK                            x       y       z     vdW  Elec       q    Type
REMARK                         _______ _______ _______ _____ _____    ______ ____
ROOT
ATOM      1  C   UNL     1       2.641   2.139  18.817  0.00  0.00    +0.000 C 
ENDROOT
BRANCH   1   3
ATOM      2  C   UNL     1       4.361   3.626  17.695  0.00  0.00    +0.000 C 
ATOM      3  C   UNL     1       3.260   2.863  17.658  0.00  0.00    +0.000 C 
BRANCH   2   4
ATOM      4  C   UNL     1       5.212   3.889  18.899  0.00  0.00    +0.000 C 
BRANCH   4   5
ATOM      5  C   UNL     1       5.731   5.320  18.897  0.00  0.00    +0.000 C 
BRANCH   5   6
ATOM      6  C   UNL     1       7.093   5.391  18.215  0.00  0.00    +0.000 C 
BRANCH   6   8
ATOM      7  N   UNL     1       7.425   4.682  15.929  0.00  0.00    +0.000 N 
ATOM      8  C   UNL     1       6.945   5.676  16.741  0.00  0.00    +0.000 C 
ATOM      9  O   UNL     1       6.442   6.697  16.286  0.00  0.00    +0.000 OA
ATOM     10  H   UNL     1       7.859   3.841  16.308  0.00  0.00    +0.000 HD
BRANCH   7  11
ATOM     11  C   UNL     1       7.342   4.841  14.497  0.00  0.00    +0.000 C 
BRANCH  11  13
ATOM     12  O   UNL     1       6.206   3.352  12.951  0.00  0.00    +0.000 OA
ATOM     13  C   UNL     1       6.148   4.137  13.890  0.00  0.00    +0.000 C 
BRANCH  13  14
ATOM     14  O   UNL     1       4.979   4.465  14.497  0.00  0.00    +0.000 OA
ATOM     15  H   UNL     1       5.086   5.046  15.277  0.00  0.00    +0.000 HD
ENDBRANCH  13  14
ENDBRANCH  11  13
ENDBRANCH   7  11
ENDBRANCH   6   8
ENDBRANCH   5   6
ENDBRANCH   4   5
ENDBRANCH   2   4
ENDBRANCH   1   3
BRANCH   1  16
ATOM     16  C   UNL     1       1.122   2.315  18.887  0.00  0.00    +0.000 C 
BRANCH  16  17
ATOM     17  C   UNL     1       0.656   3.556  19.659  0.00  0.00    +0.000 C 
BRANCH  17  18
ATOM     18  C   UNL     1       1.352   3.751  21.006  0.00  0.00    +0.000 C 
BRANCH  18  19
ATOM     19  C   UNL     1       2.288   4.962  21.016  0.00  0.00    +0.000 C 
BRANCH  19  20
ATOM     20  C   UNL     1       2.207   5.783  19.729  0.00  0.00    +0.000 C 
BRANCH  20  21
ATOM     21  C   UNL     1       1.991   7.283  19.949  0.00  0.00    +0.000 C 
BRANCH  21  22
ATOM     22  C   UNL     1       1.133   7.582  21.149  0.00  0.00    +0.000 C 
ATOM     23  C   UNL     1       0.440   8.714  21.337  0.00  0.00    +0.000 C 
BRANCH  23  24
ATOM     24  C   UNL     1       0.450   9.833  20.347  0.00  0.00    +0.000 C 
BRANCH  24  25
ATOM     25  C   UNL     1      -0.658  10.843  20.596  0.00  0.00    +0.000 C 
BRANCH  25  26
ATOM     26  C   UNL     1      -0.051  12.125  21.164  0.00  0.00    +0.000 C 
BRANCH  26  27
ATOM     27  C   UNL     1       1.391  12.305  20.723  0.00  0.00    +0.000 C 
BRANCH  27  28
ATOM     28  O   UNL     1       1.930  13.508  21.254  0.00  0.00    +0.000 OA
ATOM     29  H   UNL     1       1.363  13.784  21.993  0.00  0.00    +0.000 HD
ENDBRANCH  27  28
ENDBRANCH  26  27
ENDBRANCH  25  26
ENDBRANCH  24  25
ENDBRANCH  23  24
ENDBRANCH  21  22
ENDBRANCH  20  21
ENDBRANCH  19  20
ENDBRANCH  18  19
ENDBRANCH  17  18
ENDBRANCH  16  17
ENDBRANCH   1  16
TORSDOF 20
ENDMDL
MODEL 3
REMARK VINA RESULT:      -5.4      2.858      7.433
REMARK  Name = 
REMARK  20 active torsions:
REMARK  status: ('A' for Active; 'I' for Inactive)
REMARK    1  A    between atoms: C_2  and  O_3
REMARK    2  A    between atoms: C_2  and  C_4
REMARK    3  A    between atoms: C_4  and  N_5
REMARK    4  A    between atoms: C_6  and  C_8
REMARK    5  A    between atoms: C_8  and  C_9
REMARK    6  A    between atoms: C_9  and  C_10
REMARK    7  A    between atoms: C_10  and  C_11
REMARK    8  A    between atoms: C_12  and  C_13
REMARK    9  A    between atoms: C_13  and  C_14
REMARK   10  A    between atoms: C_14  and  C_15
REMARK   11  A    between atoms: C_15  and  C_16
REMARK   12  A    between atoms: C_16  and  C_17
REMARK   13  A    between atoms: C_17  and  C_18
REMARK   14  A    between atoms: C_18  and  C_19
REMARK   15  A    between atoms: C_19  and  C_20
REMARK   16  A    between atoms: C_21  and  C_22
REMARK   17  A    between atoms: C_22  and  C_23
REMARK   18  A    between atoms: C_23  and  C_24
REMARK   19  A    between atoms: C_24  and  C_25
REMARK   20  A    between atoms: C_25  and  O_26
REMARK                            x       y       z     vdW  Elec       q    Type
REMARK                         _______ _______ _______ _____ _____    ______ ____
ROOT
ATOM      1  C   UNL     1       1.595   2.072  19.585  0.00  0.00    +0.000 C 
ENDROOT
BRANCH   1   3
ATOM      2  C   UNL     1       1.533   3.536  17.515  0.00  0.00    +0.000 C 
ATOM      3  C   UNL     1       1.004   2.595  18.309  0.00  0.00    +0.000 C 
BRANCH   2   4
ATOM      4  C   UNL     1       2.839   4.239  17.730  0.00  0.00    +0.000 C 
BRANCH   4   5
ATOM      5  C   UNL     1       3.959   3.240  17.978  0.00  0.00    +0.000 C 
BRANCH   5   6
ATOM      6  C   UNL     1       4.917   3.766  19.042  0.00  0.00    +0.000 C 
BRANCH   6   8
ATOM      7  N   UNL     1       6.274   4.119  17.074  0.00  0.00    +0.000 N 
ATOM      8  C   UNL     1       6.135   4.392  18.409  0.00  0.00    +0.000 C 
ATOM      9  O   UNL     1       6.941   5.089  19.015  0.00  0.00    +0.000 OA
ATOM     10  H   UNL     1       5.612   3.526  16.575  0.00  0.00    +0.000 HD
BRANCH   7  11
ATOM     11  C   UNL     1       7.405   4.661  16.359  0.00  0.00    +0.000 C 
BRANCH  11  13
ATOM     12  O   UNL     1       7.748   5.356  14.057  0.00  0.00    +0.000 OA
ATOM     13  C   UNL     1       7.021   5.302  15.042  0.00  0.00    +0.000 C 
BRANCH  13  14
ATOM     14  O   UNL     1       5.769   5.825  15.057  0.00  0.00    +0.000 OA
ATOM     15  H   UNL     1       5.220   5.520  15.807  0.00  0.00    +0.000 HD
ENDBRANCH  13  14
ENDBRANCH  11  13
ENDBRANCH   7  11
ENDBRANCH   6   8
ENDBRANCH   5   6
ENDBRANCH   4   5
ENDBRANCH   2   4
ENDBRANCH   1   3
BRANCH   1  16
ATOM     16  C   UNL     1       1.060   2.788  20.828  0.00  0.00    +0.000 C 
BRANCH  16  17
ATOM     17  C   UNL     1       2.141   3.362  21.753  0.00  0.00    +0.000 C 
BRANCH  17  18
ATOM     18  C   UNL     1       2.455   4.838  21.506  0.00  0.00    +0.000 C 
BRANCH  18  19
ATOM     19  C   UNL     1       1.421   5.517  20.604  0.00  0.00    +0.000 C 
BRANCH  19  20
ATOM     20  C   UNL     1       1.631   7.027  20.496  0.00  0.00    +0.000 C 
BRANCH  20  21
ATOM     21  C   UNL     1       2.646   7.448  19.430  0.00  0.00    +0.000 C 
BRANCH  21  22
ATOM     22  C   UNL     1       2.022   7.662  18.077  0.00  0.00    +0.000 C 
ATOM     23  C   UNL     1       1.481   8.813  17.653  0.00  0.00    +0.000 C 
BRANCH  23  24
ATOM     24  C   UNL     1       1.435  10.040  18.504  0.00  0.00    +0.000 C 
BRANCH  24  25
ATOM     25  C   UNL     1       0.198  10.096  19.383  0.00  0.00    +0.000 C 
BRANCH  25  26
ATOM     26  C   UNL     1       0.588  10.608  20.769  0.00  0.00    +0.000 C 
BRANCH  26  27
ATOM     27  C   UNL     1      -0.420  10.190  21.825  0.00  0.00    +0.000 C 
BRANCH  27  28
ATOM     28  O   UNL     1      -0.028  10.662  23.107  0.00  0.00    +0.000 OA
ATOM     29  H   UNL     1       0.429  11.511  22.981  0.00  0.00    +0.000 HD
ENDBRANCH  27  28
ENDBRANCH  26  27
ENDBRANCH  25  26
ENDBRANCH  24  25
ENDBRANCH  23  24
ENDBRANCH  21  22
ENDBRANCH  20  21
ENDBRANCH  19  20
ENDBRANCH  18  19
ENDBRANCH  17  18
ENDBRANCH  16  17
ENDBRANCH   1  16
TORSDOF 20
ENDMDL
MODEL 4
REMARK VINA RESULT:      -5.3      3.006      8.409
REMARK  Name = 
REMARK  20 active torsions:
REMARK  status: ('A' for Active; 'I' for Inactive)
REMARK    1  A    between atoms: C_2  and  O_3
REMARK    2  A    between atoms: C_2  and  C_4
REMARK    3  A    between atoms: C_4  and  N_5
REMARK    4  A    between atoms: C_6  and  C_8
REMARK    5  A    between atoms: C_8  and  C_9
REMARK    6  A    between atoms: C_9  and  C_10
REMARK    7  A    between atoms: C_10  and  C_11
REMARK    8  A    between atoms: C_12  and  C_13
REMARK    9  A    between atoms: C_13  and  C_14
REMARK   10  A    between atoms: C_14  and  C_15
REMARK   11  A    between atoms: C_15  and  C_16
REMARK   12  A    between atoms: C_16  and  C_17
REMARK   13  A    between atoms: C_17  and  C_18
REMARK   14  A    between atoms: C_18  and  C_19
REMARK   15  A    between atoms: C_19  and  C_20
REMARK   16  A    between atoms: C_21  and  C_22
REMARK   17  A    between atoms: C_22  and  C_23
REMARK   18  A    between atoms: C_23  and  C_24
REMARK   19  A    between atoms: C_24  and  C_25
REMARK   20  A    between atoms: C_25  and  O_26
REMARK                            x       y       z     vdW  Elec       q    Type
REMARK                         _______ _______ _______ _____ _____    ______ ____
ROOT
ATOM      1  C   UNL     1       3.688   2.470  18.164  0.00  0.00    +0.000 C 
ENDROOT
BRANCH   1   3
ATOM      2  C   UNL     1       4.024   4.528  16.719  0.00  0.00    +0.000 C 
ATOM      3  C   UNL     1       3.401   3.375  17.002  0.00  0.00    +0.000 C 
BRANCH   2   4
ATOM      4  C   UNL     1       5.154   5.133  17.495  0.00  0.00    +0.000 C 
BRANCH   4   5
ATOM      5  C   UNL     1       6.202   5.718  16.560  0.00  0.00    +0.000 C 
BRANCH   5   6
ATOM      6  C   UNL     1       7.097   4.615  16.005  0.00  0.00    +0.000 C 
BRANCH   6   8
ATOM      7  N   UNL     1       6.439   3.730  13.855  0.00  0.00    +0.000 N 
ATOM      8  C   UNL     1       7.175   4.689  14.500  0.00  0.00    +0.000 C 
ATOM      9  O   UNL     1       7.828   5.525  13.887  0.00  0.00    +0.000 OA
ATOM     10  H   UNL     1       5.910   3.025  14.366  0.00  0.00    +0.000 HD
BRANCH   7  11
ATOM     11  C   UNL     1       6.438   3.697  12.412  0.00  0.00    +0.000 C 
BRANCH  11  13
ATOM     12  O   UNL     1       4.182   3.223  11.647  0.00  0.00    +0.000 OA
ATOM     13  C   UNL     1       5.330   2.839  11.840  0.00  0.00    +0.000 C 
BRANCH  13  14
ATOM     14  O   UNL     1       5.735   1.575  11.558  0.00  0.00    +0.000 OA
ATOM     15  H   UNL     1       6.440   1.526  10.882  0.00  0.00    +0.000 HD
ENDBRANCH  13  14
ENDBRANCH  11  13
ENDBRANCH   7  11
ENDBRANCH   6   8
ENDBRANCH   5   6
ENDBRANCH   4   5
ENDBRANCH   2   4
ENDBRANCH   1   3
BRANCH   1  16
ATOM     16  C   UNL     1       2.477   1.632  18.581  0.00  0.00    +0.000 C 
BRANCH  16  17
ATOM     17  C   UNL     1       1.143   2.390  18.582  0.00  0.00    +0.000 C 
BRANCH  17  18
ATOM     18  C   UNL     1       1.270   3.875  18.921  0.00  0.00    +0.000 C 
BRANCH  18  19
ATOM     19  C   UNL     1       0.966   4.172  20.392  0.00  0.00    +0.000 C 
BRANCH  19  20
ATOM     20  C   UNL     1       1.494   5.534  20.842  0.00  0.00    +0.000 C 
BRANCH  20  21
ATOM     21  C   UNL     1       2.563   6.132  19.922  0.00  0.00    +0.000 C 
BRANCH  21  22
ATOM     22  C   UNL     1       2.179   7.483  19.378  0.00  0.00    +0.000 C 
ATOM     23  C   UNL     1       1.575   8.452  20.079  0.00  0.00    +0.000 C 
BRANCH  23  24
ATOM     24  C   UNL     1       1.203   8.288  21.516  0.00  0.00    +0.000 C 
BRANCH  24  25
ATOM     25  C   UNL     1      -0.197   8.793  21.819  0.00  0.00    +0.000 C 
BRANCH  25  26
ATOM     26  C   UNL     1      -0.162   9.640  23.091  0.00  0.00    +0.000 C 
BRANCH  26  27
ATOM     27  C   UNL     1      -1.013  10.891  22.954  0.00  0.00    +0.000 C 
BRANCH  27  28
ATOM     28  O   UNL     1      -0.910  11.425  21.641  0.00  0.00    +0.000 OA
ATOM     29  H   UNL     1      -1.573  10.978  21.087  0.00  0.00    +0.000 HD
ENDBRANCH  27  28
ENDBRANCH  26  27
ENDBRANCH  25  26
ENDBRANCH  24  25
ENDBRANCH  23  24
ENDBRANCH  21  22
ENDBRANCH  20  21
ENDBRANCH  19  20
ENDBRANCH  18  19
ENDBRANCH  17  18
ENDBRANCH  16  17
ENDBRANCH   1  16
TORSDOF 20
ENDMDL
MODEL 5
REMARK VINA RESULT:      -5.3      2.574      3.623
REMARK  Name = 
REMARK  20 active torsions:
REMARK  status: ('A' for Active; 'I' for Inactive)
REMARK    1  A    between atoms: C_2  and  O_3
REMARK    2  A    between atoms: C_2  and  C_4
REMARK    3  A    between atoms: C_4  and  N_5
REMARK    4  A    between atoms: C_6  and  C_8
REMARK    5  A    between atoms: C_8  and  C_9
REMARK    6  A    between atoms: C_9  and  C_10
REMARK    7  A    between atoms: C_10  and  C_11
REMARK    8  A    between atoms: C_12  and  C_13
REMARK    9  A    between atoms: C_13  and  C_14
REMARK   10  A    between atoms: C_14  and  C_15
REMARK   11  A    between atoms: C_15  and  C_16
REMARK   12  A    between atoms: C_16  and  C_17
REMARK   13  A    between atoms: C_17  and  C_18
REMARK   14  A    between atoms: C_18  and  C_19
REMARK   15  A    between atoms: C_19  and  C_20
REMARK   16  A    between atoms: C_21  and  C_22
REMARK   17  A    between atoms: C_22  and  C_23
REMARK   18  A    between atoms: C_23  and  C_24
REMARK   19  A    between atoms: C_24  and  C_25
REMARK   20  A    between atoms: C_25  and  O_26
REMARK                            x       y       z     vdW  Elec       q    Type
REMARK                         _______ _______ _______ _____ _____    ______ ____
ROOT
ATOM      1  C   UNL     1       1.320   5.849  20.680  0.00  0.00    +0.000 C 
ENDROOT
BRANCH   1   3
ATOM      2  C   UNL     1       1.571   8.366  20.853  0.00  0.00    +0.000 C 
ATOM      3  C   UNL     1       2.085   7.129  20.846  0.00  0.00    +0.000 C 
BRANCH   2   4
ATOM      4  C   UNL     1       0.121   8.720  20.721  0.00  0.00    +0.000 C 
BRANCH   4   5
ATOM      5  C   UNL     1      -0.590   8.607  22.062  0.00  0.00    +0.000 C 
BRANCH   5   6
ATOM      6  C   UNL     1      -0.048   9.643  23.041  0.00  0.00    +0.000 C 
BRANCH   6   8
ATOM      7  N   UNL     1      -1.783  11.290  23.376  0.00  0.00    +0.000 N 
ATOM      8  C   UNL     1      -0.602  11.013  22.740  0.00  0.00    +0.000 C 
ATOM      9  O   UNL     1      -0.060  11.824  21.998  0.00  0.00    +0.000 OA
ATOM     10  H   UNL     1      -2.241  10.609  23.979  0.00  0.00    +0.000 HD
BRANCH   7  11
ATOM     11  C   UNL     1      -2.413  12.571  23.163  0.00  0.00    +0.000 C 
BRANCH  11  13
ATOM     12  O   UNL     1      -4.535  12.323  22.008  0.00  0.00    +0.000 OA
ATOM     13  C   UNL     1      -3.339  12.584  21.965  0.00  0.00    +0.000 C 
BRANCH  13  14
ATOM     14  O   UNL     1      -2.703  12.916  20.813  0.00  0.00    +0.000 OA
ATOM     15  H   UNL     1      -2.926  13.808  20.480  0.00  0.00    +0.000 HD
ENDBRANCH  13  14
ENDBRANCH  11  13
ENDBRANCH   7  11
ENDBRANCH   6   8
ENDBRANCH   5   6
ENDBRANCH   4   5
ENDBRANCH   2   4
ENDBRANCH   1   3
BRANCH   1  16
ATOM     16  C   UNL     1       2.087   4.625  21.189  0.00  0.00    +0.000 C 
BRANCH  16  17
ATOM     17  C   UNL     1       1.419   3.278  20.883  0.00  0.00    +0.000 C 
BRANCH  17  18
ATOM     18  C   UNL     1       0.585   3.272  19.602  0.00  0.00    +0.000 C 
BRANCH  18  19
ATOM     19  C   UNL     1       1.352   2.712  18.402  0.00  0.00    +0.000 C 
BRANCH  19  20
ATOM     20  C   UNL     1       2.100   3.793  17.621  0.00  0.00    +0.000 C 
BRANCH  20  21
ATOM     21  C   UNL     1       3.579   3.484  17.373  0.00  0.00    +0.000 C 
BRANCH  21  22
ATOM     22  C   UNL     1       4.332   3.168  18.638  0.00  0.00    +0.000 C 
ATOM     23  C   UNL     1       5.165   4.008  19.267  0.00  0.00    +0.000 C 
BRANCH  23  24
ATOM     24  C   UNL     1       5.445   5.387  18.763  0.00  0.00    +0.000 C 
BRANCH  24  25
ATOM     25  C   UNL     1       6.918   5.752  18.844  0.00  0.00    +0.000 C 
BRANCH  25  26
ATOM     26  C   UNL     1       7.348   6.401  17.530  0.00  0.00    +0.000 C 
BRANCH  26  27
ATOM     27  C   UNL     1       6.744   5.691  16.331  0.00  0.00    +0.000 C 
BRANCH  27  28
ATOM     28  O   UNL     1       7.648   5.701  15.235  0.00  0.00    +0.000 OA
ATOM     29  H   UNL     1       8.133   4.858  15.245  0.00  0.00    +0.000 HD
ENDBRANCH  27  28
ENDBRANCH  26  27
ENDBRANCH  25  26
ENDBRANCH  24  25
ENDBRANCH  23  24
ENDBRANCH  21  22
ENDBRANCH  20  21
ENDBRANCH  19  20
ENDBRANCH  18  19
ENDBRANCH  17  18
ENDBRANCH  16  17
ENDBRANCH   1  16
TORSDOF 20
ENDMDL
MODEL 6
REMARK VINA RESULT:      -5.3      2.303      3.799
REMARK  Name = 
REMARK  20 active torsions:
REMARK  status: ('A' for Active; 'I' for Inactive)
REMARK    1  A    between atoms: C_2  and  O_3
REMARK    2  A    between atoms: C_2  and  C_4
REMARK    3  A    between atoms: C_4  and  N_5
REMARK    4  A    between atoms: C_6  and  C_8
REMARK    5  A    between atoms: C_8  and  C_9
REMARK    6  A    between atoms: C_9  and  C_10
REMARK    7  A    between atoms: C_10  and  C_11
REMARK    8  A    between atoms: C_12  and  C_13
REMARK    9  A    between atoms: C_13  and  C_14
REMARK   10  A    between atoms: C_14  and  C_15
REMARK   11  A    between atoms: C_15  and  C_16
REMARK   12  A    between atoms: C_16  and  C_17
REMARK   13  A    between atoms: C_17  and  C_18
REMARK   14  A    between atoms: C_18  and  C_19
REMARK   15  A    between atoms: C_19  and  C_20
REMARK   16  A    between atoms: C_21  and  C_22
REMARK   17  A    between atoms: C_22  and  C_23
REMARK   18  A    between atoms: C_23  and  C_24
REMARK   19  A    between atoms: C_24  and  C_25
REMARK   20  A    between atoms: C_25  and  O_26
REMARK                            x       y       z     vdW  Elec       q    Type
REMARK                         _______ _______ _______ _____ _____    ______ ____
ROOT
ATOM      1  C   UNL     1       2.229   7.253  19.869  0.00  0.00    +0.000 C 
ENDROOT
BRANCH   1   3
ATOM      2  C   UNL     1       2.221   8.363  17.588  0.00  0.00    +0.000 C 
ATOM      3  C   UNL     1       2.395   7.294  18.378  0.00  0.00    +0.000 C 
BRANCH   2   4
ATOM      4  C   UNL     1       1.850   9.743  18.040  0.00  0.00    +0.000 C 
BRANCH   4   5
ATOM      5  C   UNL     1       0.345   9.864  18.232  0.00  0.00    +0.000 C 
BRANCH   5   6
ATOM      6  C   UNL     1       0.031  10.677  19.483  0.00  0.00    +0.000 C 
BRANCH   6   8
ATOM      7  N   UNL     1       1.582  12.293  20.390  0.00  0.00    +0.000 N 
ATOM      8  C   UNL     1       0.658  12.047  19.408  0.00  0.00    +0.000 C 
ATOM      9  O   UNL     1       0.383  12.882  18.554  0.00  0.00    +0.000 OA
ATOM     10  H   UNL     1       1.797  11.605  21.110  0.00  0.00    +0.000 HD
BRANCH   7  11
ATOM     11  C   UNL     1       2.247  13.574  20.424  0.00  0.00    +0.000 C 
BRANCH  11  13
ATOM     12  O   UNL     1       1.657  14.765  22.456  0.00  0.00    +0.000 OA
ATOM     13  C   UNL     1       1.508  14.603  21.251  0.00  0.00    +0.000 C 
BRANCH  13  14
ATOM     14  O   UNL     1       0.642  15.346  20.515  0.00  0.00    +0.000 OA
ATOM     15  H   UNL     1      -0.130  15.670  21.019  0.00  0.00    +0.000 HD
ENDBRANCH  13  14
ENDBRANCH  11  13
ENDBRANCH   7  11
ENDBRANCH   6   8
ENDBRANCH   5   6
ENDBRANCH   4   5
ENDBRANCH   2   4
ENDBRANCH   1   3
BRANCH   1  16
ATOM     16  C   UNL     1       2.352   5.840  20.443  0.00  0.00    +0.000 C 
BRANCH  16  17
ATOM     17  C   UNL     1       1.043   5.038  20.457  0.00  0.00    +0.000 C 
BRANCH  17  18
ATOM     18  C   UNL     1       1.239   3.526  20.576  0.00  0.00    +0.000 C 
BRANCH  18  19
ATOM     19  C   UNL     1       0.869   2.781  19.292  0.00  0.00    +0.000 C 
BRANCH  19  20
ATOM     20  C   UNL     1       1.886   1.701  18.921  0.00  0.00    +0.000 C 
BRANCH  20  21
ATOM     21  C   UNL     1       2.967   2.163  17.939  0.00  0.00    +0.000 C 
BRANCH  21  22
ATOM     22  C   UNL     1       4.099   2.892  18.613  0.00  0.00    +0.000 C 
ATOM     23  C   UNL     1       4.675   4.011  18.153  0.00  0.00    +0.000 C 
BRANCH  23  24
ATOM     24  C   UNL     1       4.244   4.671  16.884  0.00  0.00    +0.000 C 
BRANCH  24  25
ATOM     25  C   UNL     1       5.222   5.736  16.417  0.00  0.00    +0.000 C 
BRANCH  25  26
ATOM     26  C   UNL     1       5.725   5.379  15.019  0.00  0.00    +0.000 C 
BRANCH  26  27
ATOM     27  C   UNL     1       6.769   4.276  15.065  0.00  0.00    +0.000 C 
BRANCH  27  28
ATOM     28  O   UNL     1       7.787   4.589  16.006  0.00  0.00    +0.000 OA
ATOM     29  H   UNL     1       8.549   4.016  15.817  0.00  0.00    +0.000 HD
ENDBRANCH  27  28
ENDBRANCH  26  27
ENDBRANCH  25  26
ENDBRANCH  24  25
ENDBRANCH  23  24
ENDBRANCH  21  22
ENDBRANCH  20  21
ENDBRANCH  19  20
ENDBRANCH  18  19
ENDBRANCH  17  18
ENDBRANCH  16  17
ENDBRANCH   1  16
TORSDOF 20
ENDMDL
MODEL 7
REMARK VINA RESULT:      -5.3      3.482      5.222
REMARK  Name = 
REMARK  20 active torsions:
REMARK  status: ('A' for Active; 'I' for Inactive)
REMARK    1  A    between atoms: C_2  and  O_3
REMARK    2  A    between atoms: C_2  and  C_4
REMARK    3  A    between atoms: C_4  and  N_5
REMARK    4  A    between atoms: C_6  and  C_8
REMARK    5  A    between atoms: C_8  and  C_9
REMARK    6  A    between atoms: C_9  and  C_10
REMARK    7  A    between atoms: C_10  and  C_11
REMARK    8  A    between atoms: C_12  and  C_13
REMARK    9  A    between atoms: C_13  and  C_14
REMARK   10  A    between atoms: C_14  and  C_15
REMARK   11  A    between atoms: C_15  and  C_16
REMARK   12  A    between atoms: C_16  and  C_17
REMARK   13  A    between atoms: C_17  and  C_18
REMARK   14  A    between atoms: C_18  and  C_19
REMARK   15  A    between atoms: C_19  and  C_20
REMARK   16  A    between atoms: C_21  and  C_22
REMARK   17  A    between atoms: C_22  and  C_23
REMARK   18  A    between atoms: C_23  and  C_24
REMARK   19  A    between atoms: C_24  and  C_25
REMARK   20  A    between atoms: C_25  and  O_26
REMARK                            x       y       z     vdW  Elec       q    Type
REMARK                         _______ _______ _______ _____ _____    ______ ____
ROOT
ATOM      1  C   UNL     1       1.858   9.532  18.487  0.00  0.00    +0.000 C 
ENDROOT
BRANCH   1   3
ATOM      2  C   UNL     1      -0.474   9.932  19.402  0.00  0.00    +0.000 C 
ATOM      3  C   UNL     1       0.388   9.814  18.382  0.00  0.00    +0.000 C 
BRANCH   2   4
ATOM      4  C   UNL     1      -0.135   9.831  20.858  0.00  0.00    +0.000 C 
BRANCH   4   5
ATOM      5  C   UNL     1      -0.202  11.196  21.527  0.00  0.00    +0.000 C 
BRANCH   5   6
ATOM      6  C   UNL     1      -0.930  11.098  22.864  0.00  0.00    +0.000 C 
BRANCH   6   8
ATOM      7  N   UNL     1      -3.112  12.137  22.839  0.00  0.00    +0.000 N 
ATOM      8  C   UNL     1      -1.781  12.320  23.106  0.00  0.00    +0.000 C 
ATOM      9  O   UNL     1      -1.343  13.392  23.509  0.00  0.00    +0.000 OA
ATOM     10  H   UNL     1      -3.472  11.250  22.488  0.00  0.00    +0.000 HD
BRANCH   7  11
ATOM     11  C   UNL     1      -4.026  13.237  23.029  0.00  0.00    +0.000 C 
BRANCH  11  13
ATOM     12  O   UNL     1      -5.128  11.940  24.762  0.00  0.00    +0.000 OA
ATOM     13  C   UNL     1      -5.082  12.955  24.077  0.00  0.00    +0.000 C 
BRANCH  13  14
ATOM     14  O   UNL     1      -5.995  13.953  24.185  0.00  0.00    +0.000 OA
ATOM     15  H   UNL     1      -5.663  14.746  24.651  0.00  0.00    +0.000 HD
ENDBRANCH  13  14
ENDBRANCH  11  13
ENDBRANCH   7  11
ENDBRANCH   6   8
ENDBRANCH   5   6
ENDBRANCH   4   5
ENDBRANCH   2   4
ENDBRANCH   1   3
BRANCH   1  16
ATOM     16  C   UNL     1       2.309   8.380  17.585  0.00  0.00    +0.000 C 
BRANCH  16  17
ATOM     17  C   UNL     1       2.314   7.002  18.259  0.00  0.00    +0.000 C 
BRANCH  17  18
ATOM     18  C   UNL     1       2.269   7.055  19.787  0.00  0.00    +0.000 C 
BRANCH  18  19
ATOM     19  C   UNL     1       2.466   5.680  20.430  0.00  0.00    +0.000 C 
BRANCH  19  20
ATOM     20  C   UNL     1       1.298   4.730  20.165  0.00  0.00    +0.000 C 
BRANCH  20  21
ATOM     21  C   UNL     1       1.702   3.393  19.538  0.00  0.00    +0.000 C 
BRANCH  21  22
ATOM     22  C   UNL     1       1.607   3.397  18.035  0.00  0.00    +0.000 C 
ATOM     23  C   UNL     1       2.651   3.476  17.198  0.00  0.00    +0.000 C 
BRANCH  23  24
ATOM     24  C   UNL     1       4.061   3.573  17.682  0.00  0.00    +0.000 C 
BRANCH  24  25
ATOM     25  C   UNL     1       5.036   3.934  16.574  0.00  0.00    +0.000 C 
BRANCH  25  26
ATOM     26  C   UNL     1       5.131   5.455  16.466  0.00  0.00    +0.000 C 
BRANCH  26  27
ATOM     27  C   UNL     1       6.558   5.941  16.654  0.00  0.00    +0.000 C 
BRANCH  27  28
ATOM     28  O   UNL     1       7.477   5.039  16.055  0.00  0.00    +0.000 OA
ATOM     29  H   UNL     1       8.027   5.546  15.434  0.00  0.00    +0.000 HD
ENDBRANCH  27  28
ENDBRANCH  26  27
ENDBRANCH  25  26
ENDBRANCH  24  25
ENDBRANCH  23  24
ENDBRANCH  21  22
ENDBRANCH  20  21
ENDBRANCH  19  20
ENDBRANCH  18  19
ENDBRANCH  17  18
ENDBRANCH  16  17
ENDBRANCH   1  16
TORSDOF 20
ENDMDL
MODEL 8
REMARK VINA RESULT:      -5.2      1.917      4.031
REMARK  Name = 
REMARK  20 active torsions:
REMARK  status: ('A' for Active; 'I' for Inactive)
REMARK    1  A    between atoms: C_2  and  O_3
REMARK    2  A    between atoms: C_2  and  C_4
REMARK    3  A    between atoms: C_4  and  N_5
REMARK    4  A    between atoms: C_6  and  C_8
REMARK    5  A    between atoms: C_8  and  C_9
REMARK    6  A    between atoms: C_9  and  C_10
REMARK    7  A    between atoms: C_10  and  C_11
REMARK    8  A    between atoms: C_12  and  C_13
REMARK    9  A    between atoms: C_13  and  C_14
REMARK   10  A    between atoms: C_14  and  C_15
REMARK   11  A    between atoms: C_15  and  C_16
REMARK   12  A    between atoms: C_16  and  C_17
REMARK   13  A    between atoms: C_17  and  C_18
REMARK   14  A    between atoms: C_18  and  C_19
REMARK   15  A    between atoms: C_19  and  C_20
REMARK   16  A    between atoms: C_21  and  C_22
REMARK   17  A    between atoms: C_22  and  C_23
REMARK   18  A    between atoms: C_23  and  C_24
REMARK   19  A    between atoms: C_24  and  C_25
REMARK   20  A    between atoms: C_25  and  O_26
REMARK                            x       y       z     vdW  Elec       q    Type
REMARK                         _______ _______ _______ _____ _____    ______ ____
ROOT
ATOM      1  C   UNL     1       2.083   7.386  18.457  0.00  0.00    +0.000 C 
ENDROOT
BRANCH   1   3
ATOM      2  C   UNL     1       1.663   9.828  17.916  0.00  0.00    +0.000 C 
ATOM      3  C   UNL     1       2.395   8.709  17.822  0.00  0.00    +0.000 C 
BRANCH   2   4
ATOM      4  C   UNL     1       0.396   9.989  18.698  0.00  0.00    +0.000 C 
BRANCH   4   5
ATOM      5  C   UNL     1      -0.066  11.439  18.690  0.00  0.00    +0.000 C 
BRANCH   5   6
ATOM      6  C   UNL     1      -1.590  11.513  18.676  0.00  0.00    +0.000 C 
BRANCH   6   8
ATOM      7  N   UNL     1      -1.980  10.693  16.437  0.00  0.00    +0.000 N 
ATOM      8  C   UNL     1      -2.173  10.455  17.772  0.00  0.00    +0.000 C 
ATOM      9  O   UNL     1      -2.768   9.462  18.174  0.00  0.00    +0.000 OA
ATOM     10  H   UNL     1      -1.500  11.528  16.104  0.00  0.00    +0.000 HD
BRANCH   7  11
ATOM     11  C   UNL     1      -2.497   9.752  15.472  0.00  0.00    +0.000 C 
BRANCH  11  13
ATOM     12  O   UNL     1      -3.949  10.117  13.560  0.00  0.00    +0.000 OA
ATOM     13  C   UNL     1      -3.734  10.254  14.759  0.00  0.00    +0.000 C 
BRANCH  13  14
ATOM     14  O   UNL     1      -4.600  10.888  15.590  0.00  0.00    +0.000 OA
ATOM     15  H   UNL     1      -5.484  11.041  15.200  0.00  0.00    +0.000 HD
ENDBRANCH  13  14
ENDBRANCH  11  13
ENDBRANCH   7  11
ENDBRANCH   6   8
ENDBRANCH   5   6
ENDBRANCH   4   5
ENDBRANCH   2   4
ENDBRANCH   1   3
BRANCH   1  16
ATOM     16  C   UNL     1       2.198   7.416  19.984  0.00  0.00    +0.000 C 
BRANCH  16  17
ATOM     17  C   UNL     1       1.722   6.138  20.687  0.00  0.00    +0.000 C 
BRANCH  17  18
ATOM     18  C   UNL     1       1.689   4.905  19.785  0.00  0.00    +0.000 C 
BRANCH  18  19
ATOM     19  C   UNL     1       1.002   3.708  20.447  0.00  0.00    +0.000 C 
BRANCH  19  20
ATOM     20  C   UNL     1       1.996   2.697  21.018  0.00  0.00    +0.000 C 
BRANCH  20  21
ATOM     21  C   UNL     1       3.339   2.649  20.285  0.00  0.00    +0.000 C 
BRANCH  21  22
ATOM     22  C   UNL     1       3.237   2.036  18.913  0.00  0.00    +0.000 C 
ATOM     23  C   UNL     1       3.830   2.514  17.811  0.00  0.00    +0.000 C 
BRANCH  23  24
ATOM     24  C   UNL     1       4.677   3.744  17.825  0.00  0.00    +0.000 C 
BRANCH  24  25
ATOM     25  C   UNL     1       4.087   4.870  16.991  0.00  0.00    +0.000 C 
BRANCH  25  26
ATOM     26  C   UNL     1       5.175   5.449  16.089  0.00  0.00    +0.000 C 
BRANCH  26  27
ATOM     27  C   UNL     1       6.566   5.118  16.604  0.00  0.00    +0.000 C 
BRANCH  27  28
ATOM     28  O   UNL     1       7.514   6.061  16.126  0.00  0.00    +0.000 OA
ATOM     29  H   UNL     1       7.342   6.201  15.179  0.00  0.00    +0.000 HD
ENDBRANCH  27  28
ENDBRANCH  26  27
ENDBRANCH  25  26
ENDBRANCH  24  25
ENDBRANCH  23  24
ENDBRANCH  21  22
ENDBRANCH  20  21
ENDBRANCH  19  20
ENDBRANCH  18  19
ENDBRANCH  17  18
ENDBRANCH  16  17
ENDBRANCH   1  16
TORSDOF 20
ENDMDL
MODEL 9
REMARK VINA RESULT:      -5.2      2.765      7.949
REMARK  Name = 
REMARK  20 active torsions:
REMARK  status: ('A' for Active; 'I' for Inactive)
REMARK    1  A    between atoms: C_2  and  O_3
REMARK    2  A    between atoms: C_2  and  C_4
REMARK    3  A    between atoms: C_4  and  N_5
REMARK    4  A    between atoms: C_6  and  C_8
REMARK    5  A    between atoms: C_8  and  C_9
REMARK    6  A    between atoms: C_9  and  C_10
REMARK    7  A    between atoms: C_10  and  C_11
REMARK    8  A    between atoms: C_12  and  C_13
REMARK    9  A    between atoms: C_13  and  C_14
REMARK   10  A    between atoms: C_14  and  C_15
REMARK   11  A    between atoms: C_15  and  C_16
REMARK   12  A    between atoms: C_16  and  C_17
REMARK   13  A    between atoms: C_17  and  C_18
REMARK   14  A    between atoms: C_18  and  C_19
REMARK   15  A    between atoms: C_19  and  C_20
REMARK   16  A    between atoms: C_21  and  C_22
REMARK   17  A    between atoms: C_22  and  C_23
REMARK   18  A    between atoms: C_23  and  C_24
REMARK   19  A    between atoms: C_24  and  C_25
REMARK   20  A    between atoms: C_25  and  O_26
REMARK                            x       y       z     vdW  Elec       q    Type
REMARK                         _______ _______ _______ _____ _____    ______ ____
ROOT
ATOM      1  C   UNL     1       3.645   1.749  18.541  0.00  0.00    +0.000 C 
ENDROOT
BRANCH   1   3
ATOM      2  C   UNL     1       2.802   3.623  17.055  0.00  0.00    +0.000 C 
ATOM      3  C   UNL     1       2.603   2.510  17.775  0.00  0.00    +0.000 C 
BRANCH   2   4
ATOM      4  C   UNL     1       4.112   4.319  16.851  0.00  0.00    +0.000 C 
BRANCH   4   5
ATOM      5  C   UNL     1       5.044   3.481  15.987  0.00  0.00    +0.000 C 
BRANCH   5   6
ATOM      6  C   UNL     1       6.050   4.373  15.268  0.00  0.00    +0.000 C 
BRANCH   6   8
ATOM      7  N   UNL     1       7.262   4.359  17.358  0.00  0.00    +0.000 N 
ATOM      8  C   UNL     1       6.930   5.099  16.254  0.00  0.00    +0.000 C 
ATOM      9  O   UNL     1       7.328   6.249  16.102  0.00  0.00    +0.000 OA
ATOM     10  H   UNL     1       6.916   3.409  17.491  0.00  0.00    +0.000 HD
BRANCH   7  11
ATOM     11  C   UNL     1       8.098   4.948  18.376  0.00  0.00    +0.000 C 
BRANCH  11  13
ATOM     12  O   UNL     1       6.125   5.683  19.585  0.00  0.00    +0.000 OA
ATOM     13  C   UNL     1       7.319   5.409  19.589  0.00  0.00    +0.000 C 
BRANCH  13  14
ATOM     14  O   UNL     1       8.086   5.496  20.705  0.00  0.00    +0.000 OA
ATOM     15  H   UNL     1       9.039   5.624  20.523  0.00  0.00    +0.000 HD
ENDBRANCH  13  14
ENDBRANCH  11  13
ENDBRANCH   7  11
ENDBRANCH   6   8
ENDBRANCH   5   6
ENDBRANCH   4   5
ENDBRANCH   2   4
ENDBRANCH   1   3
BRANCH   1  16
ATOM     16  C   UNL     1       3.639   2.073  20.037  0.00  0.00    +0.000 C 
BRANCH  16  17
ATOM     17  C   UNL     1       3.422   3.555  20.370  0.00  0.00    +0.000 C 
BRANCH  17  18
ATOM     18  C   UNL     1       2.156   3.833  21.182  0.00  0.00    +0.000 C 
BRANCH  18  19
ATOM     19  C   UNL     1       1.368   5.034  20.652  0.00  0.00    +0.000 C 
BRANCH  19  20
ATOM     20  C   UNL     1       2.151   5.847  19.621  0.00  0.00    +0.000 C 
BRANCH  20  21
ATOM     21  C   UNL     1       2.298   7.331  19.968  0.00  0.00    +0.000 C 
BRANCH  21  22
ATOM     22  C   UNL     1       1.320   7.788  21.017  0.00  0.00    +0.000 C 
ATOM     23  C   UNL     1       0.617   8.928  20.970  0.00  0.00    +0.000 C 
BRANCH  23  24
ATOM     24  C   UNL     1       0.736   9.897  19.839  0.00  0.00    +0.000 C 
BRANCH  24  25
ATOM     25  C   UNL     1      -0.311  10.996  19.898  0.00  0.00    +0.000 C 
BRANCH  25  26
ATOM     26  C   UNL     1       0.304  12.303  19.400  0.00  0.00    +0.000 C 
BRANCH  26  27
ATOM     27  C   UNL     1      -0.666  13.081  18.526  0.00  0.00    +0.000 C 
BRANCH  27  28
ATOM     28  O   UNL     1      -1.389  14.027  19.300  0.00  0.00    +0.000 OA
ATOM     29  H   UNL     1      -1.872  13.539  19.988  0.00  0.00    +0.000 HD
ENDBRANCH  27  28
ENDBRANCH  26  27
ENDBRANCH  25  26
ENDBRANCH  24  25
ENDBRANCH  23  24
ENDBRANCH  21  22
ENDBRANCH  20  21
ENDBRANCH  19  20
ENDBRANCH  18  19
ENDBRANCH  17  18
ENDBRANCH  16  17
ENDBRANCH   1  16
TORSDOF 20
ENDMDL
