MODEL 1
REMARK VINA RESULT:      -8.7      0.000      0.000
REMARK  Name = 
REMARK  4 active torsions:
REMARK  status: ('A' for Active; 'I' for Inactive)
REMARK    1  A    between atoms: C_5  and  O_6
REMARK    2  A    between atoms: C_8  and  C_9
REMARK    3  A    between atoms: C_17  and  C_18
REMARK    4  A    between atoms: C_18  and  C_19
REMARK                            x       y       z     vdW  Elec       q    Type
REMARK                         _______ _______ _______ _____ _____    ______ ____
ROOT
ATOM      1  N   UNL     1       4.148   1.054  17.893  0.00  0.00    +0.000 N 
ATOM      2  C   UNL     1       3.669   2.189  18.417  0.00  0.00    +0.000 A 
ATOM      3  N   UNL     1       2.755   2.161  19.378  0.00  0.00    +0.000 NA
ATOM      4  N   UNL     1       2.492   3.463  19.620  0.00  0.00    +0.000 N 
ATOM      5  C   UNL     1       1.557   3.952  20.535  0.00  0.00    +0.000 A 
ATOM      6  C   UNL     1       1.394   5.274  20.672  0.00  0.00    +0.000 A 
ATOM      7  C   UNL     1       2.255   6.136  19.797  0.00  0.00    +0.000 A 
ATOM      8  N   UNL     1       3.122   5.685  18.929  0.00  0.00    +0.000 NA
ATOM      9  C   UNL     1       3.252   4.321  18.834  0.00  0.00    +0.000 A 
ATOM     10  C   UNL     1       4.036   3.505  18.028  0.00  0.00    +0.000 A 
ATOM     11  H   UNL     1       3.902   0.193  18.370  0.00  0.00    +0.000 HD
ATOM     12  H   UNL     1       5.065   1.018  17.458  0.00  0.00    +0.000 HD
ENDROOT
BRANCH   7  13
ATOM     13  C   UNL     1       2.087   7.652  19.921  0.00  0.00    +0.000 C 
ATOM     14  C   UNL     1       1.035   8.015  20.975  0.00  0.00    +0.000 C 
ATOM     15  C   UNL     1       0.735   9.506  20.958  0.00  0.00    +0.000 C 
ATOM     16  O   UNL     1       0.358   9.925  19.648  0.00  0.00    +0.000 OA
ATOM     17  C   UNL     1       1.412   9.747  18.703  0.00  0.00    +0.000 C 
ATOM     18  C   UNL     1       1.751   8.272  18.561  0.00  0.00    +0.000 C 
ENDBRANCH   7  13
BRANCH   5  19
ATOM     19  O   UNL     1       0.802   3.061  21.274  0.00  0.00    +0.000 OA
ATOM     20  H   UNL     1       1.421   2.335  21.510  0.00  0.00    +0.000 HD
ENDBRANCH   5  19
BRANCH  10  21
ATOM     21  C   UNL     1       4.966   3.944  16.943  0.00  0.00    +0.000 C 
BRANCH  21  22
ATOM     22  C   UNL     1       5.966   4.892  17.575  0.00  0.00    +0.000 A 
ATOM     23  C   UNL     1       6.820   4.386  18.578  0.00  0.00    +0.000 A 
ATOM     24  C   UNL     1       7.828   5.172  19.136  0.00  0.00    +0.000 A 
ATOM     25  C   UNL     1       8.001   6.483  18.704  0.00  0.00    +0.000 A 
ATOM     26  C   UNL     1       7.136   7.025  17.750  0.00  0.00    +0.000 A 
ATOM     27 CL   UNL     1       7.407   8.670  17.285  0.00  0.00    +0.000 Cl
ATOM     28  C   UNL     1       6.105   6.244  17.197  0.00  0.00    +0.000 A 
ATOM     29 CL   UNL     1       4.982   6.966  16.088  0.00  0.00    +0.000 Cl
ENDBRANCH  21  22
ENDBRANCH  10  21
TORSDOF 4
ENDMDL
MODEL 2
REMARK VINA RESULT:      -7.6      1.647      1.887
REMARK  Name = 
REMARK  4 active torsions:
REMARK  status: ('A' for Active; 'I' for Inactive)
REMARK    1  A    between atoms: C_5  and  O_6
REMARK    2  A    between atoms: C_8  and  C_9
REMARK    3  A    between atoms: C_17  and  C_18
REMARK    4  A    between atoms: C_18  and  C_19
REMARK                            x       y       z     vdW  Elec       q    Type
REMARK                         _______ _______ _______ _____ _____    ______ ____
ROOT
ATOM      1  N   UNL     1       3.817   0.805  18.162  0.00  0.00    +0.000 N 
ATOM      2  C   UNL     1       3.514   2.032  18.603  0.00  0.00    +0.000 A 
ATOM      3  N   UNL     1       3.162   2.233  19.866  0.00  0.00    +0.000 NA
ATOM      4  N   UNL     1       2.899   3.555  19.928  0.00  0.00    +0.000 N 
ATOM      5  C   UNL     1       2.449   4.247  21.054  0.00  0.00    +0.000 A 
ATOM      6  C   UNL     1       2.222   5.564  20.976  0.00  0.00    +0.000 A 
ATOM      7  C   UNL     1       2.475   6.195  19.637  0.00  0.00    +0.000 A 
ATOM      8  N   UNL     1       2.882   5.551  18.576  0.00  0.00    +0.000 NA
ATOM      9  C   UNL     1       3.105   4.203  18.716  0.00  0.00    +0.000 A 
ATOM     10  C   UNL     1       3.508   3.218  17.822  0.00  0.00    +0.000 A 
ATOM     11  H   UNL     1       3.919   0.080  18.865  0.00  0.00    +0.000 HD
ATOM     12  H   UNL     1       4.424   0.667  17.359  0.00  0.00    +0.000 HD
ENDROOT
BRANCH   7  13
ATOM     13  C   UNL     1       2.216   7.698  19.510  0.00  0.00    +0.000 C 
ATOM     14  C   UNL     1       1.137   8.166  20.492  0.00  0.00    +0.000 C 
ATOM     15  C   UNL     1       0.749   9.614  20.229  0.00  0.00    +0.000 C 
ATOM     16  O   UNL     1       0.358   9.787  18.868  0.00  0.00    +0.000 OA
ATOM     17  C   UNL     1       1.427   9.519  17.964  0.00  0.00    +0.000 C 
ATOM     18  C   UNL     1       1.854   8.063  18.067  0.00  0.00    +0.000 C 
ENDBRANCH   7  13
BRANCH   5  19
ATOM     19  O   UNL     1       2.229   3.556  22.232  0.00  0.00    +0.000 OA
ATOM     20  H   UNL     1       2.307   4.232  22.942  0.00  0.00    +0.000 HD
ENDBRANCH   5  19
BRANCH  10  21
ATOM     21  C   UNL     1       3.771   3.389  16.360  0.00  0.00    +0.000 C 
BRANCH  21  22
ATOM     22  C   UNL     1       5.129   4.049  16.229  0.00  0.00    +0.000 A 
ATOM     23  C   UNL     1       5.828   4.372  17.411  0.00  0.00    +0.000 A 
ATOM     24  C   UNL     1       7.121   4.892  17.369  0.00  0.00    +0.000 A 
ATOM     25  C   UNL     1       7.742   5.102  16.142  0.00  0.00    +0.000 A 
ATOM     26  C   UNL     1       7.053   4.840  14.956  0.00  0.00    +0.000 A 
ATOM     27 CL   UNL     1       7.891   5.151  13.473  0.00  0.00    +0.000 Cl
ATOM     28  C   UNL     1       5.741   4.334  14.990  0.00  0.00    +0.000 A 
ATOM     29 CL   UNL     1       4.869   4.109  13.507  0.00  0.00    +0.000 Cl
ENDBRANCH  21  22
ENDBRANCH  10  21
TORSDOF 4
ENDMDL
MODEL 3
REMARK VINA RESULT:      -7.4      3.893      7.459
REMARK  Name = 
REMARK  4 active torsions:
REMARK  status: ('A' for Active; 'I' for Inactive)
REMARK    1  A    between atoms: C_5  and  O_6
REMARK    2  A    between atoms: C_8  and  C_9
REMARK    3  A    between atoms: C_17  and  C_18
REMARK    4  A    between atoms: C_18  and  C_19
REMARK                            x       y       z     vdW  Elec       q    Type
REMARK                         _______ _______ _______ _____ _____    ______ ____
ROOT
ATOM      1  N   UNL     1       0.015   9.406  21.509  0.00  0.00    +0.000 N 
ATOM      2  C   UNL     1       0.811   8.605  20.790  0.00  0.00    +0.000 A 
ATOM      3  N   UNL     1       1.126   7.392  21.225  0.00  0.00    +0.000 NA
ATOM      4  N   UNL     1       1.956   6.908  20.277  0.00  0.00    +0.000 N 
ATOM      5  C   UNL     1       2.591   5.665  20.303  0.00  0.00    +0.000 A 
ATOM      6  C   UNL     1       3.395   5.310  19.293  0.00  0.00    +0.000 A 
ATOM      7  C   UNL     1       3.552   6.319  18.193  0.00  0.00    +0.000 A 
ATOM      8  N   UNL     1       2.972   7.490  18.169  0.00  0.00    +0.000 NA
ATOM      9  C   UNL     1       2.152   7.798  19.227  0.00  0.00    +0.000 A 
ATOM     10  C   UNL     1       1.410   8.929  19.544  0.00  0.00    +0.000 A 
ATOM     11  H   UNL     1      -0.454   8.987  22.305  0.00  0.00    +0.000 HD
ATOM     12  H   UNL     1      -0.530  10.142  21.070  0.00  0.00    +0.000 HD
ENDROOT
BRANCH   7  13
ATOM     13  C   UNL     1       4.473   5.950  17.028  0.00  0.00    +0.000 C 
ATOM     14  C   UNL     1       4.424   4.448  16.729  0.00  0.00    +0.000 C 
ATOM     15  C   UNL     1       5.479   4.059  15.704  0.00  0.00    +0.000 C 
ATOM     16  O   UNL     1       6.771   4.487  16.131  0.00  0.00    +0.000 OA
ATOM     17  C   UNL     1       6.860   5.906  16.236  0.00  0.00    +0.000 C 
ATOM     18  C   UNL     1       5.905   6.418  17.303  0.00  0.00    +0.000 C 
ENDBRANCH   7  13
BRANCH   5  19
ATOM     19  O   UNL     1       2.390   4.823  21.381  0.00  0.00    +0.000 OA
ATOM     20  H   UNL     1       3.076   4.125  21.292  0.00  0.00    +0.000 HD
ENDBRANCH   5  19
BRANCH  10  21
ATOM     21  C   UNL     1       1.356  10.210  18.774  0.00  0.00    +0.000 C 
BRANCH  21  22
ATOM     22  C   UNL     1      -0.107  10.511  18.517  0.00  0.00    +0.000 A 
ATOM     23  C   UNL     1      -0.788   9.731  17.558  0.00  0.00    +0.000 A 
ATOM     24  C   UNL     1      -2.156   9.885  17.338  0.00  0.00    +0.000 A 
ATOM     25  C   UNL     1      -2.872  10.825  18.071  0.00  0.00    +0.000 A 
ATOM     26  C   UNL     1      -2.213  11.646  18.989  0.00  0.00    +0.000 A 
ATOM     27 CL   UNL     1      -3.176  12.806  19.841  0.00  0.00    +0.000 Cl
ATOM     28  C   UNL     1      -0.830  11.510  19.202  0.00  0.00    +0.000 A 
ATOM     29 CL   UNL     1      -0.014  12.606  20.272  0.00  0.00    +0.000 Cl
ENDBRANCH  21  22
ENDBRANCH  10  21
TORSDOF 4
ENDMDL
MODEL 4
REMARK VINA RESULT:      -7.2      6.984      9.820
REMARK  Name = 
REMARK  4 active torsions:
REMARK  status: ('A' for Active; 'I' for Inactive)
REMARK    1  A    between atoms: C_5  and  O_6
REMARK    2  A    between atoms: C_8  and  C_9
REMARK    3  A    between atoms: C_17  and  C_18
REMARK    4  A    between atoms: C_18  and  C_19
REMARK                            x       y       z     vdW  Elec       q    Type
REMARK                         _______ _______ _______ _____ _____    ______ ____
ROOT
ATOM      1  N   UNL     1       1.579   9.054  18.073  0.00  0.00    +0.000 N 
ATOM      2  C   UNL     1       1.411  10.369  18.257  0.00  0.00    +0.000 A 
ATOM      3  N   UNL     1       2.394  11.223  18.002  0.00  0.00    +0.000 NA
ATOM      4  N   UNL     1       1.881  12.425  18.335  0.00  0.00    +0.000 N 
ATOM      5  C   UNL     1       2.556  13.647  18.277  0.00  0.00    +0.000 A 
ATOM      6  C   UNL     1       1.926  14.769  18.644  0.00  0.00    +0.000 A 
ATOM      7  C   UNL     1       0.507  14.606  19.105  0.00  0.00    +0.000 A 
ATOM      8  N   UNL     1      -0.126  13.464  19.175  0.00  0.00    +0.000 NA
ATOM      9  C   UNL     1       0.567  12.346  18.781  0.00  0.00    +0.000 A 
ATOM     10  C   UNL     1       0.233  10.997  18.743  0.00  0.00    +0.000 A 
ATOM     11  H   UNL     1       2.421   8.766  17.585  0.00  0.00    +0.000 HD
ATOM     12  H   UNL     1       0.790   8.440  17.898  0.00  0.00    +0.000 HD
ENDROOT
BRANCH   7  13
ATOM     13  C   UNL     1      -0.240  15.868  19.541  0.00  0.00    +0.000 C 
ATOM     14  C   UNL     1      -1.524  15.524  20.304  0.00  0.00    +0.000 C 
ATOM     15  C   UNL     1      -2.356  16.771  20.565  0.00  0.00    +0.000 C 
ATOM     16  O   UNL     1      -2.617  17.462  19.344  0.00  0.00    +0.000 OA
ATOM     17  C   UNL     1      -1.421  17.935  18.728  0.00  0.00    +0.000 C 
ATOM     18  C   UNL     1      -0.531  16.766  18.335  0.00  0.00    +0.000 C 
ENDBRANCH   7  13
BRANCH   5  19
ATOM     19  O   UNL     1       3.872  13.675  17.856  0.00  0.00    +0.000 OA
ATOM     20  H   UNL     1       4.310  14.342  18.431  0.00  0.00    +0.000 HD
ENDBRANCH   5  19
BRANCH  10  21
ATOM     21  C   UNL     1      -1.046  10.377  19.206  0.00  0.00    +0.000 C 
BRANCH  21  22
ATOM     22  C   UNL     1      -2.066  10.592  18.106  0.00  0.00    +0.000 A 
ATOM     23  C   UNL     1      -1.878   9.915  16.883  0.00  0.00    +0.000 A 
ATOM     24  C   UNL     1      -2.823   9.987  15.861  0.00  0.00    +0.000 A 
ATOM     25  C   UNL     1      -3.977  10.743  16.040  0.00  0.00    +0.000 A 
ATOM     26  C   UNL     1      -4.164  11.466  17.220  0.00  0.00    +0.000 A 
ATOM     27 CL   UNL     1      -5.616  12.399  17.352  0.00  0.00    +0.000 Cl
ATOM     28  C   UNL     1      -3.204  11.413  18.247  0.00  0.00    +0.000 A 
ATOM     29 CL   UNL     1      -3.408  12.396  19.664  0.00  0.00    +0.000 Cl
ENDBRANCH  21  22
ENDBRANCH  10  21
TORSDOF 4
ENDMDL
MODEL 5
REMARK VINA RESULT:      -7.1      1.214      1.669
REMARK  Name = 
REMARK  4 active torsions:
REMARK  status: ('A' for Active; 'I' for Inactive)
REMARK    1  A    between atoms: C_5  and  O_6
REMARK    2  A    between atoms: C_8  and  C_9
REMARK    3  A    between atoms: C_17  and  C_18
REMARK    4  A    between atoms: C_18  and  C_19
REMARK                            x       y       z     vdW  Elec       q    Type
REMARK                         _______ _______ _______ _____ _____    ______ ____
ROOT
ATOM      1  N   UNL     1       4.179   0.856  18.116  0.00  0.00    +0.000 N 
ATOM      2  C   UNL     1       3.760   2.051  18.550  0.00  0.00    +0.000 A 
ATOM      3  N   UNL     1       3.011   2.154  19.640  0.00  0.00    +0.000 NA
ATOM      4  N   UNL     1       2.756   3.475  19.740  0.00  0.00    +0.000 N 
ATOM      5  C   UNL     1       1.966   4.084  20.718  0.00  0.00    +0.000 A 
ATOM      6  C   UNL     1       1.791   5.411  20.697  0.00  0.00    +0.000 A 
ATOM      7  C   UNL     1       2.479   6.146  19.584  0.00  0.00    +0.000 A 
ATOM      8  N   UNL     1       3.208   5.582  18.659  0.00  0.00    +0.000 NA
ATOM      9  C   UNL     1       3.358   4.219  18.732  0.00  0.00    +0.000 A 
ATOM     10  C   UNL     1       4.024   3.301  17.929  0.00  0.00    +0.000 A 
ATOM     11  H   UNL     1       4.036   0.069  18.740  0.00  0.00    +0.000 HD
ATOM     12  H   UNL     1       5.016   0.764  17.548  0.00  0.00    +0.000 HD
ENDROOT
BRANCH   7  13
ATOM     13  C   UNL     1       2.292   7.664  19.525  0.00  0.00    +0.000 C 
ATOM     14  C   UNL     1       1.203   8.133  20.495  0.00  0.00    +0.000 C 
ATOM     15  C   UNL     1       0.889   9.609  20.295  0.00  0.00    +0.000 C 
ATOM     16  O   UNL     1       0.552   9.866  18.933  0.00  0.00    +0.000 OA
ATOM     17  C   UNL     1       1.638   9.594  18.049  0.00  0.00    +0.000 C 
ATOM     18  C   UNL     1       1.995   8.116  18.092  0.00  0.00    +0.000 C 
ENDBRANCH   7  13
BRANCH   5  19
ATOM     19  O   UNL     1       1.361   3.302  21.685  0.00  0.00    +0.000 OA
ATOM     20  H   UNL     1       2.071   2.704  22.010  0.00  0.00    +0.000 HD
ENDBRANCH   5  19
BRANCH  10  21
ATOM     21  C   UNL     1       4.758   3.588  16.658  0.00  0.00    +0.000 C 
BRANCH  21  22
ATOM     22  C   UNL     1       5.314   4.993  16.777  0.00  0.00    +0.000 A 
ATOM     23  C   UNL     1       4.619   6.040  16.134  0.00  0.00    +0.000 A 
ATOM     24  C   UNL     1       5.015   7.369  16.279  0.00  0.00    +0.000 A 
ATOM     25  C   UNL     1       6.119   7.679  17.067  0.00  0.00    +0.000 A 
ATOM     26  C   UNL     1       6.855   6.658  17.672  0.00  0.00    +0.000 A 
ATOM     27 CL   UNL     1       8.228   7.130  18.616  0.00  0.00    +0.000 Cl
ATOM     28  C   UNL     1       6.473   5.314  17.514  0.00  0.00    +0.000 A 
ATOM     29 CL   UNL     1       7.459   4.056  18.191  0.00  0.00    +0.000 Cl
ENDBRANCH  21  22
ENDBRANCH  10  21
TORSDOF 4
ENDMDL
MODEL 6
REMARK VINA RESULT:      -7.1      7.343     10.191
REMARK  Name = 
REMARK  4 active torsions:
REMARK  status: ('A' for Active; 'I' for Inactive)
REMARK    1  A    between atoms: C_5  and  O_6
REMARK    2  A    between atoms: C_8  and  C_9
REMARK    3  A    between atoms: C_17  and  C_18
REMARK    4  A    between atoms: C_18  and  C_19
REMARK                            x       y       z     vdW  Elec       q    Type
REMARK                         _______ _______ _______ _____ _____    ______ ____
ROOT
ATOM      1  N   UNL     1      -1.700  11.150  16.859  0.00  0.00    +0.000 N 
ATOM      2  C   UNL     1      -2.617  11.455  17.785  0.00  0.00    +0.000 A 
ATOM      3  N   UNL     1      -3.909  11.262  17.552  0.00  0.00    +0.000 NA
ATOM      4  N   UNL     1      -4.516  11.712  18.669  0.00  0.00    +0.000 N 
ATOM      5  C   UNL     1      -5.894  11.754  18.891  0.00  0.00    +0.000 A 
ATOM      6  C   UNL     1      -6.364  12.232  20.050  0.00  0.00    +0.000 A 
ATOM      7  C   UNL     1      -5.332  12.699  21.035  0.00  0.00    +0.000 A 
ATOM      8  N   UNL     1      -4.042  12.675  20.828  0.00  0.00    +0.000 NA
ATOM      9  C   UNL     1      -3.616  12.170  19.625  0.00  0.00    +0.000 A 
ATOM     10  C   UNL     1      -2.354  12.015  19.063  0.00  0.00    +0.000 A 
ATOM     11  H   UNL     1      -2.023  10.624  16.053  0.00  0.00    +0.000 HD
ATOM     12  H   UNL     1      -0.742  10.932  17.116  0.00  0.00    +0.000 HD
ENDROOT
BRANCH   7  13
ATOM     13  C   UNL     1      -5.836  13.259  22.367  0.00  0.00    +0.000 C 
ATOM     14  C   UNL     1      -7.130  12.569  22.812  0.00  0.00    +0.000 C 
ATOM     15  C   UNL     1      -7.727  13.258  24.030  0.00  0.00    +0.000 C 
ATOM     16  O   UNL     1      -7.912  14.650  23.776  0.00  0.00    +0.000 OA
ATOM     17  C   UNL     1      -6.678  15.322  23.536  0.00  0.00    +0.000 C 
ATOM     18  C   UNL     1      -6.015  14.778  22.280  0.00  0.00    +0.000 C 
ENDBRANCH   7  13
BRANCH   5  19
ATOM     19  O   UNL     1      -6.754  11.316  17.901  0.00  0.00    +0.000 OA
ATOM     20  H   UNL     1      -7.647  11.340  18.310  0.00  0.00    +0.000 HD
ENDBRANCH   5  19
BRANCH  10  21
ATOM     21  C   UNL     1      -1.050  12.441  19.658  0.00  0.00    +0.000 C 
BRANCH  21  22
ATOM     22  C   UNL     1      -0.668  11.392  20.683  0.00  0.00    +0.000 A 
ATOM     23  C   UNL     1      -1.134  11.553  22.006  0.00  0.00    +0.000 A 
ATOM     24  C   UNL     1      -0.904  10.581  22.979  0.00  0.00    +0.000 A 
ATOM     25  C   UNL     1      -0.200   9.427  22.650  0.00  0.00    +0.000 A 
ATOM     26  C   UNL     1       0.317   9.266  21.363  0.00  0.00    +0.000 A 
ATOM     27 CL   UNL     1       1.201   7.812  21.045  0.00  0.00    +0.000 Cl
ATOM     28  C   UNL     1       0.106  10.252  20.382  0.00  0.00    +0.000 A 
ATOM     29 CL   UNL     1       0.842  10.078  18.819  0.00  0.00    +0.000 Cl
ENDBRANCH  21  22
ENDBRANCH  10  21
TORSDOF 4
ENDMDL
MODEL 7
REMARK VINA RESULT:      -7.1      3.069      6.362
REMARK  Name = 
REMARK  4 active torsions:
REMARK  status: ('A' for Active; 'I' for Inactive)
REMARK    1  A    between atoms: C_5  and  O_6
REMARK    2  A    between atoms: C_8  and  C_9
REMARK    3  A    between atoms: C_17  and  C_18
REMARK    4  A    between atoms: C_18  and  C_19
REMARK                            x       y       z     vdW  Elec       q    Type
REMARK                         _______ _______ _______ _____ _____    ______ ____
ROOT
ATOM      1  N   UNL     1       0.422   7.665  21.843  0.00  0.00    +0.000 N 
ATOM      2  C   UNL     1       1.236   7.549  20.787  0.00  0.00    +0.000 A 
ATOM      3  N   UNL     1       1.268   8.485  19.848  0.00  0.00    +0.000 NA
ATOM      4  N   UNL     1       2.155   8.017  18.946  0.00  0.00    +0.000 N 
ATOM      5  C   UNL     1       2.506   8.637  17.745  0.00  0.00    +0.000 A 
ATOM      6  C   UNL     1       3.402   8.057  16.936  0.00  0.00    +0.000 A 
ATOM      7  C   UNL     1       3.960   6.746  17.408  0.00  0.00    +0.000 A 
ATOM      8  N   UNL     1       3.626   6.154  18.524  0.00  0.00    +0.000 NA
ATOM      9  C   UNL     1       2.708   6.796  19.317  0.00  0.00    +0.000 A 
ATOM     10  C   UNL     1       2.114   6.464  20.529  0.00  0.00    +0.000 A 
ATOM     11  H   UNL     1      -0.039   8.560  21.968  0.00  0.00    +0.000 HD
ATOM     12  H   UNL     1       0.627   7.199  22.722  0.00  0.00    +0.000 HD
ENDROOT
BRANCH   7  13
ATOM     13  C   UNL     1       4.980   6.051  16.504  0.00  0.00    +0.000 C 
ATOM     14  C   UNL     1       4.725   4.542  16.428  0.00  0.00    +0.000 C 
ATOM     15  C   UNL     1       5.849   3.833  15.687  0.00  0.00    +0.000 C 
ATOM     16  O   UNL     1       7.109   4.142  16.279  0.00  0.00    +0.000 OA
ATOM     17  C   UNL     1       7.421   5.530  16.187  0.00  0.00    +0.000 C 
ATOM     18  C   UNL     1       6.408   6.352  16.969  0.00  0.00    +0.000 C 
ENDBRANCH   7  13
BRANCH   5  19
ATOM     19  O   UNL     1       1.909   9.836  17.401  0.00  0.00    +0.000 OA
ATOM     20  H   UNL     1       2.264  10.051  16.510  0.00  0.00    +0.000 HD
ENDBRANCH   5  19
BRANCH  10  21
ATOM     21  C   UNL     1       2.307   5.199  21.304  0.00  0.00    +0.000 C 
BRANCH  21  22
ATOM     22  C   UNL     1       1.996   4.052  20.364  0.00  0.00    +0.000 A 
ATOM     23  C   UNL     1       0.645   3.810  20.034  0.00  0.00    +0.000 A 
ATOM     24  C   UNL     1       0.290   2.836  19.102  0.00  0.00    +0.000 A 
ATOM     25  C   UNL     1       1.279   2.080  18.481  0.00  0.00    +0.000 A 
ATOM     26  C   UNL     1       2.620   2.263  18.828  0.00  0.00    +0.000 A 
ATOM     27 CL   UNL     1       3.784   1.265  18.025  0.00  0.00    +0.000 Cl
ATOM     28  C   UNL     1       2.983   3.230  19.781  0.00  0.00    +0.000 A 
ATOM     29 CL   UNL     1       4.643   3.373  20.270  0.00  0.00    +0.000 Cl
ENDBRANCH  21  22
ENDBRANCH  10  21
TORSDOF 4
ENDMDL
MODEL 8
REMARK VINA RESULT:      -7.0      1.714      2.196
REMARK  Name = 
REMARK  4 active torsions:
REMARK  status: ('A' for Active; 'I' for Inactive)
REMARK    1  A    between atoms: C_5  and  O_6
REMARK    2  A    between atoms: C_8  and  C_9
REMARK    3  A    between atoms: C_17  and  C_18
REMARK    4  A    between atoms: C_18  and  C_19
REMARK                            x       y       z     vdW  Elec       q    Type
REMARK                         _______ _______ _______ _____ _____    ______ ____
ROOT
ATOM      1  N   UNL     1       4.275   0.866  18.355  0.00  0.00    +0.000 N 
ATOM      2  C   UNL     1       3.748   2.050  18.691  0.00  0.00    +0.000 A 
ATOM      3  N   UNL     1       3.340   2.286  19.931  0.00  0.00    +0.000 NA
ATOM      4  N   UNL     1       2.844   3.540  19.882  0.00  0.00    +0.000 N 
ATOM      5  C   UNL     1       2.255   4.228  20.944  0.00  0.00    +0.000 A 
ATOM      6  C   UNL     1       1.798   5.472  20.756  0.00  0.00    +0.000 A 
ATOM      7  C   UNL     1       1.961   6.029  19.371  0.00  0.00    +0.000 A 
ATOM      8  N   UNL     1       2.499   5.385  18.369  0.00  0.00    +0.000 NA
ATOM      9  C   UNL     1       2.955   4.115  18.621  0.00  0.00    +0.000 A 
ATOM     10  C   UNL     1       3.546   3.150  17.815  0.00  0.00    +0.000 A 
ATOM     11  H   UNL     1       4.491   0.231  19.116  0.00  0.00    +0.000 HD
ATOM     12  H   UNL     1       4.913   0.775  17.570  0.00  0.00    +0.000 HD
ENDROOT
BRANCH   7  13
ATOM     13  C   UNL     1       1.440   7.445  19.118  0.00  0.00    +0.000 C 
ATOM     14  C   UNL     1       2.254   8.155  18.030  0.00  0.00    +0.000 C 
ATOM     15  C   UNL     1       1.858   9.620  17.918  0.00  0.00    +0.000 C 
ATOM     16  O   UNL     1       1.968  10.264  19.186  0.00  0.00    +0.000 OA
ATOM     17  C   UNL     1       1.074   9.710  20.150  0.00  0.00    +0.000 C 
ATOM     18  C   UNL     1       1.423   8.255  20.419  0.00  0.00    +0.000 C 
ENDBRANCH   7  13
BRANCH   5  19
ATOM     19  O   UNL     1       2.138   3.607  22.174  0.00  0.00    +0.000 OA
ATOM     20  H   UNL     1       2.980   3.113  22.291  0.00  0.00    +0.000 HD
ENDBRANCH   5  19
BRANCH  10  21
ATOM     21  C   UNL     1       3.804   3.246  16.345  0.00  0.00    +0.000 C 
BRANCH  21  22
ATOM     22  C   UNL     1       5.102   4.010  16.173  0.00  0.00    +0.000 A 
ATOM     23  C   UNL     1       5.760   4.472  17.332  0.00  0.00    +0.000 A 
ATOM     24  C   UNL     1       7.005   5.096  17.259  0.00  0.00    +0.000 A 
ATOM     25  C   UNL     1       7.616   5.275  16.022  0.00  0.00    +0.000 A 
ATOM     26  C   UNL     1       6.963   4.874  14.855  0.00  0.00    +0.000 A 
ATOM     27 CL   UNL     1       7.784   5.155  13.356  0.00  0.00    +0.000 Cl
ATOM     28  C   UNL     1       5.699   4.262  14.920  0.00  0.00    +0.000 A 
ATOM     29 CL   UNL     1       4.862   3.862  13.452  0.00  0.00    +0.000 Cl
ENDBRANCH  21  22
ENDBRANCH  10  21
TORSDOF 4
ENDMDL
MODEL 9
REMARK VINA RESULT:      -7.0      3.664      7.133
REMARK  Name = 
REMARK  4 active torsions:
REMARK  status: ('A' for Active; 'I' for Inactive)
REMARK    1  A    between atoms: C_5  and  O_6
REMARK    2  A    between atoms: C_8  and  C_9
REMARK    3  A    between atoms: C_17  and  C_18
REMARK    4  A    between atoms: C_18  and  C_19
REMARK                            x       y       z     vdW  Elec       q    Type
REMARK                         _______ _______ _______ _____ _____    ______ ____
ROOT
ATOM      1  N   UNL     1       0.369   9.329  21.006  0.00  0.00    +0.000 N 
ATOM      2  C   UNL     1       1.144   8.416  20.408  0.00  0.00    +0.000 A 
ATOM      3  N   UNL     1       1.362   7.235  20.972  0.00  0.00    +0.000 NA
ATOM      4  N   UNL     1       2.202   6.612  20.119  0.00  0.00    +0.000 N 
ATOM      5  C   UNL     1       2.755   5.343  20.296  0.00  0.00    +0.000 A 
ATOM      6  C   UNL     1       3.581   4.844  19.368  0.00  0.00    +0.000 A 
ATOM      7  C   UNL     1       3.851   5.729  18.186  0.00  0.00    +0.000 A 
ATOM      8  N   UNL     1       3.348   6.924  18.021  0.00  0.00    +0.000 NA
ATOM      9  C   UNL     1       2.502   7.382  19.001  0.00  0.00    +0.000 A 
ATOM     10  C   UNL     1       1.819   8.580  19.169  0.00  0.00    +0.000 A 
ATOM     11  H   UNL     1      -0.162   9.018  21.813  0.00  0.00    +0.000 HD
ATOM     12  H   UNL     1      -0.108  10.049  20.471  0.00  0.00    +0.000 HD
ENDROOT
BRANCH   7  13
ATOM     13  C   UNL     1       4.799   5.195  17.111  0.00  0.00    +0.000 C 
ATOM     14  C   UNL     1       6.146   4.774  17.709  0.00  0.00    +0.000 C 
ATOM     15  C   UNL     1       7.146   4.426  16.617  0.00  0.00    +0.000 C 
ATOM     16  O   UNL     1       7.275   5.508  15.696  0.00  0.00    +0.000 OA
ATOM     17  C   UNL     1       6.054   5.778  15.009  0.00  0.00    +0.000 C 
ATOM     18  C   UNL     1       4.984   6.226  15.992  0.00  0.00    +0.000 C 
ENDBRANCH   7  13
BRANCH   5  19
ATOM     19  O   UNL     1       2.452   4.624  21.438  0.00  0.00    +0.000 OA
ATOM     20  H   UNL     1       1.471   4.561  21.447  0.00  0.00    +0.000 HD
ENDBRANCH   5  19
BRANCH  10  21
ATOM     21  C   UNL     1       1.882   9.781  18.280  0.00  0.00    +0.000 C 
BRANCH  21  22
ATOM     22  C   UNL     1       0.514  10.432  18.319  0.00  0.00    +0.000 A 
ATOM     23  C   UNL     1      -0.564   9.754  17.712  0.00  0.00    +0.000 A 
ATOM     24  C   UNL     1      -1.867  10.244  17.792  0.00  0.00    +0.000 A 
ATOM     25  C   UNL     1      -2.119  11.427  18.480  0.00  0.00    +0.000 A 
ATOM     26  C   UNL     1      -1.063  12.145  19.045  0.00  0.00    +0.000 A 
ATOM     27 CL   UNL     1      -1.462  13.619  19.863  0.00  0.00    +0.000 Cl
ATOM     28  C   UNL     1       0.256  11.667  18.951  0.00  0.00    +0.000 A 
ATOM     29 CL   UNL     1       1.563  12.625  19.573  0.00  0.00    +0.000 Cl
ENDBRANCH  21  22
ENDBRANCH  10  21
TORSDOF 4
ENDMDL
