MODEL 1
REMARK VINA RESULT:      -9.7      0.000      0.000
REMARK  Name = 
REMARK  5 active torsions:
REMARK  status: ('A' for Active; 'I' for Inactive)
REMARK    1  A    between atoms: C_1  and  C_2
REMARK    2  A    between atoms: C_7  and  C_8
REMARK    3  A    between atoms: N_10  and  C_11
REMARK    4  A    between atoms: C_18  and  C_19
REMARK    5  A    between atoms: C_19  and  C_20
REMARK                            x       y       z     vdW  Elec       q    Type
REMARK                         _______ _______ _______ _____ _____    ______ ____
ROOT
ATOM      1  C   UNL     1       3.090   4.752  18.250  0.00  0.00    +0.000 C 
ATOM      2  C   UNL     1       1.952   3.742  17.926  0.00  0.00    +0.000 C 
ATOM      3  C   UNL     1       2.543   2.375  17.544  0.00  0.00    +0.000 C 
ATOM      4  C   UNL     1       3.353   1.819  18.720  0.00  0.00    +0.000 C 
ATOM      5  N   UNL     1       3.454   2.801  19.820  0.00  0.00    +0.000 NA
ATOM      6  C   UNL     1       2.085   3.064  20.330  0.00  0.00    +0.000 C 
ATOM      7  C   UNL     1       1.133   3.514  19.210  0.00  0.00    +0.000 C 
ATOM      8  C   UNL     1       4.042   4.098  19.340  0.00  0.00    +0.000 C 
ENDROOT
BRANCH   1  11
ATOM      9  C   UNL     1       2.794   7.273  18.179  0.00  0.00    +0.000 C 
ATOM     10  O   UNL     1       3.698   7.448  17.368  0.00  0.00    +0.000 OA
ATOM     11  N   UNL     1       2.468   6.025  18.655  0.00  0.00    +0.000 N 
ATOM     12  H   UNL     1       1.608   5.992  19.192  0.00  0.00    +0.000 HD
BRANCH   9  19
ATOM     13  C   UNL     1      -1.123  11.486  22.792  0.00  0.00    +0.000 C 
ATOM     14  C   UNL     1      -0.475  11.034  21.512  0.00  0.00    +0.000 A 
ATOM     15  C   UNL     1      -0.610  11.798  20.343  0.00  0.00    +0.000 A 
ATOM     16  C   UNL     1      -0.016  11.397  19.135  0.00  0.00    +0.000 A 
ATOM     17  C   UNL     1       0.725  10.202  19.098  0.00  0.00    +0.000 A 
ATOM     18  C   UNL     1       1.451   9.484  18.111  0.00  0.00    +0.000 A 
ATOM     19  C   UNL     1       1.967   8.350  18.716  0.00  0.00    +0.000 A 
ATOM     20  O   UNL     1       1.590   8.336  20.044  0.00  0.00    +0.000 OA
ATOM     21  C   UNL     1       0.843   9.461  20.269  0.00  0.00    +0.000 A 
ATOM     22  C   UNL     1       0.268   9.837  21.484  0.00  0.00    +0.000 A 
ENDBRANCH   9  19
ENDBRANCH   1  11
BRANCH   8  23
ATOM     23  C   UNL     1       5.493   3.982  18.769  0.00  0.00    +0.000 C 
BRANCH  23  24
ATOM     24  C   UNL     1       5.863   4.494  17.393  0.00  0.00    +0.000 A 
ATOM     25  C   UNL     1       5.521   3.725  16.271  0.00  0.00    +0.000 A 
ATOM     26  C   UNL     1       6.016   4.039  15.006  0.00  0.00    +0.000 A 
ATOM     27  C   UNL     1       6.843   5.134  14.892  0.00  0.00    +0.000 A 
ATOM     28  N   UNL     1       7.160   5.940  15.927  0.00  0.00    +0.000 NA
ATOM     29  C   UNL     1       6.665   5.605  17.148  0.00  0.00    +0.000 A 
ENDBRANCH  23  24
ENDBRANCH   8  23
TORSDOF 4
ENDMDL
MODEL 2
REMARK VINA RESULT:      -9.6      1.031      1.608
REMARK  Name = 
REMARK  5 active torsions:
REMARK  status: ('A' for Active; 'I' for Inactive)
REMARK    1  A    between atoms: C_1  and  C_2
REMARK    2  A    between atoms: C_7  and  C_8
REMARK    3  A    between atoms: N_10  and  C_11
REMARK    4  A    between atoms: C_18  and  C_19
REMARK    5  A    between atoms: C_19  and  C_20
REMARK                            x       y       z     vdW  Elec       q    Type
REMARK                         _______ _______ _______ _____ _____    ______ ____
ROOT
ATOM      1  C   UNL     1       2.741   4.818  18.889  0.00  0.00    +0.000 C 
ATOM      2  C   UNL     1       1.598   3.824  18.535  0.00  0.00    +0.000 C 
ATOM      3  C   UNL     1       2.164   2.599  17.799  0.00  0.00    +0.000 C 
ATOM      4  C   UNL     1       3.164   1.872  18.706  0.00  0.00    +0.000 C 
ATOM      5  N   UNL     1       3.404   2.622  19.957  0.00  0.00    +0.000 NA
ATOM      6  C   UNL     1       2.123   2.693  20.704  0.00  0.00    +0.000 C 
ATOM      7  C   UNL     1       0.995   3.297  19.850  0.00  0.00    +0.000 C 
ATOM      8  C   UNL     1       3.870   4.022  19.672  0.00  0.00    +0.000 C 
ENDROOT
BRANCH   1  11
ATOM      9  C   UNL     1       2.233   7.274  19.290  0.00  0.00    +0.000 C 
ATOM     10  O   UNL     1       2.867   7.659  18.313  0.00  0.00    +0.000 OA
ATOM     11  N   UNL     1       2.150   5.945  19.632  0.00  0.00    +0.000 N 
ATOM     12  H   UNL     1       1.473   5.741  20.360  0.00  0.00    +0.000 HD
BRANCH   9  19
ATOM     13  C   UNL     1      -1.299  13.160  21.981  0.00  0.00    +0.000 C 
ATOM     14  C   UNL     1      -0.722  11.772  21.930  0.00  0.00    +0.000 A 
ATOM     15  C   UNL     1      -0.855  10.911  23.029  0.00  0.00    +0.000 A 
ATOM     16  C   UNL     1      -0.325   9.611  23.007  0.00  0.00    +0.000 A 
ATOM     17  C   UNL     1       0.357   9.167  21.860  0.00  0.00    +0.000 A 
ATOM     18  C   UNL     1       1.010   7.970  21.462  0.00  0.00    +0.000 A 
ATOM     19  C   UNL     1       1.496   8.167  20.181  0.00  0.00    +0.000 A 
ATOM     20  O   UNL     1       1.170   9.442  19.765  0.00  0.00    +0.000 OA
ATOM     21  C   UNL     1       0.478  10.040  20.784  0.00  0.00    +0.000 A 
ATOM     22  C   UNL     1      -0.042  11.334  20.775  0.00  0.00    +0.000 A 
ENDBRANCH   9  19
ENDBRANCH   1  11
BRANCH   8  23
ATOM     23  C   UNL     1       5.218   4.111  18.885  0.00  0.00    +0.000 C 
BRANCH  23  24
ATOM     24  C   UNL     1       5.302   4.696  17.491  0.00  0.00    +0.000 A 
ATOM     25  C   UNL     1       5.195   3.834  16.389  0.00  0.00    +0.000 A 
ATOM     26  C   UNL     1       5.473   4.281  15.097  0.00  0.00    +0.000 A 
ATOM     27  C   UNL     1       5.845   5.597  14.938  0.00  0.00    +0.000 A 
ATOM     28  N   UNL     1       5.910   6.482  15.955  0.00  0.00    +0.000 NA
ATOM     29  C   UNL     1       5.638   6.015  17.202  0.00  0.00    +0.000 A 
ENDBRANCH  23  24
ENDBRANCH   8  23
TORSDOF 4
ENDMDL
MODEL 3
REMARK VINA RESULT:      -9.5      0.884      1.489
REMARK  Name = 
REMARK  5 active torsions:
REMARK  status: ('A' for Active; 'I' for Inactive)
REMARK    1  A    between atoms: C_1  and  C_2
REMARK    2  A    between atoms: C_7  and  C_8
REMARK    3  A    between atoms: N_10  and  C_11
REMARK    4  A    between atoms: C_18  and  C_19
REMARK    5  A    between atoms: C_19  and  C_20
REMARK                            x       y       z     vdW  Elec       q    Type
REMARK                         _______ _______ _______ _____ _____    ______ ____
ROOT
ATOM      1  C   UNL     1       2.893   4.680  18.106  0.00  0.00    +0.000 C 
ATOM      2  C   UNL     1       1.803   3.575  18.208  0.00  0.00    +0.000 C 
ATOM      3  C   UNL     1       2.374   2.219  17.760  0.00  0.00    +0.000 C 
ATOM      4  C   UNL     1       3.539   1.824  18.675  0.00  0.00    +0.000 C 
ATOM      5  N   UNL     1       3.872   2.907  19.624  0.00  0.00    +0.000 NA
ATOM      6  C   UNL     1       2.695   3.127  20.502  0.00  0.00    +0.000 C 
ATOM      7  C   UNL     1       1.420   3.413  19.691  0.00  0.00    +0.000 C 
ATOM      8  C   UNL     1       4.177   4.190  18.903  0.00  0.00    +0.000 C 
ENDROOT
BRANCH   1  11
ATOM      9  C   UNL     1       2.699   7.209  18.228  0.00  0.00    +0.000 C 
ATOM     10  O   UNL     1       3.637   7.409  17.463  0.00  0.00    +0.000 OA
ATOM     11  N   UNL     1       2.309   5.942  18.592  0.00  0.00    +0.000 N 
ATOM     12  H   UNL     1       1.430   5.903  19.098  0.00  0.00    +0.000 HD
BRANCH   9  19
ATOM     13  C   UNL     1      -1.187  11.220  23.042  0.00  0.00    +0.000 C 
ATOM     14  C   UNL     1      -0.522  10.838  21.749  0.00  0.00    +0.000 A 
ATOM     15  C   UNL     1      -0.596  11.690  20.637  0.00  0.00    +0.000 A 
ATOM     16  C   UNL     1       0.015  11.356  19.417  0.00  0.00    +0.000 A 
ATOM     17  C   UNL     1       0.713  10.140  19.311  0.00  0.00    +0.000 A 
ATOM     18  C   UNL     1       1.439   9.468  18.291  0.00  0.00    +0.000 A 
ATOM     19  C   UNL     1       1.897   8.275  18.822  0.00  0.00    +0.000 A 
ATOM     20  O   UNL     1       1.485   8.178  20.137  0.00  0.00    +0.000 OA
ATOM     21  C   UNL     1       0.772   9.312  20.425  0.00  0.00    +0.000 A 
ATOM     22  C   UNL     1       0.179   9.619  21.650  0.00  0.00    +0.000 A 
ENDBRANCH   9  19
ENDBRANCH   1  11
BRANCH   8  23
ATOM     23  C   UNL     1       5.401   4.115  17.933  0.00  0.00    +0.000 C 
BRANCH  23  24
ATOM     24  C   UNL     1       6.407   5.241  17.813  0.00  0.00    +0.000 A 
ATOM     25  C   UNL     1       7.235   5.526  18.909  0.00  0.00    +0.000 A 
ATOM     26  C   UNL     1       8.026   6.674  18.933  0.00  0.00    +0.000 A 
ATOM     27  C   UNL     1       7.975   7.512  17.841  0.00  0.00    +0.000 A 
ATOM     28  N   UNL     1       7.239   7.259  16.739  0.00  0.00    +0.000 NA
ATOM     29  C   UNL     1       6.475   6.134  16.749  0.00  0.00    +0.000 A 
ENDBRANCH  23  24
ENDBRANCH   8  23
TORSDOF 4
ENDMDL
MODEL 4
REMARK VINA RESULT:      -9.4      1.333      2.120
REMARK  Name = 
REMARK  5 active torsions:
REMARK  status: ('A' for Active; 'I' for Inactive)
REMARK    1  A    between atoms: C_1  and  C_2
REMARK    2  A    between atoms: C_7  and  C_8
REMARK    3  A    between atoms: N_10  and  C_11
REMARK    4  A    between atoms: C_18  and  C_19
REMARK    5  A    between atoms: C_19  and  C_20
REMARK                            x       y       z     vdW  Elec       q    Type
REMARK                         _______ _______ _______ _____ _____    ______ ____
ROOT
ATOM      1  C   UNL     1       2.408   4.611  18.700  0.00  0.00    +0.000 C 
ATOM      2  C   UNL     1       1.474   3.393  18.959  0.00  0.00    +0.000 C 
ATOM      3  C   UNL     1       1.989   2.155  18.206  0.00  0.00    +0.000 C 
ATOM      4  C   UNL     1       3.392   1.795  18.708  0.00  0.00    +0.000 C 
ATOM      5  N   UNL     1       3.903   2.807  19.657  0.00  0.00    +0.000 NA
ATOM      6  C   UNL     1       3.012   2.815  20.845  0.00  0.00    +0.000 C 
ATOM      7  C   UNL     1       1.542   3.046  20.457  0.00  0.00    +0.000 C 
ATOM      8  C   UNL     1       3.897   4.179  19.046  0.00  0.00    +0.000 C 
ENDROOT
BRANCH   1  11
ATOM      9  C   UNL     1       2.225   7.072  19.295  0.00  0.00    +0.000 C 
ATOM     10  O   UNL     1       3.039   7.431  18.450  0.00  0.00    +0.000 OA
ATOM     11  N   UNL     1       1.897   5.750  19.481  0.00  0.00    +0.000 N 
ATOM     12  H   UNL     1       1.102   5.598  20.093  0.00  0.00    +0.000 HD
BRANCH   9  19
ATOM     13  C   UNL     1      -1.277  13.022  21.884  0.00  0.00    +0.000 C 
ATOM     14  C   UNL     1      -0.680  11.641  21.867  0.00  0.00    +0.000 A 
ATOM     15  C   UNL     1      -0.748  10.829  23.009  0.00  0.00    +0.000 A 
ATOM     16  C   UNL     1      -0.197   9.537  23.020  0.00  0.00    +0.000 A 
ATOM     17  C   UNL     1       0.439   9.052  21.863  0.00  0.00    +0.000 A 
ATOM     18  C   UNL     1       1.093   7.848  21.489  0.00  0.00    +0.000 A 
ATOM     19  C   UNL     1       1.516   7.994  20.179  0.00  0.00    +0.000 A 
ATOM     20  O   UNL     1       1.149   9.244  19.722  0.00  0.00    +0.000 OA
ATOM     21  C   UNL     1       0.495   9.877  20.745  0.00  0.00    +0.000 A 
ATOM     22  C   UNL     1      -0.047  11.162  20.703  0.00  0.00    +0.000 A 
ENDBRANCH   9  19
ENDBRANCH   1  11
BRANCH   8  23
ATOM     23  C   UNL     1       4.796   4.329  17.775  0.00  0.00    +0.000 C 
BRANCH  23  24
ATOM     24  C   UNL     1       5.935   5.324  17.704  0.00  0.00    +0.000 A 
ATOM     25  C   UNL     1       6.892   5.330  18.730  0.00  0.00    +0.000 A 
ATOM     26  C   UNL     1       7.836   6.352  18.827  0.00  0.00    +0.000 A 
ATOM     27  C   UNL     1       7.804   7.349  17.877  0.00  0.00    +0.000 A 
ATOM     28  N   UNL     1       6.941   7.364  16.840  0.00  0.00    +0.000 NA
ATOM     29  C   UNL     1       6.031   6.356  16.776  0.00  0.00    +0.000 A 
ENDBRANCH  23  24
ENDBRANCH   8  23
TORSDOF 4
ENDMDL
MODEL 5
REMARK VINA RESULT:      -9.1      0.601      1.300
REMARK  Name = 
REMARK  5 active torsions:
REMARK  status: ('A' for Active; 'I' for Inactive)
REMARK    1  A    between atoms: C_1  and  C_2
REMARK    2  A    between atoms: C_7  and  C_8
REMARK    3  A    between atoms: N_10  and  C_11
REMARK    4  A    between atoms: C_18  and  C_19
REMARK    5  A    between atoms: C_19  and  C_20
REMARK                            x       y       z     vdW  Elec       q    Type
REMARK                         _______ _______ _______ _____ _____    ______ ____
ROOT
ATOM      1  C   UNL     1       3.043   4.753  18.444  0.00  0.00    +0.000 C 
ATOM      2  C   UNL     1       1.911   3.775  18.019  0.00  0.00    +0.000 C 
ATOM      3  C   UNL     1       2.510   2.465  17.480  0.00  0.00    +0.000 C 
ATOM      4  C   UNL     1       3.336   1.788  18.580  0.00  0.00    +0.000 C 
ATOM      5  N   UNL     1       3.440   2.641  19.782  0.00  0.00    +0.000 NA
ATOM      6  C   UNL     1       2.073   2.832  20.330  0.00  0.00    +0.000 C 
ATOM      7  C   UNL     1       1.106   3.396  19.276  0.00  0.00    +0.000 C 
ATOM      8  C   UNL     1       4.012   3.990  19.446  0.00  0.00    +0.000 C 
ENDROOT
BRANCH   1  11
ATOM      9  C   UNL     1       2.633   7.255  18.571  0.00  0.00    +0.000 C 
ATOM     10  O   UNL     1       3.436   7.524  17.683  0.00  0.00    +0.000 OA
ATOM     11  N   UNL     1       2.415   5.966  18.995  0.00  0.00    +0.000 N 
ATOM     12  H   UNL     1       1.620   5.857  19.616  0.00  0.00    +0.000 HD
BRANCH   9  19
ATOM     13  C   UNL     1      -1.544  13.173  19.949  0.00  0.00    +0.000 C 
ATOM     14  C   UNL     1      -0.785  11.900  20.207  0.00  0.00    +0.000 A 
ATOM     15  C   UNL     1      -0.749  11.348  21.495  0.00  0.00    +0.000 A 
ATOM     16  C   UNL     1      -0.048  10.161  21.763  0.00  0.00    +0.000 A 
ATOM     17  C   UNL     1       0.635   9.517  20.715  0.00  0.00    +0.000 A 
ATOM     18  C   UNL     1       1.427   8.345  20.584  0.00  0.00    +0.000 A 
ATOM     19  C   UNL     1       1.823   8.255  19.261  0.00  0.00    +0.000 A 
ATOM     20  O   UNL     1       1.306   9.328  18.562  0.00  0.00    +0.000 OA
ATOM     21  C   UNL     1       0.586  10.085  19.448  0.00  0.00    +0.000 A 
ATOM     22  C   UNL     1      -0.106  11.259  19.151  0.00  0.00    +0.000 A 
ENDBRANCH   9  19
ENDBRANCH   1  11
BRANCH   8  23
ATOM     23  C   UNL     1       5.458   3.953  18.853  0.00  0.00    +0.000 C 
BRANCH  23  24
ATOM     24  C   UNL     1       5.782   4.501  17.479  0.00  0.00    +0.000 A 
ATOM     25  C   UNL     1       5.438   3.742  16.351  0.00  0.00    +0.000 A 
ATOM     26  C   UNL     1       5.896   4.094  15.081  0.00  0.00    +0.000 A 
ATOM     27  C   UNL     1       6.687   5.216  14.971  0.00  0.00    +0.000 A 
ATOM     28  N   UNL     1       7.003   6.011  16.014  0.00  0.00    +0.000 NA
ATOM     29  C   UNL     1       6.545   5.639  17.239  0.00  0.00    +0.000 A 
ENDBRANCH  23  24
ENDBRANCH   8  23
TORSDOF 4
ENDMDL
MODEL 6
REMARK VINA RESULT:      -9.1      2.121      7.675
REMARK  Name = 
REMARK  5 active torsions:
REMARK  status: ('A' for Active; 'I' for Inactive)
REMARK    1  A    between atoms: C_1  and  C_2
REMARK    2  A    between atoms: C_7  and  C_8
REMARK    3  A    between atoms: N_10  and  C_11
REMARK    4  A    between atoms: C_18  and  C_19
REMARK    5  A    between atoms: C_19  and  C_20
REMARK                            x       y       z     vdW  Elec       q    Type
REMARK                         _______ _______ _______ _____ _____    ______ ____
ROOT
ATOM      1  C   UNL     1       3.493   4.233  19.735  0.00  0.00    +0.000 C 
ATOM      2  C   UNL     1       3.474   2.734  20.150  0.00  0.00    +0.000 C 
ATOM      3  C   UNL     1       2.694   2.553  21.463  0.00  0.00    +0.000 C 
ATOM      4  C   UNL     1       1.244   3.010  21.266  0.00  0.00    +0.000 C 
ATOM      5  N   UNL     1       1.046   3.620  19.934  0.00  0.00    +0.000 NA
ATOM      6  C   UNL     1       1.308   2.579  18.908  0.00  0.00    +0.000 C 
ATOM      7  C   UNL     1       2.700   1.947  19.077  0.00  0.00    +0.000 C 
ATOM      8  C   UNL     1       1.995   4.762  19.710  0.00  0.00    +0.000 C 
ENDROOT
BRANCH   1  11
ATOM      9  C   UNL     1       5.541   4.638  18.289  0.00  0.00    +0.000 C 
ATOM     10  O   UNL     1       6.274   4.890  19.239  0.00  0.00    +0.000 OA
ATOM     11  N   UNL     1       4.208   4.340  18.451  0.00  0.00    +0.000 N 
ATOM     12  H   UNL     1       3.750   3.997  17.614  0.00  0.00    +0.000 HD
BRANCH   9  19
ATOM     13  C   UNL     1       6.230   2.900  11.157  0.00  0.00    +0.000 C 
ATOM     14  C   UNL     1       6.482   3.610  12.459  0.00  0.00    +0.000 A 
ATOM     15  C   UNL     1       7.442   4.629  12.534  0.00  0.00    +0.000 A 
ATOM     16  C   UNL     1       7.697   5.307  13.737  0.00  0.00    +0.000 A 
ATOM     17  C   UNL     1       6.975   4.951  14.891  0.00  0.00    +0.000 A 
ATOM     18  C   UNL     1       6.941   5.381  16.244  0.00  0.00    +0.000 A 
ATOM     19  C   UNL     1       5.993   4.616  16.901  0.00  0.00    +0.000 A 
ATOM     20  O   UNL     1       5.433   3.725  16.006  0.00  0.00    +0.000 OA
ATOM     21  C   UNL     1       6.030   3.937  14.792  0.00  0.00    +0.000 A 
ATOM     22  C   UNL     1       5.752   3.249  13.610  0.00  0.00    +0.000 A 
ENDBRANCH   9  19
ENDBRANCH   1  11
BRANCH   8  23
ATOM     23  C   UNL     1       1.840   5.945  20.720  0.00  0.00    +0.000 C 
BRANCH  23  24
ATOM     24  C   UNL     1       1.719   7.385  20.267  0.00  0.00    +0.000 A 
ATOM     25  C   UNL     1       1.026   8.294  21.080  0.00  0.00    +0.000 A 
ATOM     26  C   UNL     1       0.705   9.570  20.619  0.00  0.00    +0.000 A 
ATOM     27  C   UNL     1       1.099   9.911  19.344  0.00  0.00    +0.000 A 
ATOM     28  N   UNL     1       1.813   9.096  18.541  0.00  0.00    +0.000 NA
ATOM     29  C   UNL     1       2.108   7.858  19.017  0.00  0.00    +0.000 A 
ENDBRANCH  23  24
ENDBRANCH   8  23
TORSDOF 4
ENDMDL
MODEL 7
REMARK VINA RESULT:      -8.9      1.413      4.018
REMARK  Name = 
REMARK  5 active torsions:
REMARK  status: ('A' for Active; 'I' for Inactive)
REMARK    1  A    between atoms: C_1  and  C_2
REMARK    2  A    between atoms: C_7  and  C_8
REMARK    3  A    between atoms: N_10  and  C_11
REMARK    4  A    between atoms: C_18  and  C_19
REMARK    5  A    between atoms: C_19  and  C_20
REMARK                            x       y       z     vdW  Elec       q    Type
REMARK                         _______ _______ _______ _____ _____    ______ ____
ROOT
ATOM      1  C   UNL     1       4.487   5.443  18.266  0.00  0.00    +0.000 C 
ATOM      2  C   UNL     1       5.897   6.044  17.999  0.00  0.00    +0.000 C 
ATOM      3  C   UNL     1       6.912   4.924  17.720  0.00  0.00    +0.000 C 
ATOM      4  C   UNL     1       6.484   4.142  16.473  0.00  0.00    +0.000 C 
ATOM      5  N   UNL     1       5.162   4.587  15.982  0.00  0.00    +0.000 NA
ATOM      6  C   UNL     1       5.279   6.010  15.575  0.00  0.00    +0.000 C 
ATOM      7  C   UNL     1       5.823   6.889  16.714  0.00  0.00    +0.000 C 
ATOM      8  C   UNL     1       4.117   4.481  17.057  0.00  0.00    +0.000 C 
ENDROOT
BRANCH   1  11
ATOM      9  C   UNL     1       2.673   6.693  19.530  0.00  0.00    +0.000 C 
ATOM     10  O   UNL     1       2.565   5.837  20.403  0.00  0.00    +0.000 OA
ATOM     11  N   UNL     1       3.549   6.558  18.478  0.00  0.00    +0.000 N 
ATOM     12  H   UNL     1       3.660   7.396  17.916  0.00  0.00    +0.000 HD
BRANCH   9  19
ATOM     13  C   UNL     1      -1.617  12.322  21.595  0.00  0.00    +0.000 C 
ATOM     14  C   UNL     1      -0.740  11.476  20.713  0.00  0.00    +0.000 A 
ATOM     15  C   UNL     1      -0.459  11.880  19.400  0.00  0.00    +0.000 A 
ATOM     16  C   UNL     1       0.355  11.108  18.555  0.00  0.00    +0.000 A 
ATOM     17  C   UNL     1       0.896   9.903  19.039  0.00  0.00    +0.000 A 
ATOM     18  C   UNL     1       1.734   8.881  18.518  0.00  0.00    +0.000 A 
ATOM     19  C   UNL     1       1.906   7.935  19.514  0.00  0.00    +0.000 A 
ATOM     20  O   UNL     1       1.207   8.330  20.637  0.00  0.00    +0.000 OA
ATOM     21  C   UNL     1       0.602   9.523  20.343  0.00  0.00    +0.000 A 
ATOM     22  C   UNL     1      -0.200  10.271  21.206  0.00  0.00    +0.000 A 
ENDBRANCH   9  19
ENDBRANCH   1  11
BRANCH   8  23
ATOM     23  C   UNL     1       3.880   3.031  17.592  0.00  0.00    +0.000 C 
BRANCH  23  24
ATOM     24  C   UNL     1       3.048   2.752  18.826  0.00  0.00    +0.000 A 
ATOM     25  C   UNL     1       1.653   2.872  18.742  0.00  0.00    +0.000 A 
ATOM     26  C   UNL     1       0.858   2.833  19.888  0.00  0.00    +0.000 A 
ATOM     27  C   UNL     1       1.487   2.664  21.101  0.00  0.00    +0.000 A 
ATOM     28  N   UNL     1       2.818   2.490  21.234  0.00  0.00    +0.000 NA
ATOM     29  C   UNL     1       3.566   2.536  20.100  0.00  0.00    +0.000 A 
ENDBRANCH  23  24
ENDBRANCH   8  23
TORSDOF 4
ENDMDL
MODEL 8
REMARK VINA RESULT:      -8.8      1.234      1.432
REMARK  Name = 
REMARK  5 active torsions:
REMARK  status: ('A' for Active; 'I' for Inactive)
REMARK    1  A    between atoms: C_1  and  C_2
REMARK    2  A    between atoms: C_7  and  C_8
REMARK    3  A    between atoms: N_10  and  C_11
REMARK    4  A    between atoms: C_18  and  C_19
REMARK    5  A    between atoms: C_19  and  C_20
REMARK                            x       y       z     vdW  Elec       q    Type
REMARK                         _______ _______ _______ _____ _____    ______ ____
ROOT
ATOM      1  C   UNL     1       2.848   4.853  18.526  0.00  0.00    +0.000 C 
ATOM      2  C   UNL     1       1.693   3.838  18.289  0.00  0.00    +0.000 C 
ATOM      3  C   UNL     1       2.260   2.469  17.877  0.00  0.00    +0.000 C 
ATOM      4  C   UNL     1       3.151   1.924  18.999  0.00  0.00    +0.000 C 
ATOM      5  N   UNL     1       3.325   2.915  20.082  0.00  0.00    +0.000 NA
ATOM      6  C   UNL     1       1.993   3.178  20.683  0.00  0.00    +0.000 C 
ATOM      7  C   UNL     1       0.965   3.618  19.628  0.00  0.00    +0.000 C 
ATOM      8  C   UNL     1       3.875   4.210  19.553  0.00  0.00    +0.000 C 
ENDROOT
BRANCH   1  11
ATOM      9  C   UNL     1       2.509   7.368  18.430  0.00  0.00    +0.000 C 
ATOM     10  O   UNL     1       3.323   7.535  17.527  0.00  0.00    +0.000 OA
ATOM     11  N   UNL     1       2.252   6.127  18.964  0.00  0.00    +0.000 N 
ATOM     12  H   UNL     1       1.451   6.096  19.586  0.00  0.00    +0.000 HD
BRANCH   9  19
ATOM     13  C   UNL     1      -1.418  11.390  23.201  0.00  0.00    +0.000 C 
ATOM     14  C   UNL     1      -0.714  11.019  21.925  0.00  0.00    +0.000 A 
ATOM     15  C   UNL     1      -0.708  11.905  20.838  0.00  0.00    +0.000 A 
ATOM     16  C   UNL     1      -0.059  11.583  19.635  0.00  0.00    +0.000 A 
ATOM     17  C   UNL     1       0.595  10.343  19.519  0.00  0.00    +0.000 A 
ATOM     18  C   UNL     1       1.336   9.673  18.510  0.00  0.00    +0.000 A 
ATOM     19  C   UNL     1       1.725   8.447  19.023  0.00  0.00    +0.000 A 
ATOM     20  O   UNL     1       1.253   8.329  20.316  0.00  0.00    +0.000 OA
ATOM     21  C   UNL     1       0.574   9.481  20.609  0.00  0.00    +0.000 A 
ATOM     22  C   UNL     1      -0.058   9.776  21.818  0.00  0.00    +0.000 A 
ENDBRANCH   9  19
ENDBRANCH   1  11
BRANCH   8  23
ATOM     23  C   UNL     1       5.284   4.093  18.884  0.00  0.00    +0.000 C 
BRANCH  23  24
ATOM     24  C   UNL     1       6.152   5.304  18.613  0.00  0.00    +0.000 A 
ATOM     25  C   UNL     1       5.953   6.026  17.427  0.00  0.00    +0.000 A 
ATOM     26  C   UNL     1       6.853   7.013  17.027  0.00  0.00    +0.000 A 
ATOM     27  C   UNL     1       7.936   7.263  17.840  0.00  0.00    +0.000 A 
ATOM     28  N   UNL     1       8.146   6.637  19.017  0.00  0.00    +0.000 NA
ATOM     29  C   UNL     1       7.253   5.677  19.377  0.00  0.00    +0.000 A 
ENDBRANCH  23  24
ENDBRANCH   8  23
TORSDOF 4
ENDMDL
MODEL 9
REMARK VINA RESULT:      -8.7      1.416      1.670
REMARK  Name = 
REMARK  5 active torsions:
REMARK  status: ('A' for Active; 'I' for Inactive)
REMARK    1  A    between atoms: C_1  and  C_2
REMARK    2  A    between atoms: C_7  and  C_8
REMARK    3  A    between atoms: N_10  and  C_11
REMARK    4  A    between atoms: C_18  and  C_19
REMARK    5  A    between atoms: C_19  and  C_20
REMARK                            x       y       z     vdW  Elec       q    Type
REMARK                         _______ _______ _______ _____ _____    ______ ____
ROOT
ATOM      1  C   UNL     1       3.155   5.016  18.024  0.00  0.00    +0.000 C 
ATOM      2  C   UNL     1       2.061   3.916  17.916  0.00  0.00    +0.000 C 
ATOM      3  C   UNL     1       2.710   2.525  17.812  0.00  0.00    +0.000 C 
ATOM      4  C   UNL     1       3.539   2.250  19.071  0.00  0.00    +0.000 C 
ATOM      5  N   UNL     1       3.597   3.436  19.951  0.00  0.00    +0.000 NA
ATOM      6  C   UNL     1       2.216   3.738  20.406  0.00  0.00    +0.000 C 
ATOM      7  C   UNL     1       1.249   3.916  19.224  0.00  0.00    +0.000 C 
ATOM      8  C   UNL     1       4.131   4.634  19.218  0.00  0.00    +0.000 C 
ENDROOT
BRANCH   1  11
ATOM      9  C   UNL     1       2.957   7.532  17.737  0.00  0.00    +0.000 C 
ATOM     10  O   UNL     1       4.055   7.649  17.202  0.00  0.00    +0.000 OA
ATOM     11  N   UNL     1       2.480   6.317  18.170  0.00  0.00    +0.000 N 
ATOM     12  H   UNL     1       1.504   6.325  18.448  0.00  0.00    +0.000 HD
BRANCH   9  19
ATOM     13  C   UNL     1      -3.138  11.672  17.995  0.00  0.00    +0.000 C 
ATOM     14  C   UNL     1      -1.695  11.287  18.171  0.00  0.00    +0.000 A 
ATOM     15  C   UNL     1      -0.785  12.194  18.735  0.00  0.00    +0.000 A 
ATOM     16  C   UNL     1       0.568  11.860  18.909  0.00  0.00    +0.000 A 
ATOM     17  C   UNL     1       1.018  10.590  18.505  0.00  0.00    +0.000 A 
ATOM     18  C   UNL     1       2.259   9.899  18.513  0.00  0.00    +0.000 A 
ATOM     19  C   UNL     1       2.043   8.648  17.962  0.00  0.00    +0.000 A 
ATOM     20  O   UNL     1       0.712   8.532  17.612  0.00  0.00    +0.000 OA
ATOM     21  C   UNL     1       0.098   9.709  17.947  0.00  0.00    +0.000 A 
ATOM     22  C   UNL     1      -1.252  10.012  17.766  0.00  0.00    +0.000 A 
ENDBRANCH   9  19
ENDBRANCH   1  11
BRANCH   8  23
ATOM     23  C   UNL     1       5.587   4.467  18.674  0.00  0.00    +0.000 C 
BRANCH  23  24
ATOM     24  C   UNL     1       5.940   4.711  17.222  0.00  0.00    +0.000 A 
ATOM     25  C   UNL     1       5.528   3.777  16.260  0.00  0.00    +0.000 A 
ATOM     26  C   UNL     1       5.999   3.839  14.949  0.00  0.00    +0.000 A 
ATOM     27  C   UNL     1       6.874   4.854  14.628  0.00  0.00    +0.000 A 
ATOM     28  N   UNL     1       7.260   5.809  15.498  0.00  0.00    +0.000 NA
ATOM     29  C   UNL     1       6.786   5.719  16.769  0.00  0.00    +0.000 A 
ENDBRANCH  23  24
ENDBRANCH   8  23
TORSDOF 4
ENDMDL
