MODEL 1
REMARK VINA RESULT:      -8.2      0.000      0.000
REMARK  Name = 
REMARK  6 active torsions:
REMARK  status: ('A' for Active; 'I' for Inactive)
REMARK    1  A    between atoms: C_1  and  O_2
REMARK    2  A    between atoms: O_2  and  C_3
REMARK    3  A    between atoms: C_11  and  O_12
REMARK    4  A    between atoms: C_11  and  C_13
REMARK    5  A    between atoms: C_14  and  C_15
REMARK    6  A    between atoms: C_19  and  C_20
REMARK                            x       y       z     vdW  Elec       q    Type
REMARK                         _______ _______ _______ _____ _____    ______ ____
ROOT
ATOM      1  C   UNL     1       1.951   4.674  20.874  0.00  0.00    +0.000 C 
ATOM      2  O   UNL     1       1.424   5.752  21.125  0.00  0.00    +0.000 OA
ATOM      3  N   UNL     1       2.151   4.218  19.596  0.00  0.00    +0.000 N 
ATOM      4  C   UNL     1       2.868   3.041  19.160  0.00  0.00    +0.000 C 
ATOM      5  C   UNL     1       2.146   2.693  17.856  0.00  0.00    +0.000 C 
ATOM      6  C   UNL     1       1.565   4.024  17.362  0.00  0.00    +0.000 C 
ATOM      7  C   UNL     1       1.964   5.045  18.431  0.00  0.00    +0.000 C 
ATOM      8  C   UNL     1       3.302   5.724  18.121  0.00  0.00    +0.000 C 
ATOM      9  C   UNL     1       4.539   4.783  18.201  0.00  0.00    +0.000 C 
ATOM     10  C   UNL     1       4.334   3.416  18.901  0.00  0.00    +0.000 C 
ENDROOT
BRANCH   1  12
ATOM     11  C   UNL     1       1.580   2.618  21.953  0.00  0.00    +0.000 C 
ATOM     12  O   UNL     1       2.384   3.792  21.813  0.00  0.00    +0.000 OA
ENDBRANCH   1  12
BRANCH   9  13
ATOM     13  O   UNL     1       5.524   5.475  18.999  0.00  0.00    +0.000 OA
ATOM     14  H   UNL     1       5.256   6.409  19.043  0.00  0.00    +0.000 HD
ENDBRANCH   9  13
BRANCH   9  15
ATOM     15  C   UNL     1       5.192   4.642  16.836  0.00  0.00    +0.000 C 
ATOM     16  C   UNL     1       5.752   4.521  15.665  0.00  0.00    +0.000 C 
BRANCH  16  17
ATOM     17  C   UNL     1       6.310   4.390  14.355  0.00  0.00    +0.000 A 
ATOM     18  C   UNL     1       7.321   5.254  13.936  0.00  0.00    +0.000 A 
ATOM     19  C   UNL     1       7.843   5.143  12.647  0.00  0.00    +0.000 A 
ATOM     20  C   UNL     1       7.350   4.172  11.774  0.00  0.00    +0.000 A 
ATOM     21  C   UNL     1       6.333   3.302  12.181  0.00  0.00    +0.000 A 
ATOM     22  C   UNL     1       5.796   2.250  11.256  0.00  0.00    +0.000 C 
ATOM     23  C   UNL     1       5.820   3.414  13.483  0.00  0.00    +0.000 A 
ENDBRANCH  16  17
ENDBRANCH   9  15
TORSDOF 4
ENDMDL
MODEL 2
REMARK VINA RESULT:      -8.1      8.358     10.415
REMARK  Name = 
REMARK  6 active torsions:
REMARK  status: ('A' for Active; 'I' for Inactive)
REMARK    1  A    between atoms: C_1  and  O_2
REMARK    2  A    between atoms: O_2  and  C_3
REMARK    3  A    between atoms: C_11  and  O_12
REMARK    4  A    between atoms: C_11  and  C_13
REMARK    5  A    between atoms: C_14  and  C_15
REMARK    6  A    between atoms: C_19  and  C_20
REMARK                            x       y       z     vdW  Elec       q    Type
REMARK                         _______ _______ _______ _____ _____    ______ ____
ROOT
ATOM      1  C   UNL     1      10.977  15.097  18.867  0.00  0.00    +0.000 C 
ATOM      2  O   UNL     1      10.362  15.867  19.596  0.00  0.00    +0.000 OA
ATOM      3  N   UNL     1      11.052  13.747  19.096  0.00  0.00    +0.000 N 
ATOM      4  C   UNL     1      11.626  12.720  18.257  0.00  0.00    +0.000 C 
ATOM      5  C   UNL     1      12.062  11.673  19.286  0.00  0.00    +0.000 C 
ATOM      6  C   UNL     1      11.132  11.894  20.487  0.00  0.00    +0.000 C 
ATOM      7  C   UNL     1      10.244  13.073  20.082  0.00  0.00    +0.000 C 
ATOM      8  C   UNL     1       8.950  12.623  19.396  0.00  0.00    +0.000 C 
ATOM      9  C   UNL     1       9.152  11.972  17.997  0.00  0.00    +0.000 C 
ATOM     10  C   UNL     1      10.537  12.166  17.328  0.00  0.00    +0.000 C 
ENDROOT
BRANCH   1  12
ATOM     11  C   UNL     1      10.911  16.197  16.789  0.00  0.00    +0.000 C 
ATOM     12  O   UNL     1      11.672  15.475  17.762  0.00  0.00    +0.000 OA
ENDBRANCH   1  12
BRANCH   9  13
ATOM     13  O   UNL     1       8.209  12.612  17.110  0.00  0.00    +0.000 OA
ATOM     14  H   UNL     1       7.813  11.915  16.558  0.00  0.00    +0.000 HD
ENDBRANCH   9  13
BRANCH   9  15
ATOM     15  C   UNL     1       8.719  10.515  18.019  0.00  0.00    +0.000 C 
ATOM     16  C   UNL     1       8.348   9.265  18.038  0.00  0.00    +0.000 C 
BRANCH  16  17
ATOM     17  C   UNL     1       7.891   7.911  18.025  0.00  0.00    +0.000 A 
ATOM     18  C   UNL     1       8.322   7.018  19.006  0.00  0.00    +0.000 A 
ATOM     19  C   UNL     1       7.899   5.689  18.974  0.00  0.00    +0.000 A 
ATOM     20  C   UNL     1       7.049   5.250  17.958  0.00  0.00    +0.000 A 
ATOM     21  C   UNL     1       6.613   6.135  16.966  0.00  0.00    +0.000 A 
ATOM     22  C   UNL     1       5.695   5.679  15.870  0.00  0.00    +0.000 C 
ATOM     23  C   UNL     1       7.035   7.473  17.011  0.00  0.00    +0.000 A 
ENDBRANCH  16  17
ENDBRANCH   9  15
TORSDOF 4
ENDMDL
MODEL 3
REMARK VINA RESULT:      -7.6      0.635      1.594
REMARK  Name = 
REMARK  6 active torsions:
REMARK  status: ('A' for Active; 'I' for Inactive)
REMARK    1  A    between atoms: C_1  and  O_2
REMARK    2  A    between atoms: O_2  and  C_3
REMARK    3  A    between atoms: C_11  and  O_12
REMARK    4  A    between atoms: C_11  and  C_13
REMARK    5  A    between atoms: C_14  and  C_15
REMARK    6  A    between atoms: C_19  and  C_20
REMARK                            x       y       z     vdW  Elec       q    Type
REMARK                         _______ _______ _______ _____ _____    ______ ____
ROOT
ATOM      1  C   UNL     1       2.246   4.128  21.143  0.00  0.00    +0.000 C 
ATOM      2  O   UNL     1       2.051   5.222  21.661  0.00  0.00    +0.000 OA
ATOM      3  N   UNL     1       2.264   3.936  19.785  0.00  0.00    +0.000 N 
ATOM      4  C   UNL     1       2.606   2.741  19.048  0.00  0.00    +0.000 C 
ATOM      5  C   UNL     1       1.769   2.899  17.776  0.00  0.00    +0.000 C 
ATOM      6  C   UNL     1       1.566   4.413  17.626  0.00  0.00    +0.000 C 
ATOM      7  C   UNL     1       2.274   5.023  18.839  0.00  0.00    +0.000 C 
ATOM      8  C   UNL     1       3.736   5.375  18.548  0.00  0.00    +0.000 C 
ATOM      9  C   UNL     1       4.662   4.147  18.312  0.00  0.00    +0.000 C 
ATOM     10  C   UNL     1       4.109   2.762  18.731  0.00  0.00    +0.000 C 
ENDROOT
BRANCH   1  12
ATOM     11  C   UNL     1       1.256   2.282  22.212  0.00  0.00    +0.000 C 
ATOM     12  O   UNL     1       2.448   2.976  21.833  0.00  0.00    +0.000 OA
ENDBRANCH   1  12
BRANCH   9  13
ATOM     13  O   UNL     1       5.830   4.355  19.136  0.00  0.00    +0.000 OA
ATOM     14  H   UNL     1       6.538   3.788  18.783  0.00  0.00    +0.000 HD
ENDBRANCH   9  13
BRANCH   9  15
ATOM     15  C   UNL     1       5.200   4.150  16.890  0.00  0.00    +0.000 C 
ATOM     16  C   UNL     1       5.661   4.152  15.671  0.00  0.00    +0.000 C 
BRANCH  16  17
ATOM     17  C   UNL     1       6.191   4.210  14.345  0.00  0.00    +0.000 A 
ATOM     18  C   UNL     1       5.711   3.346  13.361  0.00  0.00    +0.000 A 
ATOM     19  C   UNL     1       6.251   3.384  12.075  0.00  0.00    +0.000 A 
ATOM     20  C   UNL     1       7.276   4.281  11.773  0.00  0.00    +0.000 A 
ATOM     21  C   UNL     1       7.770   5.150  12.752  0.00  0.00    +0.000 A 
ATOM     22  C   UNL     1       8.868   6.124  12.442  0.00  0.00    +0.000 C 
ATOM     23  C   UNL     1       7.214   5.113  14.041  0.00  0.00    +0.000 A 
ENDBRANCH  16  17
ENDBRANCH   9  15
TORSDOF 4
ENDMDL
MODEL 4
REMARK VINA RESULT:      -7.6      0.895      1.103
REMARK  Name = 
REMARK  6 active torsions:
REMARK  status: ('A' for Active; 'I' for Inactive)
REMARK    1  A    between atoms: C_1  and  O_2
REMARK    2  A    between atoms: O_2  and  C_3
REMARK    3  A    between atoms: C_11  and  O_12
REMARK    4  A    between atoms: C_11  and  C_13
REMARK    5  A    between atoms: C_14  and  C_15
REMARK    6  A    between atoms: C_19  and  C_20
REMARK                            x       y       z     vdW  Elec       q    Type
REMARK                         _______ _______ _______ _____ _____    ______ ____
ROOT
ATOM      1  C   UNL     1       1.976   4.295  21.041  0.00  0.00    +0.000 C 
ATOM      2  O   UNL     1       2.304   5.127  21.879  0.00  0.00    +0.000 OA
ATOM      3  N   UNL     1       2.068   4.517  19.691  0.00  0.00    +0.000 N 
ATOM      4  C   UNL     1       1.842   3.588  18.607  0.00  0.00    +0.000 C 
ATOM      5  C   UNL     1       1.377   4.518  17.482  0.00  0.00    +0.000 C 
ATOM      6  C   UNL     1       1.999   5.880  17.816  0.00  0.00    +0.000 C 
ATOM      7  C   UNL     1       2.755   5.652  19.128  0.00  0.00    +0.000 C 
ATOM      8  C   UNL     1       4.215   5.246  18.898  0.00  0.00    +0.000 C 
ATOM      9  C   UNL     1       4.403   3.841  18.256  0.00  0.00    +0.000 C 
ATOM     10  C   UNL     1       3.169   2.904  18.249  0.00  0.00    +0.000 C 
ENDROOT
BRANCH   1  12
ATOM     11  C   UNL     1       2.430   2.108  21.776  0.00  0.00    +0.000 C 
ATOM     12  O   UNL     1       1.468   3.069  21.332  0.00  0.00    +0.000 OA
ENDBRANCH   1  12
BRANCH   9  13
ATOM     13  O   UNL     1       5.394   3.159  19.054  0.00  0.00    +0.000 OA
ATOM     14  H   UNL     1       4.962   2.889  19.883  0.00  0.00    +0.000 HD
ENDBRANCH   9  13
BRANCH   9  15
ATOM     15  C   UNL     1       5.045   3.964  16.883  0.00  0.00    +0.000 C 
ATOM     16  C   UNL     1       5.595   4.069  15.706  0.00  0.00    +0.000 C 
BRANCH  16  17
ATOM     17  C   UNL     1       6.214   4.125  14.419  0.00  0.00    +0.000 A 
ATOM     18  C   UNL     1       7.157   5.114  14.139  0.00  0.00    +0.000 A 
ATOM     19  C   UNL     1       7.737   5.185  12.872  0.00  0.00    +0.000 A 
ATOM     20  C   UNL     1       7.372   4.271  11.883  0.00  0.00    +0.000 A 
ATOM     21  C   UNL     1       6.425   3.276  12.151  0.00  0.00    +0.000 A 
ATOM     22  C   UNL     1       6.026   2.283  11.099  0.00  0.00    +0.000 C 
ATOM     23  C   UNL     1       5.853   3.206  13.431  0.00  0.00    +0.000 A 
ENDBRANCH  16  17
ENDBRANCH   9  15
TORSDOF 4
ENDMDL
MODEL 5
REMARK VINA RESULT:      -7.3      1.321      2.448
REMARK  Name = 
REMARK  6 active torsions:
REMARK  status: ('A' for Active; 'I' for Inactive)
REMARK    1  A    between atoms: C_1  and  O_2
REMARK    2  A    between atoms: O_2  and  C_3
REMARK    3  A    between atoms: C_11  and  O_12
REMARK    4  A    between atoms: C_11  and  C_13
REMARK    5  A    between atoms: C_14  and  C_15
REMARK    6  A    between atoms: C_19  and  C_20
REMARK                            x       y       z     vdW  Elec       q    Type
REMARK                         _______ _______ _______ _____ _____    ______ ____
ROOT
ATOM      1  C   UNL     1       2.030   4.254  20.799  0.00  0.00    +0.000 C 
ATOM      2  O   UNL     1       2.675   4.127  21.833  0.00  0.00    +0.000 OA
ATOM      3  N   UNL     1       2.512   4.903  19.691  0.00  0.00    +0.000 N 
ATOM      4  C   UNL     1       1.917   5.011  18.378  0.00  0.00    +0.000 C 
ATOM      5  C   UNL     1       2.469   6.351  17.886  0.00  0.00    +0.000 C 
ATOM      6  C   UNL     1       3.787   6.537  18.651  0.00  0.00    +0.000 C 
ATOM      7  C   UNL     1       3.890   5.306  19.556  0.00  0.00    +0.000 C 
ATOM      8  C   UNL     1       4.650   4.154  18.892  0.00  0.00    +0.000 C 
ATOM      9  C   UNL     1       3.918   3.510  17.678  0.00  0.00    +0.000 C 
ATOM     10  C   UNL     1       2.417   3.850  17.506  0.00  0.00    +0.000 C 
ENDROOT
BRANCH   1  12
ATOM     11  C   UNL     1       0.677   2.443  20.151  0.00  0.00    +0.000 C 
ATOM     12  O   UNL     1       0.765   3.792  20.620  0.00  0.00    +0.000 OA
ENDBRANCH   1  12
BRANCH   9  13
ATOM     13  O   UNL     1       3.963   2.082  17.888  0.00  0.00    +0.000 OA
ATOM     14  H   UNL     1       3.148   1.833  18.358  0.00  0.00    +0.000 HD
ENDBRANCH   9  13
BRANCH   9  15
ATOM     15  C   UNL     1       4.712   3.728  16.400  0.00  0.00    +0.000 C 
ATOM     16  C   UNL     1       5.392   3.915  15.304  0.00  0.00    +0.000 C 
BRANCH  16  17
ATOM     17  C   UNL     1       6.089   4.100  14.070  0.00  0.00    +0.000 A 
ATOM     18  C   UNL     1       5.731   3.355  12.945  0.00  0.00    +0.000 A 
ATOM     19  C   UNL     1       6.432   3.516  11.750  0.00  0.00    +0.000 A 
ATOM     20  C   UNL     1       7.496   4.417  11.679  0.00  0.00    +0.000 A 
ATOM     21  C   UNL     1       7.867   5.166  12.801  0.00  0.00    +0.000 A 
ATOM     22  C   UNL     1       9.006   6.141  12.738  0.00  0.00    +0.000 C 
ATOM     23  C   UNL     1       7.150   5.006  13.997  0.00  0.00    +0.000 A 
ENDBRANCH  16  17
ENDBRANCH   9  15
TORSDOF 4
ENDMDL
MODEL 6
REMARK VINA RESULT:      -7.1      1.242      1.872
REMARK  Name = 
REMARK  6 active torsions:
REMARK  status: ('A' for Active; 'I' for Inactive)
REMARK    1  A    between atoms: C_1  and  O_2
REMARK    2  A    between atoms: O_2  and  C_3
REMARK    3  A    between atoms: C_11  and  O_12
REMARK    4  A    between atoms: C_11  and  C_13
REMARK    5  A    between atoms: C_14  and  C_15
REMARK    6  A    between atoms: C_19  and  C_20
REMARK                            x       y       z     vdW  Elec       q    Type
REMARK                         _______ _______ _______ _____ _____    ______ ____
ROOT
ATOM      1  C   UNL     1       1.998   4.435  20.800  0.00  0.00    +0.000 C 
ATOM      2  O   UNL     1       2.616   4.419  21.859  0.00  0.00    +0.000 OA
ATOM      3  N   UNL     1       2.478   5.031  19.663  0.00  0.00    +0.000 N 
ATOM      4  C   UNL     1       1.920   5.012  18.330  0.00  0.00    +0.000 C 
ATOM      5  C   UNL     1       2.412   6.345  17.758  0.00  0.00    +0.000 C 
ATOM      6  C   UNL     1       3.691   6.661  18.544  0.00  0.00    +0.000 C 
ATOM      7  C   UNL     1       3.834   5.504  19.538  0.00  0.00    +0.000 C 
ATOM      8  C   UNL     1       4.680   4.355  18.980  0.00  0.00    +0.000 C 
ATOM      9  C   UNL     1       4.025   3.586  17.796  0.00  0.00    +0.000 C 
ATOM     10  C   UNL     1       2.513   3.824  17.557  0.00  0.00    +0.000 C 
ENDROOT
BRANCH   1  12
ATOM     11  C   UNL     1       0.768   2.487  20.326  0.00  0.00    +0.000 C 
ATOM     12  O   UNL     1       0.768   3.888  20.619  0.00  0.00    +0.000 OA
ENDBRANCH   1  12
BRANCH   9  13
ATOM     13  O   UNL     1       4.144   2.181  18.109  0.00  0.00    +0.000 OA
ATOM     14  H   UNL     1       4.634   2.112  18.947  0.00  0.00    +0.000 HD
ENDBRANCH   9  13
BRANCH   9  15
ATOM     15  C   UNL     1       4.846   3.759  16.528  0.00  0.00    +0.000 C 
ATOM     16  C   UNL     1       5.549   3.908  15.441  0.00  0.00    +0.000 C 
BRANCH  16  17
ATOM     17  C   UNL     1       6.269   4.063  14.216  0.00  0.00    +0.000 A 
ATOM     18  C   UNL     1       7.088   5.176  14.021  0.00  0.00    +0.000 A 
ATOM     19  C   UNL     1       7.765   5.340  12.813  0.00  0.00    +0.000 A 
ATOM     20  C   UNL     1       7.622   4.395  11.796  0.00  0.00    +0.000 A 
ATOM     21  C   UNL     1       6.800   3.277  11.977  0.00  0.00    +0.000 A 
ATOM     22  C   UNL     1       6.639   2.250  10.895  0.00  0.00    +0.000 C 
ATOM     23  C   UNL     1       6.129   3.114  13.199  0.00  0.00    +0.000 A 
ENDBRANCH  16  17
ENDBRANCH   9  15
TORSDOF 4
ENDMDL
MODEL 7
REMARK VINA RESULT:      -7.0      3.614      7.925
REMARK  Name = 
REMARK  6 active torsions:
REMARK  status: ('A' for Active; 'I' for Inactive)
REMARK    1  A    between atoms: C_1  and  O_2
REMARK    2  A    between atoms: O_2  and  C_3
REMARK    3  A    between atoms: C_11  and  O_12
REMARK    4  A    between atoms: C_11  and  C_13
REMARK    5  A    between atoms: C_14  and  C_15
REMARK    6  A    between atoms: C_19  and  C_20
REMARK                            x       y       z     vdW  Elec       q    Type
REMARK                         _______ _______ _______ _____ _____    ______ ____
ROOT
ATOM      1  C   UNL     1       6.762   4.147  16.395  0.00  0.00    +0.000 C 
ATOM      2  O   UNL     1       7.911   4.573  16.391  0.00  0.00    +0.000 OA
ATOM      3  N   UNL     1       5.862   4.428  17.391  0.00  0.00    +0.000 N 
ATOM      4  C   UNL     1       4.456   4.103  17.455  0.00  0.00    +0.000 C 
ATOM      5  C   UNL     1       4.222   3.989  18.964  0.00  0.00    +0.000 C 
ATOM      6  C   UNL     1       5.302   4.878  19.596  0.00  0.00    +0.000 C 
ATOM      7  C   UNL     1       6.105   5.419  18.410  0.00  0.00    +0.000 C 
ATOM      8  C   UNL     1       5.563   6.757  17.898  0.00  0.00    +0.000 C 
ATOM      9  C   UNL     1       4.159   6.674  17.231  0.00  0.00    +0.000 C 
ATOM     10  C   UNL     1       3.647   5.261  16.853  0.00  0.00    +0.000 C 
ENDROOT
BRANCH   1  12
ATOM     11  C   UNL     1       6.157   3.919  14.134  0.00  0.00    +0.000 C 
ATOM     12  O   UNL     1       6.239   3.337  15.438  0.00  0.00    +0.000 OA
ENDBRANCH   1  12
BRANCH   9  13
ATOM     13  O   UNL     1       4.262   7.388  15.979  0.00  0.00    +0.000 OA
ATOM     14  H   UNL     1       4.581   6.756  15.311  0.00  0.00    +0.000 HD
ENDBRANCH   9  13
BRANCH   9  15
ATOM     15  C   UNL     1       3.139   7.465  18.033  0.00  0.00    +0.000 C 
ATOM     16  C   UNL     1       2.264   8.143  18.721  0.00  0.00    +0.000 C 
BRANCH  16  17
ATOM     17  C   UNL     1       1.337   8.939  19.462  0.00  0.00    +0.000 A 
ATOM     18  C   UNL     1       0.548   9.886  18.808  0.00  0.00    +0.000 A 
ATOM     19  C   UNL     1      -0.335  10.682  19.538  0.00  0.00    +0.000 A 
ATOM     20  C   UNL     1      -0.427  10.537  20.923  0.00  0.00    +0.000 A 
ATOM     21  C   UNL     1       0.362   9.594  21.591  0.00  0.00    +0.000 A 
ATOM     22  C   UNL     1       0.272   9.423  23.079  0.00  0.00    +0.000 C 
ATOM     23  C   UNL     1       1.241   8.789  20.849  0.00  0.00    +0.000 A 
ENDBRANCH  16  17
ENDBRANCH   9  15
TORSDOF 4
ENDMDL
MODEL 8
REMARK VINA RESULT:      -7.0      3.968      8.110
REMARK  Name = 
REMARK  6 active torsions:
REMARK  status: ('A' for Active; 'I' for Inactive)
REMARK    1  A    between atoms: C_1  and  O_2
REMARK    2  A    between atoms: O_2  and  C_3
REMARK    3  A    between atoms: C_11  and  O_12
REMARK    4  A    between atoms: C_11  and  C_13
REMARK    5  A    between atoms: C_14  and  C_15
REMARK    6  A    between atoms: C_19  and  C_20
REMARK                            x       y       z     vdW  Elec       q    Type
REMARK                         _______ _______ _______ _____ _____    ______ ____
ROOT
ATOM      1  C   UNL     1       3.762   2.135  18.942  0.00  0.00    +0.000 C 
ATOM      2  O   UNL     1       4.635   1.671  19.666  0.00  0.00    +0.000 OA
ATOM      3  N   UNL     1       2.672   2.813  19.423  0.00  0.00    +0.000 N 
ATOM      4  C   UNL     1       1.648   3.516  18.684  0.00  0.00    +0.000 C 
ATOM      5  C   UNL     1       0.438   3.390  19.615  0.00  0.00    +0.000 C 
ATOM      6  C   UNL     1       1.039   3.224  21.017  0.00  0.00    +0.000 C 
ATOM      7  C   UNL     1       2.554   3.234  20.797  0.00  0.00    +0.000 C 
ATOM      8  C   UNL     1       3.152   4.640  20.907  0.00  0.00    +0.000 C 
ATOM      9  C   UNL     1       2.729   5.614  19.769  0.00  0.00    +0.000 C 
ATOM     10  C   UNL     1       2.070   4.983  18.517  0.00  0.00    +0.000 C 
ENDROOT
BRANCH   1  12
ATOM     11  C   UNL     1       4.530   3.005  16.896  0.00  0.00    +0.000 C 
ATOM     12  O   UNL     1       3.748   2.026  17.588  0.00  0.00    +0.000 OA
ENDBRANCH   1  12
BRANCH   9  13
ATOM     13  O   UNL     1       3.944   6.230  19.290  0.00  0.00    +0.000 OA
ATOM     14  H   UNL     1       3.824   7.194  19.354  0.00  0.00    +0.000 HD
ENDBRANCH   9  13
BRANCH   9  15
ATOM     15  C   UNL     1       1.917   6.770  20.331  0.00  0.00    +0.000 C 
ATOM     16  C   UNL     1       1.221   7.761  20.812  0.00  0.00    +0.000 C 
BRANCH  16  17
ATOM     17  C   UNL     1       0.492   8.887  21.306  0.00  0.00    +0.000 A 
ATOM     18  C   UNL     1       0.170   8.971  22.661  0.00  0.00    +0.000 A 
ATOM     19  C   UNL     1      -0.568  10.056  23.136  0.00  0.00    +0.000 A 
ATOM     20  C   UNL     1      -0.989  11.054  22.257  0.00  0.00    +0.000 A 
ATOM     21  C   UNL     1      -0.677  10.979  20.895  0.00  0.00    +0.000 A 
ATOM     22  C   UNL     1      -1.119  12.046  19.939  0.00  0.00    +0.000 C 
ATOM     23  C   UNL     1       0.074   9.889  20.427  0.00  0.00    +0.000 A 
ENDBRANCH  16  17
ENDBRANCH   9  15
TORSDOF 4
ENDMDL
MODEL 9
REMARK VINA RESULT:      -7.0      3.651      7.939
REMARK  Name = 
REMARK  6 active torsions:
REMARK  status: ('A' for Active; 'I' for Inactive)
REMARK    1  A    between atoms: C_1  and  O_2
REMARK    2  A    between atoms: O_2  and  C_3
REMARK    3  A    between atoms: C_11  and  O_12
REMARK    4  A    between atoms: C_11  and  C_13
REMARK    5  A    between atoms: C_14  and  C_15
REMARK    6  A    between atoms: C_19  and  C_20
REMARK                            x       y       z     vdW  Elec       q    Type
REMARK                         _______ _______ _______ _____ _____    ______ ____
ROOT
ATOM      1  C   UNL     1       6.766   4.200  16.130  0.00  0.00    +0.000 C 
ATOM      2  O   UNL     1       7.887   4.685  16.032  0.00  0.00    +0.000 OA
ATOM      3  N   UNL     1       5.947   4.419  17.208  0.00  0.00    +0.000 N 
ATOM      4  C   UNL     1       4.569   4.021  17.390  0.00  0.00    +0.000 C 
ATOM      5  C   UNL     1       4.479   3.872  18.911  0.00  0.00    +0.000 C 
ATOM      6  C   UNL     1       5.566   4.805  19.462  0.00  0.00    +0.000 C 
ATOM      7  C   UNL     1       6.231   5.405  18.220  0.00  0.00    +0.000 C 
ATOM      8  C   UNL     1       5.579   6.721  17.786  0.00  0.00    +0.000 C 
ATOM      9  C   UNL     1       4.127   6.577  17.245  0.00  0.00    +0.000 C 
ATOM     10  C   UNL     1       3.653   5.146  16.886  0.00  0.00    +0.000 C 
ENDROOT
BRANCH   1  12
ATOM     11  C   UNL     1       6.083   3.937  13.895  0.00  0.00    +0.000 C 
ATOM     12  O   UNL     1       6.199   3.379  15.207  0.00  0.00    +0.000 OA
ENDBRANCH   1  12
BRANCH   9  13
ATOM     13  O   UNL     1       4.081   7.315  16.004  0.00  0.00    +0.000 OA
ATOM     14  H   UNL     1       3.869   8.238  16.225  0.00  0.00    +0.000 HD
ENDBRANCH   9  13
BRANCH   9  15
ATOM     15  C   UNL     1       3.145   7.302  18.151  0.00  0.00    +0.000 C 
ATOM     16  C   UNL     1       2.303   7.924  18.928  0.00  0.00    +0.000 C 
BRANCH  16  17
ATOM     17  C   UNL     1       1.426   8.642  19.798  0.00  0.00    +0.000 A 
ATOM     18  C   UNL     1       1.276   8.240  21.126  0.00  0.00    +0.000 A 
ATOM     19  C   UNL     1       0.396   8.924  21.966  0.00  0.00    +0.000 A 
ATOM     20  C   UNL     1      -0.337  10.006  21.479  0.00  0.00    +0.000 A 
ATOM     21  C   UNL     1      -0.199  10.416  20.148  0.00  0.00    +0.000 A 
ATOM     22  C   UNL     1      -0.977  11.580  19.611  0.00  0.00    +0.000 C 
ATOM     23  C   UNL     1       0.695   9.729  19.312  0.00  0.00    +0.000 A 
ENDBRANCH  16  17
ENDBRANCH   9  15
TORSDOF 4
ENDMDL
