MODEL 1
REMARK VINA RESULT:      -7.4      0.000      0.000
REMARK  Name = 
REMARK  3 active torsions:
REMARK  status: ('A' for Active; 'I' for Inactive)
REMARK    1  A    between atoms: N_11  and  C_12
REMARK    2  A    between atoms: C_12  and  C_13
REMARK    3  A    between atoms: C_13  and  C_14
REMARK                            x       y       z     vdW  Elec       q    Type
REMARK                         _______ _______ _______ _____ _____    ______ ____
ROOT
ATOM      1  O   UNL     1       3.758   6.867  17.309  0.00  0.00    +0.000 OA
ATOM      2  C   UNL     1       3.435   5.817  17.832  0.00  0.00    +0.000 C 
ATOM      3  C   UNL     1       2.483   5.923  19.022  0.00  0.00    +0.000 C 
ATOM      4  N   UNL     1       1.931   4.611  19.400  0.00  0.00    +0.000 NA
ATOM      5  C   UNL     1       1.459   4.543  20.785  0.00  0.00    +0.000 C 
ATOM      6  C   UNL     1       1.302   3.043  21.033  0.00  0.00    +0.000 C 
ATOM      7  C   UNL     1       2.336   2.395  20.093  0.00  0.00    +0.000 C 
ATOM      8  C   UNL     1       2.972   3.604  19.418  0.00  0.00    +0.000 C 
ATOM      9  C   UNL     1       3.559   3.455  18.049  0.00  0.00    +0.000 C 
ATOM     10  O   UNL     1       3.781   2.338  17.595  0.00  0.00    +0.000 OA
ATOM     11  N   UNL     1       3.892   4.594  17.351  0.00  0.00    +0.000 N 
ENDROOT
BRANCH  11  12
ATOM     12  C   UNL     1       4.692   4.456  16.115  0.00  0.00    +0.000 C 
BRANCH  12  13
ATOM     13  C   UNL     1       6.197   4.156  16.318  0.00  0.00    +0.000 C 
BRANCH  13  14
ATOM     14  C   UNL     1       6.881   5.218  17.147  0.00  0.00    +0.000 A 
ATOM     15  C   UNL     1       7.420   4.899  18.409  0.00  0.00    +0.000 A 
ATOM     16  C   UNL     1       8.054   5.880  19.175  0.00  0.00    +0.000 A 
ATOM     17  C   UNL     1       8.160   7.186  18.692  0.00  0.00    +0.000 A 
ATOM     18  C   UNL     1       7.636   7.513  17.438  0.00  0.00    +0.000 A 
ATOM     19  C   UNL     1       7.001   6.534  16.667  0.00  0.00    +0.000 A 
ENDBRANCH  13  14
ENDBRANCH  12  13
ENDBRANCH  11  12
TORSDOF 3
ENDMDL
MODEL 2
REMARK VINA RESULT:      -7.3      0.068      1.114
REMARK  Name = 
REMARK  3 active torsions:
REMARK  status: ('A' for Active; 'I' for Inactive)
REMARK    1  A    between atoms: N_11  and  C_12
REMARK    2  A    between atoms: C_12  and  C_13
REMARK    3  A    between atoms: C_13  and  C_14
REMARK                            x       y       z     vdW  Elec       q    Type
REMARK                         _______ _______ _______ _____ _____    ______ ____
ROOT
ATOM      1  O   UNL     1       3.828   6.907  17.319  0.00  0.00    +0.000 OA
ATOM      2  C   UNL     1       3.473   5.855  17.816  0.00  0.00    +0.000 C 
ATOM      3  C   UNL     1       2.515   5.958  19.001  0.00  0.00    +0.000 C 
ATOM      4  N   UNL     1       1.925   4.653  19.344  0.00  0.00    +0.000 NA
ATOM      5  C   UNL     1       1.440   4.566  20.723  0.00  0.00    +0.000 C 
ATOM      6  C   UNL     1       1.241   3.066  20.935  0.00  0.00    +0.000 C 
ATOM      7  C   UNL     1       2.266   2.413  19.989  0.00  0.00    +0.000 C 
ATOM      8  C   UNL     1       2.939   3.619  19.347  0.00  0.00    +0.000 C 
ATOM      9  C   UNL     1       3.533   3.485  17.979  0.00  0.00    +0.000 C 
ATOM     10  O   UNL     1       3.730   2.374  17.501  0.00  0.00    +0.000 OA
ATOM     11  N   UNL     1       3.902   4.630  17.310  0.00  0.00    +0.000 N 
ENDROOT
BRANCH  11  12
ATOM     12  C   UNL     1       4.708   4.500  16.078  0.00  0.00    +0.000 C 
BRANCH  12  13
ATOM     13  C   UNL     1       6.210   4.183  16.287  0.00  0.00    +0.000 C 
BRANCH  13  14
ATOM     14  C   UNL     1       6.897   5.228  17.134  0.00  0.00    +0.000 A 
ATOM     15  C   UNL     1       7.013   6.554  16.674  0.00  0.00    +0.000 A 
ATOM     16  C   UNL     1       7.648   7.521  17.457  0.00  0.00    +0.000 A 
ATOM     17  C   UNL     1       8.169   7.178  18.707  0.00  0.00    +0.000 A 
ATOM     18  C   UNL     1       8.053   5.867  19.177  0.00  0.00    +0.000 A 
ATOM     19  C   UNL     1       7.419   4.896  18.397  0.00  0.00    +0.000 A 
ENDBRANCH  13  14
ENDBRANCH  12  13
ENDBRANCH  11  12
TORSDOF 3
ENDMDL
MODEL 3
REMARK VINA RESULT:      -7.0      2.028      3.181
REMARK  Name = 
REMARK  3 active torsions:
REMARK  status: ('A' for Active; 'I' for Inactive)
REMARK    1  A    between atoms: N_11  and  C_12
REMARK    2  A    between atoms: C_12  and  C_13
REMARK    3  A    between atoms: C_13  and  C_14
REMARK                            x       y       z     vdW  Elec       q    Type
REMARK                         _______ _______ _______ _____ _____    ______ ____
ROOT
ATOM      1  O   UNL     1       3.999   6.767  17.359  0.00  0.00    +0.000 OA
ATOM      2  C   UNL     1       3.680   5.755  17.954  0.00  0.00    +0.000 C 
ATOM      3  C   UNL     1       2.967   5.955  19.290  0.00  0.00    +0.000 C 
ATOM      4  N   UNL     1       2.373   4.703  19.787  0.00  0.00    +0.000 NA
ATOM      5  C   UNL     1       2.149   4.686  21.234  0.00  0.00    +0.000 C 
ATOM      6  C   UNL     1       1.903   3.210  21.539  0.00  0.00    +0.000 C 
ATOM      7  C   UNL     1       2.691   2.463  20.446  0.00  0.00    +0.000 C 
ATOM      8  C   UNL     1       3.305   3.603  19.644  0.00  0.00    +0.000 C 
ATOM      9  C   UNL     1       3.625   3.392  18.197  0.00  0.00    +0.000 C 
ATOM     10  O   UNL     1       3.661   2.257  17.735  0.00  0.00    +0.000 OA
ATOM     11  N   UNL     1       3.931   4.491  17.427  0.00  0.00    +0.000 N 
ENDROOT
BRANCH  11  12
ATOM     12  C   UNL     1       4.484   4.273  16.073  0.00  0.00    +0.000 C 
BRANCH  12  13
ATOM     13  C   UNL     1       6.019   4.431  15.940  0.00  0.00    +0.000 C 
BRANCH  13  14
ATOM     14  C   UNL     1       6.468   4.414  14.498  0.00  0.00    +0.000 A 
ATOM     15  C   UNL     1       7.499   5.268  14.062  0.00  0.00    +0.000 A 
ATOM     16  C   UNL     1       7.916   5.252  12.729  0.00  0.00    +0.000 A 
ATOM     17  C   UNL     1       7.312   4.382  11.818  0.00  0.00    +0.000 A 
ATOM     18  C   UNL     1       6.293   3.524  12.239  0.00  0.00    +0.000 A 
ATOM     19  C   UNL     1       5.873   3.537  13.573  0.00  0.00    +0.000 A 
ENDBRANCH  13  14
ENDBRANCH  12  13
ENDBRANCH  11  12
TORSDOF 3
ENDMDL
MODEL 4
REMARK VINA RESULT:      -7.0      2.415      3.576
REMARK  Name = 
REMARK  3 active torsions:
REMARK  status: ('A' for Active; 'I' for Inactive)
REMARK    1  A    between atoms: N_11  and  C_12
REMARK    2  A    between atoms: C_12  and  C_13
REMARK    3  A    between atoms: C_13  and  C_14
REMARK                            x       y       z     vdW  Elec       q    Type
REMARK                         _______ _______ _______ _____ _____    ______ ____
ROOT
ATOM      1  O   UNL     1       6.332   4.266  18.906  0.00  0.00    +0.000 OA
ATOM      2  C   UNL     1       5.132   4.072  18.853  0.00  0.00    +0.000 C 
ATOM      3  C   UNL     1       4.348   4.347  20.135  0.00  0.00    +0.000 C 
ATOM      4  N   UNL     1       2.895   4.361  19.896  0.00  0.00    +0.000 NA
ATOM      5  C   UNL     1       2.094   4.097  21.093  0.00  0.00    +0.000 C 
ATOM      6  C   UNL     1       0.706   3.794  20.533  0.00  0.00    +0.000 C 
ATOM      7  C   UNL     1       0.983   3.214  19.133  0.00  0.00    +0.000 C 
ATOM      8  C   UNL     1       2.504   3.247  19.057  0.00  0.00    +0.000 C 
ATOM      9  C   UNL     1       3.169   3.358  17.721  0.00  0.00    +0.000 C 
ATOM     10  O   UNL     1       2.530   3.144  16.697  0.00  0.00    +0.000 OA
ATOM     11  N   UNL     1       4.515   3.646  17.681  0.00  0.00    +0.000 N 
ENDROOT
BRANCH  11  12
ATOM     12  C   UNL     1       5.227   3.515  16.391  0.00  0.00    +0.000 C 
BRANCH  12  13
ATOM     13  C   UNL     1       5.479   4.836  15.624  0.00  0.00    +0.000 C 
BRANCH  13  14
ATOM     14  C   UNL     1       6.120   4.597  14.277  0.00  0.00    +0.000 A 
ATOM     15  C   UNL     1       7.276   5.308  13.902  0.00  0.00    +0.000 A 
ATOM     16  C   UNL     1       7.870   5.086  12.658  0.00  0.00    +0.000 A 
ATOM     17  C   UNL     1       7.321   4.151  11.776  0.00  0.00    +0.000 A 
ATOM     18  C   UNL     1       6.179   3.434  12.141  0.00  0.00    +0.000 A 
ATOM     19  C   UNL     1       5.581   3.652  13.386  0.00  0.00    +0.000 A 
ENDBRANCH  13  14
ENDBRANCH  12  13
ENDBRANCH  11  12
TORSDOF 3
ENDMDL
MODEL 5
REMARK VINA RESULT:      -6.9      1.697      5.495
REMARK  Name = 
REMARK  3 active torsions:
REMARK  status: ('A' for Active; 'I' for Inactive)
REMARK    1  A    between atoms: N_11  and  C_12
REMARK    2  A    between atoms: C_12  and  C_13
REMARK    3  A    between atoms: C_13  and  C_14
REMARK                            x       y       z     vdW  Elec       q    Type
REMARK                         _______ _______ _______ _____ _____    ______ ____
ROOT
ATOM      1  O   UNL     1       4.766   4.471  14.838  0.00  0.00    +0.000 OA
ATOM      2  C   UNL     1       5.312   4.762  15.886  0.00  0.00    +0.000 C 
ATOM      3  C   UNL     1       6.195   6.008  15.862  0.00  0.00    +0.000 C 
ATOM      4  N   UNL     1       6.574   6.437  17.219  0.00  0.00    +0.000 NA
ATOM      5  C   UNL     1       7.788   7.254  17.265  0.00  0.00    +0.000 C 
ATOM      6  C   UNL     1       8.167   7.244  18.745  0.00  0.00    +0.000 C 
ATOM      7  C   UNL     1       7.610   5.906  19.267  0.00  0.00    +0.000 C 
ATOM      8  C   UNL     1       6.981   5.300  18.019  0.00  0.00    +0.000 C 
ATOM      9  C   UNL     1       5.838   4.345  18.165  0.00  0.00    +0.000 C 
ATOM     10  O   UNL     1       5.595   3.840  19.255  0.00  0.00    +0.000 OA
ATOM     11  N   UNL     1       5.117   4.010  17.041  0.00  0.00    +0.000 N 
ENDROOT
BRANCH  11  12
ATOM     12  C   UNL     1       4.154   2.891  17.127  0.00  0.00    +0.000 C 
BRANCH  12  13
ATOM     13  C   UNL     1       2.662   3.292  17.229  0.00  0.00    +0.000 C 
BRANCH  13  14
ATOM     14  C   UNL     1       2.214   3.446  18.663  0.00  0.00    +0.000 A 
ATOM     15  C   UNL     1       1.938   2.311  19.449  0.00  0.00    +0.000 A 
ATOM     16  C   UNL     1       1.525   2.453  20.776  0.00  0.00    +0.000 A 
ATOM     17  C   UNL     1       1.385   3.726  21.334  0.00  0.00    +0.000 A 
ATOM     18  C   UNL     1       1.663   4.860  20.566  0.00  0.00    +0.000 A 
ATOM     19  C   UNL     1       2.078   4.723  19.238  0.00  0.00    +0.000 A 
ENDBRANCH  13  14
ENDBRANCH  12  13
ENDBRANCH  11  12
TORSDOF 3
ENDMDL
MODEL 6
REMARK VINA RESULT:      -6.9      1.703      5.575
REMARK  Name = 
REMARK  3 active torsions:
REMARK  status: ('A' for Active; 'I' for Inactive)
REMARK    1  A    between atoms: N_11  and  C_12
REMARK    2  A    between atoms: C_12  and  C_13
REMARK    3  A    between atoms: C_13  and  C_14
REMARK                            x       y       z     vdW  Elec       q    Type
REMARK                         _______ _______ _______ _____ _____    ______ ____
ROOT
ATOM      1  O   UNL     1       4.796   4.372  14.820  0.00  0.00    +0.000 OA
ATOM      2  C   UNL     1       5.325   4.685  15.870  0.00  0.00    +0.000 C 
ATOM      3  C   UNL     1       6.210   5.929  15.834  0.00  0.00    +0.000 C 
ATOM      4  N   UNL     1       6.567   6.386  17.187  0.00  0.00    +0.000 NA
ATOM      5  C   UNL     1       7.782   7.204  17.236  0.00  0.00    +0.000 C 
ATOM      6  C   UNL     1       8.137   7.225  18.721  0.00  0.00    +0.000 C 
ATOM      7  C   UNL     1       7.571   5.898  19.263  0.00  0.00    +0.000 C 
ATOM      8  C   UNL     1       6.961   5.267  18.018  0.00  0.00    +0.000 C 
ATOM      9  C   UNL     1       5.815   4.315  18.165  0.00  0.00    +0.000 C 
ATOM     10  O   UNL     1       5.554   3.833  19.262  0.00  0.00    +0.000 OA
ATOM     11  N   UNL     1       5.111   3.958  17.037  0.00  0.00    +0.000 N 
ENDROOT
BRANCH  11  12
ATOM     12  C   UNL     1       4.147   2.841  17.131  0.00  0.00    +0.000 C 
BRANCH  12  13
ATOM     13  C   UNL     1       2.656   3.246  17.236  0.00  0.00    +0.000 C 
BRANCH  13  14
ATOM     14  C   UNL     1       2.216   3.423  18.670  0.00  0.00    +0.000 A 
ATOM     15  C   UNL     1       2.063   4.713  19.214  0.00  0.00    +0.000 A 
ATOM     16  C   UNL     1       1.655   4.878  20.540  0.00  0.00    +0.000 A 
ATOM     17  C   UNL     1       1.391   3.761  21.336  0.00  0.00    +0.000 A 
ATOM     18  C   UNL     1       1.532   2.476  20.805  0.00  0.00    +0.000 A 
ATOM     19  C   UNL     1       1.939   2.306  19.478  0.00  0.00    +0.000 A 
ENDBRANCH  13  14
ENDBRANCH  12  13
ENDBRANCH  11  12
TORSDOF 3
ENDMDL
MODEL 7
REMARK VINA RESULT:      -6.8      2.453      4.255
REMARK  Name = 
REMARK  3 active torsions:
REMARK  status: ('A' for Active; 'I' for Inactive)
REMARK    1  A    between atoms: N_11  and  C_12
REMARK    2  A    between atoms: C_12  and  C_13
REMARK    3  A    between atoms: C_13  and  C_14
REMARK                            x       y       z     vdW  Elec       q    Type
REMARK                         _______ _______ _______ _____ _____    ______ ____
ROOT
ATOM      1  O   UNL     1       5.115   3.422  19.227  0.00  0.00    +0.000 OA
ATOM      2  C   UNL     1       4.656   4.490  18.868  0.00  0.00    +0.000 C 
ATOM      3  C   UNL     1       3.641   5.138  19.808  0.00  0.00    +0.000 C 
ATOM      4  N   UNL     1       3.365   6.536  19.436  0.00  0.00    +0.000 NA
ATOM      5  C   UNL     1       2.078   7.036  19.926  0.00  0.00    +0.000 C 
ATOM      6  C   UNL     1       1.865   8.316  19.119  0.00  0.00    +0.000 C 
ATOM      7  C   UNL     1       2.621   8.061  17.802  0.00  0.00    +0.000 C 
ATOM      8  C   UNL     1       3.177   6.658  18.005  0.00  0.00    +0.000 C 
ATOM      9  C   UNL     1       4.429   6.254  17.292  0.00  0.00    +0.000 C 
ATOM     10  O   UNL     1       4.844   6.924  16.353  0.00  0.00    +0.000 OA
ATOM     11  N   UNL     1       5.058   5.092  17.679  0.00  0.00    +0.000 N 
ENDROOT
BRANCH  11  12
ATOM     12  C   UNL     1       6.144   4.560  16.827  0.00  0.00    +0.000 C 
BRANCH  12  13
ATOM     13  C   UNL     1       5.703   3.595  15.699  0.00  0.00    +0.000 C 
BRANCH  13  14
ATOM     14  C   UNL     1       6.298   3.976  14.364  0.00  0.00    +0.000 A 
ATOM     15  C   UNL     1       7.245   5.015  14.275  0.00  0.00    +0.000 A 
ATOM     16  C   UNL     1       7.796   5.366  13.041  0.00  0.00    +0.000 A 
ATOM     17  C   UNL     1       7.414   4.683  11.883  0.00  0.00    +0.000 A 
ATOM     18  C   UNL     1       6.481   3.646  11.960  0.00  0.00    +0.000 A 
ATOM     19  C   UNL     1       5.927   3.290  13.193  0.00  0.00    +0.000 A 
ENDBRANCH  13  14
ENDBRANCH  12  13
ENDBRANCH  11  12
TORSDOF 3
ENDMDL
MODEL 8
REMARK VINA RESULT:      -6.8      2.159      3.342
REMARK  Name = 
REMARK  3 active torsions:
REMARK  status: ('A' for Active; 'I' for Inactive)
REMARK    1  A    between atoms: N_11  and  C_12
REMARK    2  A    between atoms: C_12  and  C_13
REMARK    3  A    between atoms: C_13  and  C_14
REMARK                            x       y       z     vdW  Elec       q    Type
REMARK                         _______ _______ _______ _____ _____    ______ ____
ROOT
ATOM      1  O   UNL     1       5.405   6.109  18.282  0.00  0.00    +0.000 OA
ATOM      2  C   UNL     1       4.639   5.215  18.590  0.00  0.00    +0.000 C 
ATOM      3  C   UNL     1       3.724   5.493  19.781  0.00  0.00    +0.000 C 
ATOM      4  N   UNL     1       2.653   4.489  19.895  0.00  0.00    +0.000 NA
ATOM      5  C   UNL     1       2.087   4.376  21.241  0.00  0.00    +0.000 C 
ATOM      6  C   UNL     1       1.308   3.063  21.190  0.00  0.00    +0.000 C 
ATOM      7  C   UNL     1       2.055   2.222  20.137  0.00  0.00    +0.000 C 
ATOM      8  C   UNL     1       3.183   3.153  19.710  0.00  0.00    +0.000 C 
ATOM      9  C   UNL     1       3.763   3.022  18.337  0.00  0.00    +0.000 C 
ATOM     10  O   UNL     1       3.541   2.017  17.671  0.00  0.00    +0.000 OA
ATOM     11  N   UNL     1       4.588   4.022  17.876  0.00  0.00    +0.000 N 
ENDROOT
BRANCH  11  12
ATOM     12  C   UNL     1       5.356   3.787  16.634  0.00  0.00    +0.000 C 
BRANCH  12  13
ATOM     13  C   UNL     1       4.713   4.327  15.333  0.00  0.00    +0.000 C 
BRANCH  13  14
ATOM     14  C   UNL     1       5.672   4.286  14.166  0.00  0.00    +0.000 A 
ATOM     15  C   UNL     1       5.366   3.528  13.019  0.00  0.00    +0.000 A 
ATOM     16  C   UNL     1       6.251   3.491  11.940  0.00  0.00    +0.000 A 
ATOM     17  C   UNL     1       7.448   4.210  11.990  0.00  0.00    +0.000 A 
ATOM     18  C   UNL     1       7.758   4.972  13.119  0.00  0.00    +0.000 A 
ATOM     19  C   UNL     1       6.875   5.013  14.202  0.00  0.00    +0.000 A 
ENDBRANCH  13  14
ENDBRANCH  12  13
ENDBRANCH  11  12
TORSDOF 3
ENDMDL
MODEL 9
REMARK VINA RESULT:      -6.8      0.643      2.275
REMARK  Name = 
REMARK  3 active torsions:
REMARK  status: ('A' for Active; 'I' for Inactive)
REMARK    1  A    between atoms: N_11  and  C_12
REMARK    2  A    between atoms: C_12  and  C_13
REMARK    3  A    between atoms: C_13  and  C_14
REMARK                            x       y       z     vdW  Elec       q    Type
REMARK                         _______ _______ _______ _____ _____    ______ ____
ROOT
ATOM      1  O   UNL     1       4.040   2.130  17.548  0.00  0.00    +0.000 OA
ATOM      2  C   UNL     1       3.727   3.237  17.945  0.00  0.00    +0.000 C 
ATOM      3  C   UNL     1       2.983   3.290  19.278  0.00  0.00    +0.000 C 
ATOM      4  N   UNL     1       2.904   4.662  19.807  0.00  0.00    +0.000 NA
ATOM      5  C   UNL     1       1.806   4.870  20.753  0.00  0.00    +0.000 C 
ATOM      6  C   UNL     1       1.706   6.392  20.852  0.00  0.00    +0.000 C 
ATOM      7  C   UNL     1       2.213   6.892  19.487  0.00  0.00    +0.000 C 
ATOM      8  C   UNL     1       2.540   5.594  18.759  0.00  0.00    +0.000 C 
ATOM      9  C   UNL     1       3.590   5.596  17.693  0.00  0.00    +0.000 C 
ATOM     10  O   UNL     1       3.978   6.656  17.214  0.00  0.00    +0.000 OA
ATOM     11  N   UNL     1       4.056   4.386  17.230  0.00  0.00    +0.000 N 
ENDROOT
BRANCH  11  12
ATOM     12  C   UNL     1       4.902   4.371  16.017  0.00  0.00    +0.000 C 
BRANCH  12  13
ATOM     13  C   UNL     1       6.413   4.130  16.254  0.00  0.00    +0.000 C 
BRANCH  13  14
ATOM     14  C   UNL     1       7.030   5.200  17.122  0.00  0.00    +0.000 A 
ATOM     15  C   UNL     1       7.512   4.885  18.407  0.00  0.00    +0.000 A 
ATOM     16  C   UNL     1       8.084   5.874  19.210  0.00  0.00    +0.000 A 
ATOM     17  C   UNL     1       8.185   7.186  18.741  0.00  0.00    +0.000 A 
ATOM     18  C   UNL     1       7.717   7.510  17.464  0.00  0.00    +0.000 A 
ATOM     19  C   UNL     1       7.144   6.523  16.657  0.00  0.00    +0.000 A 
ENDBRANCH  13  14
ENDBRANCH  12  13
ENDBRANCH  11  12
TORSDOF 3
ENDMDL
