MODEL 1
REMARK VINA RESULT:      -8.9      0.000      0.000
REMARK  Name = 
REMARK  12 active torsions:
REMARK  status: ('A' for Active; 'I' for Inactive)
REMARK    1  A    between atoms: C_1  and  O_2
REMARK    2  A    between atoms: O_2  and  C_3
REMARK    3  A    between atoms: C_5  and  C_6
REMARK    4  A    between atoms: C_7  and  C_8
REMARK    5  A    between atoms: N_10  and  C_11
REMARK    6  A    between atoms: C_11  and  C_12
REMARK    7  A    between atoms: C_12  and  C_13
REMARK    8  A    between atoms: C_14  and  C_15
REMARK    9  A    between atoms: C_24  and  O_25
REMARK   10  A    between atoms: O_25  and  C_26
REMARK   11  A    between atoms: C_27  and  O_28
REMARK   12  A    between atoms: O_28  and  C_29
REMARK                            x       y       z     vdW  Elec       q    Type
REMARK                         _______ _______ _______ _____ _____    ______ ____
ROOT
ATOM      1  C   UNL     1       7.617   7.166  17.449  0.00  0.00    +0.000 C 
ATOM      2  O   UNL     1       7.565   6.692  16.321  0.00  0.00    +0.000 OA
ATOM      3  N   UNL     1       7.398   6.451  18.609  0.00  0.00    +0.000 N 
ATOM      4  H   UNL     1       7.489   6.923  19.497  0.00  0.00    +0.000 HD
ENDROOT
BRANCH   1   6
ATOM      5  C   UNL     1       8.858   9.013  18.622  0.00  0.00    +0.000 C 
ATOM      6  C   UNL     1       7.938   8.617  17.718  0.00  0.00    +0.000 C 
BRANCH   5   9
ATOM      7  C   UNL     1       9.899  12.712  18.359  0.00  0.00    +0.000 A 
ATOM      8  C   UNL     1       9.648  11.366  18.011  0.00  0.00    +0.000 A 
ATOM      9  C   UNL     1       9.242  10.416  18.956  0.00  0.00    +0.000 A 
ATOM     10  C   UNL     1       9.195  10.846  20.293  0.00  0.00    +0.000 A 
ATOM     11  C   UNL     1       9.489  12.169  20.672  0.00  0.00    +0.000 A 
ATOM     12  C   UNL     1       9.847  13.125  19.709  0.00  0.00    +0.000 A 
BRANCH   7  14
ATOM     13  C   UNL     1      11.592  13.566  16.935  0.00  0.00    +0.000 C 
ATOM     14  O   UNL     1      10.240  13.630  17.389  0.00  0.00    +0.000 OA
ENDBRANCH   7  14
BRANCH  11  15
ATOM     15  O   UNL     1       9.420  12.365  22.032  0.00  0.00    +0.000 OA
ATOM     16  C   UNL     1       8.311  11.809  22.735  0.00  0.00    +0.000 C 
ENDBRANCH  11  15
BRANCH  12  17
ATOM     17  O   UNL     1      10.166  14.369  20.188  0.00  0.00    +0.000 OA
ATOM     18  C   UNL     1       9.234  15.437  20.250  0.00  0.00    +0.000 C 
ENDBRANCH  12  17
ENDBRANCH   5   9
ENDBRANCH   1   6
BRANCH   3  19
ATOM     19  C   UNL     1       6.797   5.139  18.648  0.00  0.00    +0.000 C 
BRANCH  19  20
ATOM     20  C   UNL     1       5.448   4.945  17.977  0.00  0.00    +0.000 C 
BRANCH  20  21
ATOM     21  C   UNL     1       4.144   4.855  18.714  0.00  0.00    +0.000 A 
ATOM     22  C   UNL     1       3.537   6.028  19.166  0.00  0.00    +0.000 A 
ATOM     23  C   UNL     1       2.716   6.885  18.230  0.00  0.00    +0.000 C 
ATOM     24  N   UNL     1       3.034   5.598  20.377  0.00  0.00    +0.000 N 
ATOM     25  C   UNL     1       2.343   4.450  20.037  0.00  0.00    +0.000 A 
ATOM     26  C   UNL     1       1.192   3.904  20.601  0.00  0.00    +0.000 A 
ATOM     27  C   UNL     1       0.528   2.971  19.816  0.00  0.00    +0.000 A 
ATOM     28  C   UNL     1       1.091   2.517  18.617  0.00  0.00    +0.000 A 
ATOM     29  C   UNL     1       2.372   2.932  18.185  0.00  0.00    +0.000 A 
ATOM     30  C   UNL     1       3.004   3.977  18.882  0.00  0.00    +0.000 A 
ATOM     31  H   UNL     1       3.401   5.791  21.293  0.00  0.00    +0.000 HD
ENDBRANCH  20  21
ENDBRANCH  19  20
ENDBRANCH   3  19
TORSDOF 8
ENDMDL
MODEL 2
REMARK VINA RESULT:      -8.7      1.254      1.465
REMARK  Name = 
REMARK  12 active torsions:
REMARK  status: ('A' for Active; 'I' for Inactive)
REMARK    1  A    between atoms: C_1  and  O_2
REMARK    2  A    between atoms: O_2  and  C_3
REMARK    3  A    between atoms: C_5  and  C_6
REMARK    4  A    between atoms: C_7  and  C_8
REMARK    5  A    between atoms: N_10  and  C_11
REMARK    6  A    between atoms: C_11  and  C_12
REMARK    7  A    between atoms: C_12  and  C_13
REMARK    8  A    between atoms: C_14  and  C_15
REMARK    9  A    between atoms: C_24  and  O_25
REMARK   10  A    between atoms: O_25  and  C_26
REMARK   11  A    between atoms: C_27  and  O_28
REMARK   12  A    between atoms: O_28  and  C_29
REMARK                            x       y       z     vdW  Elec       q    Type
REMARK                         _______ _______ _______ _____ _____    ______ ____
ROOT
ATOM      1  C   UNL     1       7.621   7.711  17.588  0.00  0.00    +0.000 C 
ATOM      2  O   UNL     1       6.857   7.509  16.652  0.00  0.00    +0.000 OA
ATOM      3  N   UNL     1       8.040   6.743  18.477  0.00  0.00    +0.000 N 
ATOM      4  H   UNL     1       8.694   6.998  19.203  0.00  0.00    +0.000 HD
ENDROOT
BRANCH   1   6
ATOM      5  C   UNL     1       8.956   9.320  18.986  0.00  0.00    +0.000 C 
ATOM      6  C   UNL     1       8.214   9.066  17.889  0.00  0.00    +0.000 C 
BRANCH   5   9
ATOM      7  C   UNL     1      10.944  12.619  18.907  0.00  0.00    +0.000 A 
ATOM      8  C   UNL     1      10.461  11.340  18.549  0.00  0.00    +0.000 A 
ATOM      9  C   UNL     1       9.581  10.621  19.367  0.00  0.00    +0.000 A 
ATOM     10  C   UNL     1       9.281  11.193  20.615  0.00  0.00    +0.000 A 
ATOM     11  C   UNL     1       9.789  12.442  21.016  0.00  0.00    +0.000 A 
ATOM     12  C   UNL     1      10.631  13.177  20.166  0.00  0.00    +0.000 A 
BRANCH   7  14
ATOM     13  C   UNL     1      11.243  13.512  16.730  0.00  0.00    +0.000 C 
ATOM     14  O   UNL     1      11.762  13.319  18.047  0.00  0.00    +0.000 OA
ENDBRANCH   7  14
BRANCH  11  15
ATOM     15  O   UNL     1       9.402  12.796  22.287  0.00  0.00    +0.000 OA
ATOM     16  C   UNL     1       8.008  12.954  22.545  0.00  0.00    +0.000 C 
ENDBRANCH  11  15
BRANCH  12  17
ATOM     17  O   UNL     1      11.114  14.355  20.672  0.00  0.00    +0.000 OA
ATOM     18  C   UNL     1      10.464  15.602  20.485  0.00  0.00    +0.000 C 
ENDBRANCH  12  17
ENDBRANCH   5   9
ENDBRANCH   1   6
BRANCH   3  19
ATOM     19  C   UNL     1       7.422   5.445  18.610  0.00  0.00    +0.000 C 
BRANCH  19  20
ATOM     20  C   UNL     1       6.129   5.342  19.401  0.00  0.00    +0.000 C 
BRANCH  20  21
ATOM     21  C   UNL     1       4.806   4.961  18.808  0.00  0.00    +0.000 A 
ATOM     22  C   UNL     1       4.521   5.327  17.491  0.00  0.00    +0.000 A 
ATOM     23  C   UNL     1       5.047   4.513  16.331  0.00  0.00    +0.000 C 
ATOM     24  N   UNL     1       3.182   5.641  17.602  0.00  0.00    +0.000 N 
ATOM     25  C   UNL     1       2.652   4.528  18.228  0.00  0.00    +0.000 A 
ATOM     26  C   UNL     1       1.389   3.954  18.102  0.00  0.00    +0.000 A 
ATOM     27  C   UNL     1       1.282   2.647  18.557  0.00  0.00    +0.000 A 
ATOM     28  C   UNL     1       2.344   2.035  19.233  0.00  0.00    +0.000 A 
ATOM     29  C   UNL     1       3.538   2.730  19.538  0.00  0.00    +0.000 A 
ATOM     30  C   UNL     1       3.732   4.002  18.971  0.00  0.00    +0.000 A 
ATOM     31  H   UNL     1       2.771   6.559  17.629  0.00  0.00    +0.000 HD
ENDBRANCH  20  21
ENDBRANCH  19  20
ENDBRANCH   3  19
TORSDOF 8
ENDMDL
MODEL 3
REMARK VINA RESULT:      -8.6      1.320      2.681
REMARK  Name = 
REMARK  12 active torsions:
REMARK  status: ('A' for Active; 'I' for Inactive)
REMARK    1  A    between atoms: C_1  and  O_2
REMARK    2  A    between atoms: O_2  and  C_3
REMARK    3  A    between atoms: C_5  and  C_6
REMARK    4  A    between atoms: C_7  and  C_8
REMARK    5  A    between atoms: N_10  and  C_11
REMARK    6  A    between atoms: C_11  and  C_12
REMARK    7  A    between atoms: C_12  and  C_13
REMARK    8  A    between atoms: C_14  and  C_15
REMARK    9  A    between atoms: C_24  and  O_25
REMARK   10  A    between atoms: O_25  and  C_26
REMARK   11  A    between atoms: C_27  and  O_28
REMARK   12  A    between atoms: O_28  and  C_29
REMARK                            x       y       z     vdW  Elec       q    Type
REMARK                         _______ _______ _______ _____ _____    ______ ____
ROOT
ATOM      1  C   UNL     1       7.762   7.651  17.963  0.00  0.00    +0.000 C 
ATOM      2  O   UNL     1       8.087   6.735  18.710  0.00  0.00    +0.000 OA
ATOM      3  N   UNL     1       6.852   7.534  16.933  0.00  0.00    +0.000 N 
ATOM      4  H   UNL     1       6.626   8.352  16.386  0.00  0.00    +0.000 HD
ENDROOT
BRANCH   1   6
ATOM      5  C   UNL     1       9.092   9.448  19.114  0.00  0.00    +0.000 C 
ATOM      6  C   UNL     1       8.322   9.048  18.082  0.00  0.00    +0.000 C 
BRANCH   5   9
ATOM      7  C   UNL     1      10.079  12.852  20.624  0.00  0.00    +0.000 A 
ATOM      8  C   UNL     1       9.411  11.624  20.417  0.00  0.00    +0.000 A 
ATOM      9  C   UNL     1       9.688  10.802  19.318  0.00  0.00    +0.000 A 
ATOM     10  C   UNL     1      10.595  11.308  18.372  0.00  0.00    +0.000 A 
ATOM     11  C   UNL     1      11.236  12.551  18.530  0.00  0.00    +0.000 A 
ATOM     12  C   UNL     1      10.988  13.344  19.661  0.00  0.00    +0.000 A 
BRANCH   7  14
ATOM     13  C   UNL     1       8.757  13.126  22.573  0.00  0.00    +0.000 C 
ATOM     14  O   UNL     1       9.820  13.604  21.749  0.00  0.00    +0.000 OA
ENDBRANCH   7  14
BRANCH  11  15
ATOM     15  O   UNL     1      12.053  12.870  17.471  0.00  0.00    +0.000 OA
ATOM     16  C   UNL     1      11.508  13.659  16.415  0.00  0.00    +0.000 C 
ENDBRANCH  11  15
BRANCH  12  17
ATOM     17  O   UNL     1      11.622  14.559  19.692  0.00  0.00    +0.000 OA
ATOM     18  C   UNL     1      10.926  15.796  19.683  0.00  0.00    +0.000 C 
ENDBRANCH  12  17
ENDBRANCH   5   9
ENDBRANCH   1   6
BRANCH   3  19
ATOM     19  C   UNL     1       6.383   6.273  16.408  0.00  0.00    +0.000 C 
BRANCH  19  20
ATOM     20  C   UNL     1       4.884   6.034  16.342  0.00  0.00    +0.000 C 
BRANCH  20  21
ATOM     21  C   UNL     1       4.015   5.795  17.541  0.00  0.00    +0.000 A 
ATOM     22  C   UNL     1       3.659   6.877  18.349  0.00  0.00    +0.000 A 
ATOM     23  C   UNL     1       2.522   7.792  17.960  0.00  0.00    +0.000 C 
ATOM     24  N   UNL     1       3.716   6.287  19.595  0.00  0.00    +0.000 N 
ATOM     25  C   UNL     1       2.942   5.152  19.438  0.00  0.00    +0.000 A 
ATOM     26  C   UNL     1       2.137   4.489  20.361  0.00  0.00    +0.000 A 
ATOM     27  C   UNL     1       1.201   3.619  19.818  0.00  0.00    +0.000 A 
ATOM     28  C   UNL     1       1.201   3.333  18.447  0.00  0.00    +0.000 A 
ATOM     29  C   UNL     1       2.180   3.859  17.572  0.00  0.00    +0.000 A 
ATOM     30  C   UNL     1       3.051   4.848  18.063  0.00  0.00    +0.000 A 
ATOM     31  H   UNL     1       4.437   6.392  20.288  0.00  0.00    +0.000 HD
ENDBRANCH  20  21
ENDBRANCH  19  20
ENDBRANCH   3  19
TORSDOF 8
ENDMDL
MODEL 4
REMARK VINA RESULT:      -8.5      0.648      2.420
REMARK  Name = 
REMARK  12 active torsions:
REMARK  status: ('A' for Active; 'I' for Inactive)
REMARK    1  A    between atoms: C_1  and  O_2
REMARK    2  A    between atoms: O_2  and  C_3
REMARK    3  A    between atoms: C_5  and  C_6
REMARK    4  A    between atoms: C_7  and  C_8
REMARK    5  A    between atoms: N_10  and  C_11
REMARK    6  A    between atoms: C_11  and  C_12
REMARK    7  A    between atoms: C_12  and  C_13
REMARK    8  A    between atoms: C_14  and  C_15
REMARK    9  A    between atoms: C_24  and  O_25
REMARK   10  A    between atoms: O_25  and  C_26
REMARK   11  A    between atoms: C_27  and  O_28
REMARK   12  A    between atoms: O_28  and  C_29
REMARK                            x       y       z     vdW  Elec       q    Type
REMARK                         _______ _______ _______ _____ _____    ______ ____
ROOT
ATOM      1  C   UNL     1       7.740   7.357  17.629  0.00  0.00    +0.000 C 
ATOM      2  O   UNL     1       7.471   6.967  16.499  0.00  0.00    +0.000 OA
ATOM      3  N   UNL     1       7.617   6.592  18.771  0.00  0.00    +0.000 N 
ATOM      4  H   UNL     1       7.889   6.991  19.657  0.00  0.00    +0.000 HD
ENDROOT
BRANCH   1   6
ATOM      5  C   UNL     1       8.917   9.066  19.050  0.00  0.00    +0.000 C 
ATOM      6  C   UNL     1       8.257   8.746  17.919  0.00  0.00    +0.000 C 
BRANCH   5   9
ATOM      7  C   UNL     1       9.779  12.288  20.978  0.00  0.00    +0.000 A 
ATOM      8  C   UNL     1       9.157  11.072  20.617  0.00  0.00    +0.000 A 
ATOM      9  C   UNL     1       9.462  10.404  19.424  0.00  0.00    +0.000 A 
ATOM     10  C   UNL     1      10.348  11.059  18.551  0.00  0.00    +0.000 A 
ATOM     11  C   UNL     1      10.942  12.295  18.866  0.00  0.00    +0.000 A 
ATOM     12  C   UNL     1      10.667  12.930  20.087  0.00  0.00    +0.000 A 
BRANCH   7  14
ATOM     13  C   UNL     1       8.378  12.336  22.891  0.00  0.00    +0.000 C 
ATOM     14  O   UNL     1       9.495  12.883  22.188  0.00  0.00    +0.000 OA
ENDBRANCH   7  14
BRANCH  11  15
ATOM     15  O   UNL     1      11.744  12.776  17.857  0.00  0.00    +0.000 OA
ATOM     16  C   UNL     1      11.128  13.507  16.799  0.00  0.00    +0.000 C 
ENDBRANCH  11  15
BRANCH  12  17
ATOM     17  O   UNL     1      11.255  14.155  20.272  0.00  0.00    +0.000 OA
ATOM     18  C   UNL     1      10.533  15.376  20.219  0.00  0.00    +0.000 C 
ENDBRANCH  12  17
ENDBRANCH   5   9
ENDBRANCH   1   6
BRANCH   3  19
ATOM     19  C   UNL     1       6.886   5.348  18.835  0.00  0.00    +0.000 C 
BRANCH  19  20
ATOM     20  C   UNL     1       5.562   5.252  18.096  0.00  0.00    +0.000 C 
BRANCH  20  21
ATOM     21  C   UNL     1       4.230   5.107  18.769  0.00  0.00    +0.000 A 
ATOM     22  C   UNL     1       3.536   6.255  19.156  0.00  0.00    +0.000 A 
ATOM     23  C   UNL     1       2.718   7.040  18.156  0.00  0.00    +0.000 C 
ATOM     24  N   UNL     1       2.996   5.829  20.352  0.00  0.00    +0.000 N 
ATOM     25  C   UNL     1       2.387   4.635  20.011  0.00  0.00    +0.000 A 
ATOM     26  C   UNL     1       1.241   4.040  20.532  0.00  0.00    +0.000 A 
ATOM     27  C   UNL     1       0.671   3.051  19.741  0.00  0.00    +0.000 A 
ATOM     28  C   UNL     1       1.318   2.599  18.586  0.00  0.00    +0.000 A 
ATOM     29  C   UNL     1       2.595   3.075  18.206  0.00  0.00    +0.000 A 
ATOM     30  C   UNL     1       3.132   4.171  18.905  0.00  0.00    +0.000 A 
ATOM     31  H   UNL     1       3.304   6.065  21.280  0.00  0.00    +0.000 HD
ENDBRANCH  20  21
ENDBRANCH  19  20
ENDBRANCH   3  19
TORSDOF 8
ENDMDL
MODEL 5
REMARK VINA RESULT:      -8.4      1.376      1.878
REMARK  Name = 
REMARK  12 active torsions:
REMARK  status: ('A' for Active; 'I' for Inactive)
REMARK    1  A    between atoms: C_1  and  O_2
REMARK    2  A    between atoms: O_2  and  C_3
REMARK    3  A    between atoms: C_5  and  C_6
REMARK    4  A    between atoms: C_7  and  C_8
REMARK    5  A    between atoms: N_10  and  C_11
REMARK    6  A    between atoms: C_11  and  C_12
REMARK    7  A    between atoms: C_12  and  C_13
REMARK    8  A    between atoms: C_14  and  C_15
REMARK    9  A    between atoms: C_24  and  O_25
REMARK   10  A    between atoms: O_25  and  C_26
REMARK   11  A    between atoms: C_27  and  O_28
REMARK   12  A    between atoms: O_28  and  C_29
REMARK                            x       y       z     vdW  Elec       q    Type
REMARK                         _______ _______ _______ _____ _____    ______ ____
ROOT
ATOM      1  C   UNL     1       7.479   7.611  17.548  0.00  0.00    +0.000 C 
ATOM      2  O   UNL     1       7.957   6.510  17.791  0.00  0.00    +0.000 OA
ATOM      3  N   UNL     1       6.196   7.823  17.087  0.00  0.00    +0.000 N 
ATOM      4  H   UNL     1       5.880   8.770  16.939  0.00  0.00    +0.000 HD
ENDROOT
BRANCH   1   6
ATOM      5  C   UNL     1       8.796   9.270  18.904  0.00  0.00    +0.000 C 
ATOM      6  C   UNL     1       8.245   8.900  17.730  0.00  0.00    +0.000 C 
BRANCH   5   9
ATOM      7  C   UNL     1      11.101  12.336  18.543  0.00  0.00    +0.000 A 
ATOM      8  C   UNL     1      10.474  11.097  18.284  0.00  0.00    +0.000 A 
ATOM      9  C   UNL     1       9.567  10.519  19.180  0.00  0.00    +0.000 A 
ATOM     10  C   UNL     1       9.387  11.186  20.403  0.00  0.00    +0.000 A 
ATOM     11  C   UNL     1      10.037  12.396  20.707  0.00  0.00    +0.000 A 
ATOM     12  C   UNL     1      10.907  12.992  19.779  0.00  0.00    +0.000 A 
BRANCH   7  14
ATOM     13  C   UNL     1      11.301  13.680  16.599  0.00  0.00    +0.000 C 
ATOM     14  O   UNL     1      11.942  12.900  17.609  0.00  0.00    +0.000 OA
ENDBRANCH   7  14
BRANCH  11  15
ATOM     15  O   UNL     1       9.750  12.857  21.970  0.00  0.00    +0.000 OA
ATOM     16  C   UNL     1       8.410  13.258  22.251  0.00  0.00    +0.000 C 
ENDBRANCH  11  15
BRANCH  12  17
ATOM     17  O   UNL     1      11.531  14.140  20.193  0.00  0.00    +0.000 OA
ATOM     18  C   UNL     1      11.005  15.436  19.955  0.00  0.00    +0.000 C 
ENDBRANCH  12  17
ENDBRANCH   5   9
ENDBRANCH   1   6
BRANCH   3  19
ATOM     19  C   UNL     1       5.347   6.783  16.553  0.00  0.00    +0.000 C 
BRANCH  19  20
ATOM     20  C   UNL     1       3.979   6.578  17.181  0.00  0.00    +0.000 C 
BRANCH  20  21
ATOM     21  C   UNL     1       3.495   5.272  17.739  0.00  0.00    +0.000 A 
ATOM     22  C   UNL     1       4.345   4.165  17.710  0.00  0.00    +0.000 A 
ATOM     23  C   UNL     1       5.417   3.984  18.760  0.00  0.00    +0.000 C 
ATOM     24  N   UNL     1       3.439   3.163  17.425  0.00  0.00    +0.000 N 
ATOM     25  C   UNL     1       2.451   3.356  18.373  0.00  0.00    +0.000 A 
ATOM     26  C   UNL     1       1.629   2.426  19.003  0.00  0.00    +0.000 A 
ATOM     27  C   UNL     1       1.013   2.867  20.166  0.00  0.00    +0.000 A 
ATOM     28  C   UNL     1       1.106   4.207  20.560  0.00  0.00    +0.000 A 
ATOM     29  C   UNL     1       1.770   5.176  19.772  0.00  0.00    +0.000 A 
ATOM     30  C   UNL     1       2.521   4.736  18.667  0.00  0.00    +0.000 A 
ATOM     31  H   UNL     1       3.298   2.701  16.543  0.00  0.00    +0.000 HD
ENDBRANCH  20  21
ENDBRANCH  19  20
ENDBRANCH   3  19
TORSDOF 8
ENDMDL
MODEL 6
REMARK VINA RESULT:      -8.3      1.842      2.239
REMARK  Name = 
REMARK  12 active torsions:
REMARK  status: ('A' for Active; 'I' for Inactive)
REMARK    1  A    between atoms: C_1  and  O_2
REMARK    2  A    between atoms: O_2  and  C_3
REMARK    3  A    between atoms: C_5  and  C_6
REMARK    4  A    between atoms: C_7  and  C_8
REMARK    5  A    between atoms: N_10  and  C_11
REMARK    6  A    between atoms: C_11  and  C_12
REMARK    7  A    between atoms: C_12  and  C_13
REMARK    8  A    between atoms: C_14  and  C_15
REMARK    9  A    between atoms: C_24  and  O_25
REMARK   10  A    between atoms: O_25  and  C_26
REMARK   11  A    between atoms: C_27  and  O_28
REMARK   12  A    between atoms: O_28  and  C_29
REMARK                            x       y       z     vdW  Elec       q    Type
REMARK                         _______ _______ _______ _____ _____    ______ ____
ROOT
ATOM      1  C   UNL     1       7.478   6.731  17.792  0.00  0.00    +0.000 C 
ATOM      2  O   UNL     1       7.375   6.005  18.773  0.00  0.00    +0.000 OA
ATOM      3  N   UNL     1       6.879   6.490  16.573  0.00  0.00    +0.000 N 
ATOM      4  H   UNL     1       7.000   7.160  15.829  0.00  0.00    +0.000 HD
ENDROOT
BRANCH   1   6
ATOM      5  C   UNL     1       7.726   9.233  17.886  0.00  0.00    +0.000 C 
ATOM      6  C   UNL     1       8.284   8.008  17.795  0.00  0.00    +0.000 C 
BRANCH   5   9
ATOM      7  C   UNL     1       8.510  13.001  17.731  0.00  0.00    +0.000 A 
ATOM      8  C   UNL     1       7.825  11.771  17.605  0.00  0.00    +0.000 A 
ATOM      9  C   UNL     1       8.436  10.546  17.897  0.00  0.00    +0.000 A 
ATOM     10  C   UNL     1       9.801  10.591  18.225  0.00  0.00    +0.000 A 
ATOM     11  C   UNL     1      10.518  11.799  18.308  0.00  0.00    +0.000 A 
ATOM     12  C   UNL     1       9.883  13.026  18.062  0.00  0.00    +0.000 A 
BRANCH   7  14
ATOM     13  C   UNL     1       7.370  14.865  18.652  0.00  0.00    +0.000 C 
ATOM     14  O   UNL     1       7.855  14.190  17.491  0.00  0.00    +0.000 OA
ENDBRANCH   7  14
BRANCH  11  15
ATOM     15  O   UNL     1      11.848  11.613  18.606  0.00  0.00    +0.000 OA
ATOM     16  C   UNL     1      12.333  12.103  19.854  0.00  0.00    +0.000 C 
ENDBRANCH  11  15
BRANCH  12  17
ATOM     17  O   UNL     1      10.682  14.138  18.117  0.00  0.00    +0.000 OA
ATOM     18  C   UNL     1      11.324  14.687  16.977  0.00  0.00    +0.000 C 
ENDBRANCH  12  17
ENDBRANCH   5   9
ENDBRANCH   1   6
BRANCH   3  19
ATOM     19  C   UNL     1       6.300   5.222  16.194  0.00  0.00    +0.000 C 
BRANCH  19  20
ATOM     20  C   UNL     1       4.792   5.065  16.285  0.00  0.00    +0.000 C 
BRANCH  20  21
ATOM     21  C   UNL     1       4.022   5.044  17.572  0.00  0.00    +0.000 A 
ATOM     22  C   UNL     1       3.954   6.207  18.341  0.00  0.00    +0.000 A 
ATOM     23  C   UNL     1       2.967   7.301  18.005  0.00  0.00    +0.000 C 
ATOM     24  N   UNL     1       4.030   5.671  19.611  0.00  0.00    +0.000 N 
ATOM     25  C   UNL     1       3.051   4.694  19.596  0.00  0.00    +0.000 A 
ATOM     26  C   UNL     1       2.238   4.233  20.628  0.00  0.00    +0.000 A 
ATOM     27  C   UNL     1       1.109   3.531  20.229  0.00  0.00    +0.000 A 
ATOM     28  C   UNL     1       0.916   3.192  18.885  0.00  0.00    +0.000 A 
ATOM     29  C   UNL     1       1.878   3.488  17.891  0.00  0.00    +0.000 A 
ATOM     30  C   UNL     1       2.960   4.317  18.238  0.00  0.00    +0.000 A 
ATOM     31  H   UNL     1       4.825   5.669  20.226  0.00  0.00    +0.000 HD
ENDBRANCH  20  21
ENDBRANCH  19  20
ENDBRANCH   3  19
TORSDOF 8
ENDMDL
MODEL 7
REMARK VINA RESULT:      -7.9      0.905      1.068
REMARK  Name = 
REMARK  12 active torsions:
REMARK  status: ('A' for Active; 'I' for Inactive)
REMARK    1  A    between atoms: C_1  and  O_2
REMARK    2  A    between atoms: O_2  and  C_3
REMARK    3  A    between atoms: C_5  and  C_6
REMARK    4  A    between atoms: C_7  and  C_8
REMARK    5  A    between atoms: N_10  and  C_11
REMARK    6  A    between atoms: C_11  and  C_12
REMARK    7  A    between atoms: C_12  and  C_13
REMARK    8  A    between atoms: C_14  and  C_15
REMARK    9  A    between atoms: C_24  and  O_25
REMARK   10  A    between atoms: O_25  and  C_26
REMARK   11  A    between atoms: C_27  and  O_28
REMARK   12  A    between atoms: O_28  and  C_29
REMARK                            x       y       z     vdW  Elec       q    Type
REMARK                         _______ _______ _______ _____ _____    ______ ____
ROOT
ATOM      1  C   UNL     1       7.596   7.260  17.443  0.00  0.00    +0.000 C 
ATOM      2  O   UNL     1       7.901   6.969  16.292  0.00  0.00    +0.000 OA
ATOM      3  N   UNL     1       7.153   6.356  18.386  0.00  0.00    +0.000 N 
ATOM      4  H   UNL     1       6.951   6.684  19.319  0.00  0.00    +0.000 HD
ENDROOT
BRANCH   1   6
ATOM      5  C   UNL     1       8.841   9.311  18.199  0.00  0.00    +0.000 C 
ATOM      6  C   UNL     1       7.675   8.667  17.985  0.00  0.00    +0.000 C 
BRANCH   5   9
ATOM      7  C   UNL     1       9.012  13.146  18.509  0.00  0.00    +0.000 A 
ATOM      8  C   UNL     1       8.944  11.852  17.946  0.00  0.00    +0.000 A 
ATOM      9  C   UNL     1       9.018  10.695  18.730  0.00  0.00    +0.000 A 
ATOM     10  C   UNL     1       9.268  10.883  20.100  0.00  0.00    +0.000 A 
ATOM     11  C   UNL     1       9.389  12.161  20.677  0.00  0.00    +0.000 A 
ATOM     12  C   UNL     1       9.263  13.315  19.889  0.00  0.00    +0.000 A 
BRANCH   7  14
ATOM     13  C   UNL     1       7.586  14.875  17.733  0.00  0.00    +0.000 C 
ATOM     14  O   UNL     1       8.876  14.261  17.710  0.00  0.00    +0.000 OA
ENDBRANCH   7  14
BRANCH  11  15
ATOM     15  O   UNL     1       9.670  12.116  22.022  0.00  0.00    +0.000 OA
ATOM     16  C   UNL     1       8.577  12.126  22.938  0.00  0.00    +0.000 C 
ENDBRANCH  11  15
BRANCH  12  17
ATOM     17  O   UNL     1       9.452  14.508  20.538  0.00  0.00    +0.000 OA
ATOM     18  C   UNL     1      10.703  15.175  20.583  0.00  0.00    +0.000 C 
ENDBRANCH  12  17
ENDBRANCH   5   9
ENDBRANCH   1   6
BRANCH   3  19
ATOM     19  C   UNL     1       6.709   5.017  18.078  0.00  0.00    +0.000 C 
BRANCH  19  20
ATOM     20  C   UNL     1       5.942   4.250  19.142  0.00  0.00    +0.000 C 
BRANCH  20  21
ATOM     21  C   UNL     1       4.469   4.391  19.385  0.00  0.00    +0.000 A 
ATOM     22  C   UNL     1       3.895   5.663  19.356  0.00  0.00    +0.000 A 
ATOM     23  C   UNL     1       3.535   6.320  18.044  0.00  0.00    +0.000 C 
ATOM     24  N   UNL     1       2.976   5.545  20.379  0.00  0.00    +0.000 N 
ATOM     25  C   UNL     1       2.299   4.383  20.058  0.00  0.00    +0.000 A 
ATOM     26  C   UNL     1       0.970   4.035  20.286  0.00  0.00    +0.000 A 
ATOM     27  C   UNL     1       0.491   2.979  19.523  0.00  0.00    +0.000 A 
ATOM     28  C   UNL     1       1.355   2.237  18.708  0.00  0.00    +0.000 A 
ATOM     29  C   UNL     1       2.747   2.483  18.671  0.00  0.00    +0.000 A 
ATOM     30  C   UNL     1       3.239   3.629  19.320  0.00  0.00    +0.000 A 
ATOM     31  H   UNL     1       3.044   5.925  21.308  0.00  0.00    +0.000 HD
ENDBRANCH  20  21
ENDBRANCH  19  20
ENDBRANCH   3  19
TORSDOF 8
ENDMDL
MODEL 8
REMARK VINA RESULT:      -7.8      6.491     10.222
REMARK  Name = 
REMARK  12 active torsions:
REMARK  status: ('A' for Active; 'I' for Inactive)
REMARK    1  A    between atoms: C_1  and  O_2
REMARK    2  A    between atoms: O_2  and  C_3
REMARK    3  A    between atoms: C_5  and  C_6
REMARK    4  A    between atoms: C_7  and  C_8
REMARK    5  A    between atoms: N_10  and  C_11
REMARK    6  A    between atoms: C_11  and  C_12
REMARK    7  A    between atoms: C_12  and  C_13
REMARK    8  A    between atoms: C_14  and  C_15
REMARK    9  A    between atoms: C_24  and  O_25
REMARK   10  A    between atoms: O_25  and  C_26
REMARK   11  A    between atoms: C_27  and  O_28
REMARK   12  A    between atoms: O_28  and  C_29
REMARK                            x       y       z     vdW  Elec       q    Type
REMARK                         _______ _______ _______ _____ _____    ______ ____
ROOT
ATOM      1  C   UNL     1       0.589   9.915  21.104  0.00  0.00    +0.000 C 
ATOM      2  O   UNL     1       0.749  10.509  22.164  0.00  0.00    +0.000 OA
ATOM      3  N   UNL     1      -0.121  10.409  20.030  0.00  0.00    +0.000 N 
ATOM      4  H   UNL     1      -0.177   9.858  19.187  0.00  0.00    +0.000 HD
ENDROOT
BRANCH   1   6
ATOM      5  C   UNL     1       1.838   8.238  19.707  0.00  0.00    +0.000 C 
ATOM      6  C   UNL     1       1.164   8.545  20.834  0.00  0.00    +0.000 C 
BRANCH   5   9
ATOM      7  C   UNL     1       3.820   5.445  17.944  0.00  0.00    +0.000 A 
ATOM      8  C   UNL     1       3.180   6.680  18.188  0.00  0.00    +0.000 A 
ATOM      9  C   UNL     1       2.439   6.918  19.352  0.00  0.00    +0.000 A 
ATOM     10  C   UNL     1       2.279   5.828  20.224  0.00  0.00    +0.000 A 
ATOM     11  C   UNL     1       2.866   4.573  19.979  0.00  0.00    +0.000 A 
ATOM     12  C   UNL     1       3.648   4.361  18.833  0.00  0.00    +0.000 A 
BRANCH   7  14
ATOM     13  C   UNL     1       5.009   6.473  16.168  0.00  0.00    +0.000 C 
ATOM     14  O   UNL     1       4.589   5.270  16.813  0.00  0.00    +0.000 OA
ENDBRANCH   7  14
BRANCH  11  15
ATOM     15  O   UNL     1       2.552   3.638  20.938  0.00  0.00    +0.000 OA
ATOM     16  C   UNL     1       1.225   3.114  20.956  0.00  0.00    +0.000 C 
ENDBRANCH  11  15
BRANCH  12  17
ATOM     17  O   UNL     1       4.128   3.088  18.661  0.00  0.00    +0.000 OA
ATOM     18  C   UNL     1       3.401   2.069  17.994  0.00  0.00    +0.000 C 
ENDBRANCH  12  17
ENDBRANCH   5   9
ENDBRANCH   1   6
BRANCH   3  19
ATOM     19  C   UNL     1      -1.010  11.545  20.102  0.00  0.00    +0.000 C 
BRANCH  19  20
ATOM     20  C   UNL     1      -1.571  12.103  18.805  0.00  0.00    +0.000 C 
BRANCH  20  21
ATOM     21  C   UNL     1      -2.995  11.943  18.365  0.00  0.00    +0.000 A 
ATOM     22  C   UNL     1      -3.283  11.095  17.293  0.00  0.00    +0.000 A 
ATOM     23  C   UNL     1      -3.391   9.601  17.496  0.00  0.00    +0.000 C 
ATOM     24  N   UNL     1      -4.284  11.812  16.670  0.00  0.00    +0.000 N 
ATOM     25  C   UNL     1      -5.164  12.081  17.702  0.00  0.00    +0.000 A 
ATOM     26  C   UNL     1      -6.550  12.212  17.678  0.00  0.00    +0.000 A 
ATOM     27  C   UNL     1      -7.180  12.103  18.910  0.00  0.00    +0.000 A 
ATOM     28  C   UNL     1      -6.432  12.028  20.091  0.00  0.00    +0.000 A 
ATOM     29  C   UNL     1      -5.021  12.121  20.092  0.00  0.00    +0.000 A 
ATOM     30  C   UNL     1      -4.350  12.090  18.856  0.00  0.00    +0.000 A 
ATOM     31  H   UNL     1      -4.211  12.358  15.828  0.00  0.00    +0.000 HD
ENDBRANCH  20  21
ENDBRANCH  19  20
ENDBRANCH   3  19
TORSDOF 8
ENDMDL
MODEL 9
REMARK VINA RESULT:      -7.7      1.323      3.070
REMARK  Name = 
REMARK  12 active torsions:
REMARK  status: ('A' for Active; 'I' for Inactive)
REMARK    1  A    between atoms: C_1  and  O_2
REMARK    2  A    between atoms: O_2  and  C_3
REMARK    3  A    between atoms: C_5  and  C_6
REMARK    4  A    between atoms: C_7  and  C_8
REMARK    5  A    between atoms: N_10  and  C_11
REMARK    6  A    between atoms: C_11  and  C_12
REMARK    7  A    between atoms: C_12  and  C_13
REMARK    8  A    between atoms: C_14  and  C_15
REMARK    9  A    between atoms: C_24  and  O_25
REMARK   10  A    between atoms: O_25  and  C_26
REMARK   11  A    between atoms: C_27  and  O_28
REMARK   12  A    between atoms: O_28  and  C_29
REMARK                            x       y       z     vdW  Elec       q    Type
REMARK                         _______ _______ _______ _____ _____    ______ ____
ROOT
ATOM      1  C   UNL     1       7.404   7.444  17.249  0.00  0.00    +0.000 C 
ATOM      2  O   UNL     1       7.967   6.829  16.351  0.00  0.00    +0.000 OA
ATOM      3  N   UNL     1       6.076   7.290  17.589  0.00  0.00    +0.000 N 
ATOM      4  H   UNL     1       5.706   7.822  18.362  0.00  0.00    +0.000 HD
ENDROOT
BRANCH   1   6
ATOM      5  C   UNL     1       8.358   9.724  17.715  0.00  0.00    +0.000 C 
ATOM      6  C   UNL     1       8.107   8.461  18.116  0.00  0.00    +0.000 C 
BRANCH   5   9
ATOM      7  C   UNL     1       9.714  11.891  20.597  0.00  0.00    +0.000 A 
ATOM      8  C   UNL     1       8.963  10.927  19.888  0.00  0.00    +0.000 A 
ATOM      9  C   UNL     1       9.045  10.795  18.497  0.00  0.00    +0.000 A 
ATOM     10  C   UNL     1       9.839  11.740  17.825  0.00  0.00    +0.000 A 
ATOM     11  C   UNL     1      10.558  12.741  18.504  0.00  0.00    +0.000 A 
ATOM     12  C   UNL     1      10.507  12.832  19.904  0.00  0.00    +0.000 A 
BRANCH   7  14
ATOM     13  C   UNL     1       8.351  11.754  22.533  0.00  0.00    +0.000 C 
ATOM     14  O   UNL     1       9.650  11.950  21.972  0.00  0.00    +0.000 OA
ENDBRANCH   7  14
BRANCH  11  15
ATOM     15  O   UNL     1      11.238  13.582  17.654  0.00  0.00    +0.000 OA
ATOM     16  C   UNL     1      12.045  12.998  16.634  0.00  0.00    +0.000 C 
ENDBRANCH  11  15
BRANCH  12  17
ATOM     17  O   UNL     1      11.200  13.875  20.462  0.00  0.00    +0.000 OA
ATOM     18  C   UNL     1      10.593  15.108  20.814  0.00  0.00    +0.000 C 
ENDBRANCH  12  17
ENDBRANCH   5   9
ENDBRANCH   1   6
BRANCH   3  19
ATOM     19  C   UNL     1       5.103   6.616  16.762  0.00  0.00    +0.000 C 
BRANCH  19  20
ATOM     20  C   UNL     1       4.953   5.111  16.909  0.00  0.00    +0.000 C 
BRANCH  20  21
ATOM     21  C   UNL     1       3.800   4.442  17.597  0.00  0.00    +0.000 A 
ATOM     22  C   UNL     1       3.498   3.116  17.282  0.00  0.00    +0.000 A 
ATOM     23  C   UNL     1       4.270   1.977  17.907  0.00  0.00    +0.000 C 
ATOM     24  N   UNL     1       2.119   3.158  17.319  0.00  0.00    +0.000 N 
ATOM     25  C   UNL     1       1.858   3.741  18.545  0.00  0.00    +0.000 A 
ATOM     26  C   UNL     1       0.790   3.540  19.416  0.00  0.00    +0.000 A 
ATOM     27  C   UNL     1       0.995   3.973  20.720  0.00  0.00    +0.000 A 
ATOM     28  C   UNL     1       2.143   4.698  21.060  0.00  0.00    +0.000 A 
ATOM     29  C   UNL     1       3.105   5.076  20.094  0.00  0.00    +0.000 A 
ATOM     30  C   UNL     1       2.998   4.535  18.800  0.00  0.00    +0.000 A 
ATOM     31  H   UNL     1       1.488   3.174  16.536  0.00  0.00    +0.000 HD
ENDBRANCH  20  21
ENDBRANCH  19  20
ENDBRANCH   3  19
TORSDOF 8
ENDMDL
