MODEL 1
REMARK VINA RESULT:      -7.5      0.000      0.000
REMARK  Name = 
REMARK  10 active torsions:
REMARK  status: ('A' for Active; 'I' for Inactive)
REMARK    1  A    between atoms: C_1  and  C_2
REMARK    2  A    between atoms: C_2  and  C_3
REMARK    3  A    between atoms: C_6  and  C_7
REMARK    4  A    between atoms: C_7  and  C_8
REMARK    5  A    between atoms: C_9  and  C_10
REMARK    6  A    between atoms: C_18  and  C_19
REMARK    7  A    between atoms: C_20  and  C_21
REMARK    8  A    between atoms: C_24  and  C_25
REMARK    9  A    between atoms: C_26  and  O_27
REMARK   10  A    between atoms: O_27  and  C_28
REMARK                            x       y       z     vdW  Elec       q    Type
REMARK                         _______ _______ _______ _____ _____    ______ ____
ROOT
ATOM      1  C   UNL     1      -0.508  10.947  20.527  0.00  0.00    +0.000 A 
ATOM      2  N   UNL     1      -1.167  11.573  21.550  0.00  0.00    +0.000 NA
ATOM      3  C   UNL     1      -1.062  11.113  22.811  0.00  0.00    +0.000 A 
ATOM      4  C   UNL     1      -0.351   9.992  23.175  0.00  0.00    +0.000 A 
ATOM      5  C   UNL     1       0.317   9.357  22.129  0.00  0.00    +0.000 A 
ATOM      6  N   UNL     1       1.019   8.181  22.143  0.00  0.00    +0.000 N 
ATOM      7  C   UNL     1       1.464   7.874  20.885  0.00  0.00    +0.000 A 
ATOM      8  C   UNL     1       2.066   6.709  20.407  0.00  0.00    +0.000 A 
ATOM      9  C   UNL     1       2.538   6.667  19.078  0.00  0.00    +0.000 A 
ATOM     10  C   UNL     1       2.399   7.811  18.267  0.00  0.00    +0.000 A 
ATOM     11  C   UNL     1       1.775   8.968  18.781  0.00  0.00    +0.000 A 
ATOM     12  C   UNL     1       1.220   8.978  20.082  0.00  0.00    +0.000 A 
ATOM     13  C   UNL     1       0.324   9.841  20.812  0.00  0.00    +0.000 A 
ATOM     14  H   UNL     1       1.138   7.594  22.955  0.00  0.00    +0.000 HD
ENDROOT
BRANCH   9  15
ATOM     15  C   UNL     1       3.206   5.443  18.634  0.00  0.00    +0.000 A 
ATOM     16  C   UNL     1       4.550   4.962  18.726  0.00  0.00    +0.000 A 
ATOM     17  C   UNL     1       5.771   5.561  19.317  0.00  0.00    +0.000 C 
ATOM     18  N   UNL     1       4.680   3.761  18.141  0.00  0.00    +0.000 NA
ATOM     19  O   UNL     1       3.441   3.439  17.651  0.00  0.00    +0.000 OA
ATOM     20  C   UNL     1       2.562   4.431  17.939  0.00  0.00    +0.000 A 
ATOM     21  C   UNL     1       1.184   4.207  17.452  0.00  0.00    +0.000 C 
ENDBRANCH   9  15
BRANCH   1  26
ATOM     22  C   UNL     1      -1.733  10.938  18.179  0.00  0.00    +0.000 A 
ATOM     23  N   UNL     1      -1.690  11.689  17.070  0.00  0.00    +0.000 NA
ATOM     24  N   UNL     1      -0.885  12.705  17.396  0.00  0.00    +0.000 N 
ATOM     25  C   UNL     1      -0.364  12.623  18.655  0.00  0.00    +0.000 A 
ATOM     26  C   UNL     1      -0.819  11.416  19.180  0.00  0.00    +0.000 A 
ATOM     27  H   UNL     1      -0.751  13.445  16.714  0.00  0.00    +0.000 HD
BRANCH  22  29
ATOM     28  C   UNL     1      -4.007   9.981  17.532  0.00  0.00    +0.000 C 
ATOM     29  C   UNL     1      -2.660   9.762  18.198  0.00  0.00    +0.000 C 
ENDBRANCH  22  29
BRANCH  25  30
ATOM     30  C   UNL     1       0.492  13.721  19.199  0.00  0.00    +0.000 C 
ATOM     31  C   UNL     1       1.927  13.634  18.693  0.00  0.00    +0.000 C 
ENDBRANCH  25  30
ENDBRANCH   1  26
BRANCH  10  32
ATOM     32  O   UNL     1       2.869   7.729  16.978  0.00  0.00    +0.000 OA
ATOM     33  C   UNL     1       4.278   7.788  16.776  0.00  0.00    +0.000 C 
ENDBRANCH  10  32
TORSDOF 5
ENDMDL
MODEL 2
REMARK VINA RESULT:      -7.4      2.465      8.003
REMARK  Name = 
REMARK  10 active torsions:
REMARK  status: ('A' for Active; 'I' for Inactive)
REMARK    1  A    between atoms: C_1  and  C_2
REMARK    2  A    between atoms: C_2  and  C_3
REMARK    3  A    between atoms: C_6  and  C_7
REMARK    4  A    between atoms: C_7  and  C_8
REMARK    5  A    between atoms: C_9  and  C_10
REMARK    6  A    between atoms: C_18  and  C_19
REMARK    7  A    between atoms: C_20  and  C_21
REMARK    8  A    between atoms: C_24  and  C_25
REMARK    9  A    between atoms: C_26  and  O_27
REMARK   10  A    between atoms: O_27  and  C_28
REMARK                            x       y       z     vdW  Elec       q    Type
REMARK                         _______ _______ _______ _____ _____    ______ ____
ROOT
ATOM      1  C   UNL     1       4.899   4.547  18.427  0.00  0.00    +0.000 A 
ATOM      2  N   UNL     1       5.363   3.311  18.785  0.00  0.00    +0.000 NA
ATOM      3  C   UNL     1       4.723   2.589  19.724  0.00  0.00    +0.000 A 
ATOM      4  C   UNL     1       3.615   3.019  20.418  0.00  0.00    +0.000 A 
ATOM      5  C   UNL     1       3.148   4.281  20.051  0.00  0.00    +0.000 A 
ATOM      6  N   UNL     1       2.141   5.023  20.609  0.00  0.00    +0.000 N 
ATOM      7  C   UNL     1       2.045   6.241  19.991  0.00  0.00    +0.000 A 
ATOM      8  C   UNL     1       1.287   7.362  20.333  0.00  0.00    +0.000 A 
ATOM      9  C   UNL     1       1.273   8.479  19.472  0.00  0.00    +0.000 A 
ATOM     10  C   UNL     1       2.018   8.431  18.277  0.00  0.00    +0.000 A 
ATOM     11  C   UNL     1       2.782   7.284  17.968  0.00  0.00    +0.000 A 
ATOM     12  C   UNL     1       2.869   6.202  18.876  0.00  0.00    +0.000 A 
ATOM     13  C   UNL     1       3.713   5.041  19.015  0.00  0.00    +0.000 A 
ATOM     14  H   UNL     1       1.591   4.736  21.405  0.00  0.00    +0.000 HD
ENDROOT
BRANCH   9  15
ATOM     15  C   UNL     1       0.427   9.613  19.845  0.00  0.00    +0.000 A 
ATOM     16  C   UNL     1      -0.612  10.334  19.176  0.00  0.00    +0.000 A 
ATOM     17  C   UNL     1      -1.204  10.178  17.825  0.00  0.00    +0.000 C 
ATOM     18  N   UNL     1      -1.087  11.329  19.941  0.00  0.00    +0.000 NA
ATOM     19  O   UNL     1      -0.372  11.287  21.110  0.00  0.00    +0.000 OA
ATOM     20  C   UNL     1       0.528  10.273  21.061  0.00  0.00    +0.000 A 
ATOM     21  C   UNL     1       1.374  10.128  22.265  0.00  0.00    +0.000 C 
ENDBRANCH   9  15
BRANCH   1  26
ATOM     22  C   UNL     1       6.892   6.163  17.768  0.00  0.00    +0.000 A 
ATOM     23  N   UNL     1       7.375   6.678  16.629  0.00  0.00    +0.000 NA
ATOM     24  N   UNL     1       6.666   6.072  15.671  0.00  0.00    +0.000 N 
ATOM     25  C   UNL     1       5.709   5.218  16.140  0.00  0.00    +0.000 A 
ATOM     26  C   UNL     1       5.753   5.319  17.528  0.00  0.00    +0.000 A 
ATOM     27  H   UNL     1       6.906   6.267  14.705  0.00  0.00    +0.000 HD
BRANCH  22  29
ATOM     28  C   UNL     1       8.139   5.391  19.854  0.00  0.00    +0.000 C 
ATOM     29  C   UNL     1       7.560   6.544  19.053  0.00  0.00    +0.000 C 
ENDBRANCH  22  29
BRANCH  25  30
ATOM     30  C   UNL     1       4.885   4.404  15.196  0.00  0.00    +0.000 C 
ATOM     31  C   UNL     1       5.626   4.107  13.897  0.00  0.00    +0.000 C 
ENDBRANCH  25  30
ENDBRANCH   1  26
BRANCH  10  32
ATOM     32  O   UNL     1       1.981   9.540  17.466  0.00  0.00    +0.000 OA
ATOM     33  C   UNL     1       2.659  10.712  17.907  0.00  0.00    +0.000 C 
ENDBRANCH  10  32
TORSDOF 5
ENDMDL
MODEL 3
REMARK VINA RESULT:      -7.2      2.680      8.004
REMARK  Name = 
REMARK  10 active torsions:
REMARK  status: ('A' for Active; 'I' for Inactive)
REMARK    1  A    between atoms: C_1  and  C_2
REMARK    2  A    between atoms: C_2  and  C_3
REMARK    3  A    between atoms: C_6  and  C_7
REMARK    4  A    between atoms: C_7  and  C_8
REMARK    5  A    between atoms: C_9  and  C_10
REMARK    6  A    between atoms: C_18  and  C_19
REMARK    7  A    between atoms: C_20  and  C_21
REMARK    8  A    between atoms: C_24  and  C_25
REMARK    9  A    between atoms: C_26  and  O_27
REMARK   10  A    between atoms: O_27  and  C_28
REMARK                            x       y       z     vdW  Elec       q    Type
REMARK                         _______ _______ _______ _____ _____    ______ ____
ROOT
ATOM      1  C   UNL     1       4.237   4.012  17.578  0.00  0.00    +0.000 A 
ATOM      2  N   UNL     1       4.414   2.665  17.419  0.00  0.00    +0.000 NA
ATOM      3  C   UNL     1       3.596   1.793  18.038  0.00  0.00    +0.000 A 
ATOM      4  C   UNL     1       2.575   2.151  18.889  0.00  0.00    +0.000 A 
ATOM      5  C   UNL     1       2.401   3.525  19.049  0.00  0.00    +0.000 A 
ATOM      6  N   UNL     1       1.550   4.193  19.888  0.00  0.00    +0.000 N 
ATOM      7  C   UNL     1       1.739   5.545  19.785  0.00  0.00    +0.000 A 
ATOM      8  C   UNL     1       1.221   6.585  20.558  0.00  0.00    +0.000 A 
ATOM      9  C   UNL     1       1.480   7.921  20.188  0.00  0.00    +0.000 A 
ATOM     10  C   UNL     1       2.249   8.174  19.035  0.00  0.00    +0.000 A 
ATOM     11  C   UNL     1       2.767   7.098  18.283  0.00  0.00    +0.000 A 
ATOM     12  C   UNL     1       2.585   5.760  18.706  0.00  0.00    +0.000 A 
ATOM     13  C   UNL     1       3.157   4.484  18.358  0.00  0.00    +0.000 A 
ATOM     14  H   UNL     1       0.917   3.748  20.537  0.00  0.00    +0.000 HD
ENDROOT
BRANCH   9  15
ATOM     15  C   UNL     1       0.876   8.979  21.000  0.00  0.00    +0.000 A 
ATOM     16  C   UNL     1       1.144   9.497  22.306  0.00  0.00    +0.000 A 
ATOM     17  C   UNL     1       2.156   9.124  23.324  0.00  0.00    +0.000 C 
ATOM     18  N   UNL     1       0.288  10.480  22.626  0.00  0.00    +0.000 NA
ATOM     19  O   UNL     1      -0.554  10.618  21.554  0.00  0.00    +0.000 OA
ATOM     20  C   UNL     1      -0.212   9.732  20.585  0.00  0.00    +0.000 A 
ATOM     21  C   UNL     1      -1.056   9.773  19.372  0.00  0.00    +0.000 C 
ENDBRANCH   9  15
BRANCH   1  26
ATOM     22  C   UNL     1       6.309   5.662  17.608  0.00  0.00    +0.000 A 
ATOM     23  N   UNL     1       7.046   6.296  16.685  0.00  0.00    +0.000 NA
ATOM     24  N   UNL     1       6.597   5.814  15.522  0.00  0.00    +0.000 N 
ATOM     25  C   UNL     1       5.566   4.927  15.646  0.00  0.00    +0.000 A 
ATOM     26  C   UNL     1       5.273   4.868  17.006  0.00  0.00    +0.000 A 
ATOM     27  H   UNL     1       7.060   6.115  14.671  0.00  0.00    +0.000 HD
BRANCH  22  29
ATOM     28  C   UNL     1       8.107   5.711  19.416  0.00  0.00    +0.000 C 
ATOM     29  C   UNL     1       6.643   5.883  19.051  0.00  0.00    +0.000 C 
ENDBRANCH  22  29
BRANCH  25  30
ATOM     30  C   UNL     1       5.004   4.239  14.444  0.00  0.00    +0.000 C 
ATOM     31  C   UNL     1       6.095   3.794  13.476  0.00  0.00    +0.000 C 
ENDBRANCH  25  30
ENDBRANCH   1  26
BRANCH  10  32
ATOM     32  O   UNL     1       2.482   9.489  18.710  0.00  0.00    +0.000 OA
ATOM     33  C   UNL     1       1.835  10.016  17.555  0.00  0.00    +0.000 C 
ENDBRANCH  10  32
TORSDOF 5
ENDMDL
MODEL 4
REMARK VINA RESULT:      -7.2      2.544      8.122
REMARK  Name = 
REMARK  10 active torsions:
REMARK  status: ('A' for Active; 'I' for Inactive)
REMARK    1  A    between atoms: C_1  and  C_2
REMARK    2  A    between atoms: C_2  and  C_3
REMARK    3  A    between atoms: C_6  and  C_7
REMARK    4  A    between atoms: C_7  and  C_8
REMARK    5  A    between atoms: C_9  and  C_10
REMARK    6  A    between atoms: C_18  and  C_19
REMARK    7  A    between atoms: C_20  and  C_21
REMARK    8  A    between atoms: C_24  and  C_25
REMARK    9  A    between atoms: C_26  and  O_27
REMARK   10  A    between atoms: O_27  and  C_28
REMARK                            x       y       z     vdW  Elec       q    Type
REMARK                         _______ _______ _______ _____ _____    ______ ____
ROOT
ATOM      1  C   UNL     1       4.281   4.012  17.662  0.00  0.00    +0.000 A 
ATOM      2  N   UNL     1       4.462   2.662  17.540  0.00  0.00    +0.000 NA
ATOM      3  C   UNL     1       3.622   1.804  18.150  0.00  0.00    +0.000 A 
ATOM      4  C   UNL     1       2.574   2.181  18.958  0.00  0.00    +0.000 A 
ATOM      5  C   UNL     1       2.395   3.558  19.081  0.00  0.00    +0.000 A 
ATOM      6  N   UNL     1       1.518   4.246  19.876  0.00  0.00    +0.000 N 
ATOM      7  C   UNL     1       1.712   5.595  19.749  0.00  0.00    +0.000 A 
ATOM      8  C   UNL     1       1.169   6.652  20.481  0.00  0.00    +0.000 A 
ATOM      9  C   UNL     1       1.442   7.979  20.090  0.00  0.00    +0.000 A 
ATOM     10  C   UNL     1       2.249   8.206  18.958  0.00  0.00    +0.000 A 
ATOM     11  C   UNL     1       2.791   7.113  18.248  0.00  0.00    +0.000 A 
ATOM     12  C   UNL     1       2.593   5.786  18.694  0.00  0.00    +0.000 A 
ATOM     13  C   UNL     1       3.176   4.501  18.395  0.00  0.00    +0.000 A 
ATOM     14  H   UNL     1       0.863   3.815  20.514  0.00  0.00    +0.000 HD
ENDROOT
BRANCH   9  15
ATOM     15  C   UNL     1       0.812   9.055  20.857  0.00  0.00    +0.000 A 
ATOM     16  C   UNL     1      -0.256   9.968  20.587  0.00  0.00    +0.000 A 
ATOM     17  C   UNL     1      -1.117  10.147  19.393  0.00  0.00    +0.000 C 
ATOM     18  N   UNL     1      -0.461  10.800  21.619  0.00  0.00    +0.000 NA
ATOM     19  O   UNL     1       0.464  10.460  22.573  0.00  0.00    +0.000 OA
ATOM     20  C   UNL     1       1.223   9.427  22.128  0.00  0.00    +0.000 A 
ATOM     21  C   UNL     1       2.271   8.971  23.067  0.00  0.00    +0.000 C 
ENDBRANCH   9  15
BRANCH   1  26
ATOM     22  C   UNL     1       6.389   5.614  17.723  0.00  0.00    +0.000 A 
ATOM     23  N   UNL     1       7.141   6.248  16.812  0.00  0.00    +0.000 NA
ATOM     24  N   UNL     1       6.683   5.797  15.640  0.00  0.00    +0.000 N 
ATOM     25  C   UNL     1       5.632   4.931  15.748  0.00  0.00    +0.000 A 
ATOM     26  C   UNL     1       5.336   4.854  17.106  0.00  0.00    +0.000 A 
ATOM     27  H   UNL     1       7.153   6.102  14.795  0.00  0.00    +0.000 HD
BRANCH  22  29
ATOM     28  C   UNL     1       8.175   5.540  19.542  0.00  0.00    +0.000 C 
ATOM     29  C   UNL     1       6.726   5.802  19.170  0.00  0.00    +0.000 C 
ENDBRANCH  22  29
BRANCH  25  30
ATOM     30  C   UNL     1       5.056   4.277  14.534  0.00  0.00    +0.000 C 
ATOM     31  C   UNL     1       6.137   3.840  13.550  0.00  0.00    +0.000 C 
ENDBRANCH  25  30
ENDBRANCH   1  26
BRANCH  10  32
ATOM     32  O   UNL     1       2.494   9.513  18.611  0.00  0.00    +0.000 OA
ATOM     33  C   UNL     1       1.775  10.057  17.508  0.00  0.00    +0.000 C 
ENDBRANCH  10  32
TORSDOF 5
ENDMDL
MODEL 5
REMARK VINA RESULT:      -7.1      2.452      7.908
REMARK  Name = 
REMARK  10 active torsions:
REMARK  status: ('A' for Active; 'I' for Inactive)
REMARK    1  A    between atoms: C_1  and  C_2
REMARK    2  A    between atoms: C_2  and  C_3
REMARK    3  A    between atoms: C_6  and  C_7
REMARK    4  A    between atoms: C_7  and  C_8
REMARK    5  A    between atoms: C_9  and  C_10
REMARK    6  A    between atoms: C_18  and  C_19
REMARK    7  A    between atoms: C_20  and  C_21
REMARK    8  A    between atoms: C_24  and  C_25
REMARK    9  A    between atoms: C_26  and  O_27
REMARK   10  A    between atoms: O_27  and  C_28
REMARK                            x       y       z     vdW  Elec       q    Type
REMARK                         _______ _______ _______ _____ _____    ______ ____
ROOT
ATOM      1  C   UNL     1       4.896   4.618  18.452  0.00  0.00    +0.000 A 
ATOM      2  N   UNL     1       5.317   3.376  18.841  0.00  0.00    +0.000 NA
ATOM      3  C   UNL     1       4.635   2.686  19.774  0.00  0.00    +0.000 A 
ATOM      4  C   UNL     1       3.522   3.157  20.433  0.00  0.00    +0.000 A 
ATOM      5  C   UNL     1       3.098   4.424  20.035  0.00  0.00    +0.000 A 
ATOM      6  N   UNL     1       2.098   5.201  20.556  0.00  0.00    +0.000 N 
ATOM      7  C   UNL     1       2.049   6.410  19.917  0.00  0.00    +0.000 A 
ATOM      8  C   UNL     1       1.313   7.556  20.221  0.00  0.00    +0.000 A 
ATOM      9  C   UNL     1       1.351   8.659  19.343  0.00  0.00    +0.000 A 
ATOM     10  C   UNL     1       2.123   8.572  18.169  0.00  0.00    +0.000 A 
ATOM     11  C   UNL     1       2.864   7.401  17.897  0.00  0.00    +0.000 A 
ATOM     12  C   UNL     1       2.900   6.332  18.823  0.00  0.00    +0.000 A 
ATOM     13  C   UNL     1       3.708   5.152  19.002  0.00  0.00    +0.000 A 
ATOM     14  H   UNL     1       1.520   4.941  21.342  0.00  0.00    +0.000 HD
ENDROOT
BRANCH   9  15
ATOM     15  C   UNL     1       0.526   9.821  19.677  0.00  0.00    +0.000 A 
ATOM     16  C   UNL     1       0.538  10.766  20.751  0.00  0.00    +0.000 A 
ATOM     17  C   UNL     1       1.416  10.893  21.939  0.00  0.00    +0.000 C 
ATOM     18  N   UNL     1      -0.453  11.662  20.625  0.00  0.00    +0.000 NA
ATOM     19  O   UNL     1      -1.133  11.322  19.484  0.00  0.00    +0.000 OA
ATOM     20  C   UNL     1      -0.559  10.231  18.917  0.00  0.00    +0.000 A 
ATOM     21  C   UNL     1      -1.210   9.755  17.678  0.00  0.00    +0.000 C 
ENDBRANCH   9  15
BRANCH   1  26
ATOM     22  C   UNL     1       6.927   6.195  17.821  0.00  0.00    +0.000 A 
ATOM     23  N   UNL     1       7.460   6.668  16.685  0.00  0.00    +0.000 NA
ATOM     24  N   UNL     1       6.785   6.035  15.720  0.00  0.00    +0.000 N 
ATOM     25  C   UNL     1       5.802   5.205  16.179  0.00  0.00    +0.000 A 
ATOM     26  C   UNL     1       5.792   5.352  17.563  0.00  0.00    +0.000 A 
ATOM     27  H   UNL     1       7.065   6.195  14.758  0.00  0.00    +0.000 HD
BRANCH  22  29
ATOM     28  C   UNL     1       8.213   5.504  19.911  0.00  0.00    +0.000 C 
ATOM     29  C   UNL     1       7.547   6.614  19.118  0.00  0.00    +0.000 C 
ENDBRANCH  22  29
BRANCH  25  30
ATOM     30  C   UNL     1       5.009   4.365  15.230  0.00  0.00    +0.000 C 
ATOM     31  C   UNL     1       5.804   4.008  13.978  0.00  0.00    +0.000 C 
ENDBRANCH  25  30
ENDBRANCH   1  26
BRANCH  10  32
ATOM     32  O   UNL     1       2.136   9.668  17.340  0.00  0.00    +0.000 OA
ATOM     33  C   UNL     1       2.725  10.870  17.830  0.00  0.00    +0.000 C 
ENDBRANCH  10  32
TORSDOF 5
ENDMDL
MODEL 6
REMARK VINA RESULT:      -7.1      0.368      2.308
REMARK  Name = 
REMARK  10 active torsions:
REMARK  status: ('A' for Active; 'I' for Inactive)
REMARK    1  A    between atoms: C_1  and  C_2
REMARK    2  A    between atoms: C_2  and  C_3
REMARK    3  A    between atoms: C_6  and  C_7
REMARK    4  A    between atoms: C_7  and  C_8
REMARK    5  A    between atoms: C_9  and  C_10
REMARK    6  A    between atoms: C_18  and  C_19
REMARK    7  A    between atoms: C_20  and  C_21
REMARK    8  A    between atoms: C_24  and  C_25
REMARK    9  A    between atoms: C_26  and  O_27
REMARK   10  A    between atoms: O_27  and  C_28
REMARK                            x       y       z     vdW  Elec       q    Type
REMARK                         _______ _______ _______ _____ _____    ______ ____
ROOT
ATOM      1  C   UNL     1      -0.445  11.040  20.645  0.00  0.00    +0.000 A 
ATOM      2  N   UNL     1      -1.130  11.632  21.670  0.00  0.00    +0.000 NA
ATOM      3  C   UNL     1      -1.134  11.078  22.897  0.00  0.00    +0.000 A 
ATOM      4  C   UNL     1      -0.515   9.892  23.220  0.00  0.00    +0.000 A 
ATOM      5  C   UNL     1       0.180   9.291  22.171  0.00  0.00    +0.000 A 
ATOM      6  N   UNL     1       0.809   8.075  22.140  0.00  0.00    +0.000 N 
ATOM      7  C   UNL     1       1.315   7.829  20.892  0.00  0.00    +0.000 A 
ATOM      8  C   UNL     1       1.877   6.666  20.365  0.00  0.00    +0.000 A 
ATOM      9  C   UNL     1       2.431   6.687  19.068  0.00  0.00    +0.000 A 
ATOM     10  C   UNL     1       2.413   7.892  18.337  0.00  0.00    +0.000 A 
ATOM     11  C   UNL     1       1.826   9.047  18.897  0.00  0.00    +0.000 A 
ATOM     12  C   UNL     1       1.189   9.001  20.159  0.00  0.00    +0.000 A 
ATOM     13  C   UNL     1       0.301   9.865  20.897  0.00  0.00    +0.000 A 
ATOM     14  H   UNL     1       0.840   7.425  22.912  0.00  0.00    +0.000 HD
ENDROOT
BRANCH   9  15
ATOM     15  C   UNL     1       3.053   5.458  18.575  0.00  0.00    +0.000 A 
ATOM     16  C   UNL     1       4.378   4.924  18.645  0.00  0.00    +0.000 A 
ATOM     17  C   UNL     1       5.621   5.454  19.255  0.00  0.00    +0.000 C 
ATOM     18  N   UNL     1       4.463   3.743  18.013  0.00  0.00    +0.000 NA
ATOM     19  O   UNL     1       3.212   3.485  17.515  0.00  0.00    +0.000 OA
ATOM     20  C   UNL     1       2.371   4.498  17.843  0.00  0.00    +0.000 A 
ATOM     21  C   UNL     1       0.985   4.344  17.352  0.00  0.00    +0.000 C 
ENDBRANCH   9  15
BRANCH   1  26
ATOM     22  C   UNL     1       0.064  12.652  18.607  0.00  0.00    +0.000 A 
ATOM     23  N   UNL     1      -0.469  12.867  17.395  0.00  0.00    +0.000 NA
ATOM     24  N   UNL     1      -1.391  11.907  17.270  0.00  0.00    +0.000 N 
ATOM     25  C   UNL     1      -1.515  11.105  18.369  0.00  0.00    +0.000 A 
ATOM     26  C   UNL     1      -0.640  11.621  19.321  0.00  0.00    +0.000 A 
ATOM     27  H   UNL     1      -1.890  11.837  16.390  0.00  0.00    +0.000 HD
BRANCH  22  29
ATOM     28  C   UNL     1       2.479  13.341  18.166  0.00  0.00    +0.000 C 
ATOM     29  C   UNL     1       1.233  13.490  19.021  0.00  0.00    +0.000 C 
ENDBRANCH  22  29
BRANCH  25  30
ATOM     30  C   UNL     1      -2.448   9.938  18.359  0.00  0.00    +0.000 C 
ATOM     31  C   UNL     1      -3.053   9.698  16.979  0.00  0.00    +0.000 C 
ENDBRANCH  25  30
ENDBRANCH   1  26
BRANCH  10  32
ATOM     32  O   UNL     1       2.959   7.872  17.076  0.00  0.00    +0.000 OA
ATOM     33  C   UNL     1       4.378   7.929  16.962  0.00  0.00    +0.000 C 
ENDBRANCH  10  32
TORSDOF 5
ENDMDL
MODEL 7
REMARK VINA RESULT:      -7.0      2.657      7.834
REMARK  Name = 
REMARK  10 active torsions:
REMARK  status: ('A' for Active; 'I' for Inactive)
REMARK    1  A    between atoms: C_1  and  C_2
REMARK    2  A    between atoms: C_2  and  C_3
REMARK    3  A    between atoms: C_6  and  C_7
REMARK    4  A    between atoms: C_7  and  C_8
REMARK    5  A    between atoms: C_9  and  C_10
REMARK    6  A    between atoms: C_18  and  C_19
REMARK    7  A    between atoms: C_20  and  C_21
REMARK    8  A    between atoms: C_24  and  C_25
REMARK    9  A    between atoms: C_26  and  O_27
REMARK   10  A    between atoms: O_27  and  C_28
REMARK                            x       y       z     vdW  Elec       q    Type
REMARK                         _______ _______ _______ _____ _____    ______ ____
ROOT
ATOM      1  C   UNL     1       4.249   3.712  17.695  0.00  0.00    +0.000 A 
ATOM      2  N   UNL     1       4.377   2.355  17.587  0.00  0.00    +0.000 NA
ATOM      3  C   UNL     1       3.508   1.537  18.210  0.00  0.00    +0.000 A 
ATOM      4  C   UNL     1       2.477   1.962  19.017  0.00  0.00    +0.000 A 
ATOM      5  C   UNL     1       2.352   3.347  19.126  0.00  0.00    +0.000 A 
ATOM      6  N   UNL     1       1.505   4.076  19.917  0.00  0.00    +0.000 N 
ATOM      7  C   UNL     1       1.750   5.415  19.774  0.00  0.00    +0.000 A 
ATOM      8  C   UNL     1       1.251   6.500  20.496  0.00  0.00    +0.000 A 
ATOM      9  C   UNL     1       1.573   7.812  20.089  0.00  0.00    +0.000 A 
ATOM     10  C   UNL     1       2.384   7.995  18.953  0.00  0.00    +0.000 A 
ATOM     11  C   UNL     1       2.880   6.875  18.252  0.00  0.00    +0.000 A 
ATOM     12  C   UNL     1       2.634   5.560  18.714  0.00  0.00    +0.000 A 
ATOM     13  C   UNL     1       3.166   4.251  18.427  0.00  0.00    +0.000 A 
ATOM     14  H   UNL     1       0.837   3.678  20.561  0.00  0.00    +0.000 HD
ENDROOT
BRANCH   9  15
ATOM     15  C   UNL     1       0.988   8.919  20.847  0.00  0.00    +0.000 A 
ATOM     16  C   UNL     1       1.256   9.489  22.131  0.00  0.00    +0.000 A 
ATOM     17  C   UNL     1       2.249   9.137  23.175  0.00  0.00    +0.000 C 
ATOM     18  N   UNL     1       0.422  10.506  22.399  0.00  0.00    +0.000 NA
ATOM     19  O   UNL     1      -0.406  10.616  21.312  0.00  0.00    +0.000 OA
ATOM     20  C   UNL     1      -0.078   9.679  20.388  0.00  0.00    +0.000 A 
ATOM     21  C   UNL     1      -0.909   9.687  19.165  0.00  0.00    +0.000 C 
ENDBRANCH   9  15
BRANCH   1  26
ATOM     22  C   UNL     1       5.642   4.891  15.776  0.00  0.00    +0.000 A 
ATOM     23  N   UNL     1       6.753   5.640  15.716  0.00  0.00    +0.000 NA
ATOM     24  N   UNL     1       7.069   5.856  16.997  0.00  0.00    +0.000 N 
ATOM     25  C   UNL     1       6.238   5.241  17.889  0.00  0.00    +0.000 A 
ATOM     26  C   UNL     1       5.333   4.508  17.127  0.00  0.00    +0.000 A 
ATOM     27  H   UNL     1       7.858   6.461  17.197  0.00  0.00    +0.000 HD
BRANCH  22  29
ATOM     28  C   UNL     1       5.796   3.890  13.436  0.00  0.00    +0.000 C 
ATOM     29  C   UNL     1       4.942   4.566  14.494  0.00  0.00    +0.000 C 
ENDBRANCH  22  29
BRANCH  25  30
ATOM     30  C   UNL     1       6.410   5.449  19.359  0.00  0.00    +0.000 C 
ATOM     31  C   UNL     1       7.859   5.745  19.731  0.00  0.00    +0.000 C 
ENDBRANCH  25  30
ENDBRANCH   1  26
BRANCH  10  32
ATOM     32  O   UNL     1       2.677   9.288  18.590  0.00  0.00    +0.000 OA
ATOM     33  C   UNL     1       1.992   9.840  17.470  0.00  0.00    +0.000 C 
ENDBRANCH  10  32
TORSDOF 5
ENDMDL
MODEL 8
REMARK VINA RESULT:      -7.0      2.490      7.920
REMARK  Name = 
REMARK  10 active torsions:
REMARK  status: ('A' for Active; 'I' for Inactive)
REMARK    1  A    between atoms: C_1  and  C_2
REMARK    2  A    between atoms: C_2  and  C_3
REMARK    3  A    between atoms: C_6  and  C_7
REMARK    4  A    between atoms: C_7  and  C_8
REMARK    5  A    between atoms: C_9  and  C_10
REMARK    6  A    between atoms: C_18  and  C_19
REMARK    7  A    between atoms: C_20  and  C_21
REMARK    8  A    between atoms: C_24  and  C_25
REMARK    9  A    between atoms: C_26  and  O_27
REMARK   10  A    between atoms: O_27  and  C_28
REMARK                            x       y       z     vdW  Elec       q    Type
REMARK                         _______ _______ _______ _____ _____    ______ ____
ROOT
ATOM      1  C   UNL     1       4.240   3.765  17.786  0.00  0.00    +0.000 A 
ATOM      2  N   UNL     1       4.392   2.408  17.713  0.00  0.00    +0.000 NA
ATOM      3  C   UNL     1       3.532   1.590  18.349  0.00  0.00    +0.000 A 
ATOM      4  C   UNL     1       2.488   2.017  19.137  0.00  0.00    +0.000 A 
ATOM      5  C   UNL     1       2.338   3.401  19.211  0.00  0.00    +0.000 A 
ATOM      6  N   UNL     1       1.472   4.135  19.977  0.00  0.00    +0.000 N 
ATOM      7  C   UNL     1       1.695   5.474  19.803  0.00  0.00    +0.000 A 
ATOM      8  C   UNL     1       1.171   6.567  20.495  0.00  0.00    +0.000 A 
ATOM      9  C   UNL     1       1.474   7.874  20.059  0.00  0.00    +0.000 A 
ATOM     10  C   UNL     1       2.291   8.044  18.924  0.00  0.00    +0.000 A 
ATOM     11  C   UNL     1       2.812   6.916  18.255  0.00  0.00    +0.000 A 
ATOM     12  C   UNL     1       2.585   5.609  18.747  0.00  0.00    +0.000 A 
ATOM     13  C   UNL     1       3.142   4.303  18.496  0.00  0.00    +0.000 A 
ATOM     14  H   UNL     1       0.805   3.741  20.625  0.00  0.00    +0.000 HD
ENDROOT
BRANCH   9  15
ATOM     15  C   UNL     1       0.864   8.990  20.784  0.00  0.00    +0.000 A 
ATOM     16  C   UNL     1      -0.184   9.913  20.477  0.00  0.00    +0.000 A 
ATOM     17  C   UNL     1      -1.038  10.067  19.274  0.00  0.00    +0.000 C 
ATOM     18  N   UNL     1      -0.376  10.786  21.478  0.00  0.00    +0.000 NA
ATOM     19  O   UNL     1       0.538  10.462  22.447  0.00  0.00    +0.000 OA
ATOM     20  C   UNL     1       1.277   9.398  22.043  0.00  0.00    +0.000 A 
ATOM     21  C   UNL     1       2.312   8.955  23.002  0.00  0.00    +0.000 C 
ENDBRANCH   9  15
BRANCH   1  26
ATOM     22  C   UNL     1       5.626   4.926  15.851  0.00  0.00    +0.000 A 
ATOM     23  N   UNL     1       6.725   5.690  15.781  0.00  0.00    +0.000 NA
ATOM     24  N   UNL     1       7.031   5.937  17.059  0.00  0.00    +0.000 N 
ATOM     25  C   UNL     1       6.204   5.328  17.959  0.00  0.00    +0.000 A 
ATOM     26  C   UNL     1       5.315   4.565  17.208  0.00  0.00    +0.000 A 
ATOM     27  H   UNL     1       7.810   6.559  17.251  0.00  0.00    +0.000 HD
BRANCH  22  29
ATOM     28  C   UNL     1       5.793   3.829  13.555  0.00  0.00    +0.000 C 
ATOM     29  C   UNL     1       4.937   4.563  14.572  0.00  0.00    +0.000 C 
ENDBRANCH  22  29
BRANCH  25  30
ATOM     30  C   UNL     1       6.365   5.568  19.426  0.00  0.00    +0.000 C 
ATOM     31  C   UNL     1       7.829   5.556  19.852  0.00  0.00    +0.000 C 
ENDBRANCH  25  30
ENDBRANCH   1  26
BRANCH  10  32
ATOM     32  O   UNL     1       2.565   9.333  18.533  0.00  0.00    +0.000 OA
ATOM     33  C   UNL     1       1.818   9.874  17.447  0.00  0.00    +0.000 C 
ENDBRANCH  10  32
TORSDOF 5
ENDMDL
MODEL 9
REMARK VINA RESULT:      -7.0      0.520      1.540
REMARK  Name = 
REMARK  10 active torsions:
REMARK  status: ('A' for Active; 'I' for Inactive)
REMARK    1  A    between atoms: C_1  and  C_2
REMARK    2  A    between atoms: C_2  and  C_3
REMARK    3  A    between atoms: C_6  and  C_7
REMARK    4  A    between atoms: C_7  and  C_8
REMARK    5  A    between atoms: C_9  and  C_10
REMARK    6  A    between atoms: C_18  and  C_19
REMARK    7  A    between atoms: C_20  and  C_21
REMARK    8  A    between atoms: C_24  and  C_25
REMARK    9  A    between atoms: C_26  and  O_27
REMARK   10  A    between atoms: O_27  and  C_28
REMARK                            x       y       z     vdW  Elec       q    Type
REMARK                         _______ _______ _______ _____ _____    ______ ____
ROOT
ATOM      1  C   UNL     1      -0.465  10.979  20.580  0.00  0.00    +0.000 A 
ATOM      2  N   UNL     1      -1.106  11.630  21.598  0.00  0.00    +0.000 NA
ATOM      3  C   UNL     1      -1.032  11.162  22.859  0.00  0.00    +0.000 A 
ATOM      4  C   UNL     1      -0.374  10.011  23.227  0.00  0.00    +0.000 A 
ATOM      5  C   UNL     1       0.276   9.350  22.185  0.00  0.00    +0.000 A 
ATOM      6  N   UNL     1       0.927   8.145  22.202  0.00  0.00    +0.000 N 
ATOM      7  C   UNL     1       1.370   7.822  20.948  0.00  0.00    +0.000 A 
ATOM      8  C   UNL     1       1.926   6.634  20.472  0.00  0.00    +0.000 A 
ATOM      9  C   UNL     1       2.408   6.575  19.147  0.00  0.00    +0.000 A 
ATOM     10  C   UNL     1       2.327   7.726  18.338  0.00  0.00    +0.000 A 
ATOM     11  C   UNL     1       1.748   8.907  18.850  0.00  0.00    +0.000 A 
ATOM     12  C   UNL     1       1.181   8.938  20.145  0.00  0.00    +0.000 A 
ATOM     13  C   UNL     1       0.317   9.837  20.870  0.00  0.00    +0.000 A 
ATOM     14  H   UNL     1       1.012   7.551  23.014  0.00  0.00    +0.000 HD
ENDROOT
BRANCH   9  15
ATOM     15  C   UNL     1       3.028   5.325  18.706  0.00  0.00    +0.000 A 
ATOM     16  C   UNL     1       2.520   4.125  18.116  0.00  0.00    +0.000 A 
ATOM     17  C   UNL     1       1.143   3.719  17.742  0.00  0.00    +0.000 C 
ATOM     18  N   UNL     1       3.500   3.233  17.901  0.00  0.00    +0.000 NA
ATOM     19  O   UNL     1       4.655   3.820  18.349  0.00  0.00    +0.000 OA
ATOM     20  C   UNL     1       4.384   5.060  18.828  0.00  0.00    +0.000 A 
ATOM     21  C   UNL     1       5.552   5.798  19.354  0.00  0.00    +0.000 C 
ENDBRANCH   9  15
BRANCH   1  26
ATOM     22  C   UNL     1      -1.617  10.987  18.195  0.00  0.00    +0.000 A 
ATOM     23  N   UNL     1      -1.553  11.757  17.100  0.00  0.00    +0.000 NA
ATOM     24  N   UNL     1      -0.775  12.780  17.466  0.00  0.00    +0.000 N 
ATOM     25  C   UNL     1      -0.291  12.686  18.739  0.00  0.00    +0.000 A 
ATOM     26  C   UNL     1      -0.742  11.464  19.232  0.00  0.00    +0.000 A 
ATOM     27  H   UNL     1      -0.632  13.533  16.801  0.00  0.00    +0.000 HD
BRANCH  22  29
ATOM     28  C   UNL     1      -3.258   9.564  16.859  0.00  0.00    +0.000 C 
ATOM     29  C   UNL     1      -2.525   9.796  18.168  0.00  0.00    +0.000 C 
ENDBRANCH  22  29
BRANCH  25  30
ATOM     30  C   UNL     1       0.530  13.789  19.326  0.00  0.00    +0.000 C 
ATOM     31  C   UNL     1       0.054  15.164  18.871  0.00  0.00    +0.000 C 
ENDBRANCH  25  30
ENDBRANCH   1  26
BRANCH  10  32
ATOM     32  O   UNL     1       2.805   7.627  17.054  0.00  0.00    +0.000 OA
ATOM     33  C   UNL     1       4.190   7.881  16.835  0.00  0.00    +0.000 C 
ENDBRANCH  10  32
TORSDOF 5
ENDMDL
