MODEL 1
REMARK VINA RESULT:      -7.3      0.000      0.000
REMARK  Name = 
REMARK  5 active torsions:
REMARK  status: ('A' for Active; 'I' for Inactive)
REMARK    1  A    between atoms: C_1  and  S_2
REMARK    2  A    between atoms: S_2  and  C_3
REMARK    3  A    between atoms: C_8  and  N_9
REMARK    4  A    between atoms: C_10  and  C_12
REMARK    5  A    between atoms: C_15  and  N_16
REMARK                            x       y       z     vdW  Elec       q    Type
REMARK                         _______ _______ _______ _____ _____    ______ ____
ROOT
ATOM      1  N   UNL     1       3.549   4.036  17.726  0.00  0.00    +0.000 N 
ATOM      2  C   UNL     1       4.927   4.144  17.824  0.00  0.00    +0.000 C 
ATOM      3  O   UNL     1       5.593   3.944  18.833  0.00  0.00    +0.000 OA
ATOM      4  H   UNL     1       3.146   3.813  16.826  0.00  0.00    +0.000 HD
ENDROOT
BRANCH   1  10
ATOM      5  C   UNL     1       2.254   4.958  19.603  0.00  0.00    +0.000 A 
ATOM      6  C   UNL     1       1.476   4.695  20.747  0.00  0.00    +0.000 A 
ATOM      7  C   UNL     1       1.205   3.386  21.161  0.00  0.00    +0.000 A 
ATOM      8  C   UNL     1       1.703   2.314  20.434  0.00  0.00    +0.000 A 
ATOM      9  C   UNL     1       2.441   2.553  19.277  0.00  0.00    +0.000 A 
ATOM     10  C   UNL     1       2.719   3.864  18.853  0.00  0.00    +0.000 A 
BRANCH   5  12
ATOM     11  C   UNL     1       1.659   7.577  20.577  0.00  0.00    +0.000 C 
ATOM     12  S   UNL     1       2.576   6.697  19.281  0.00  0.00    +0.000 S 
ENDBRANCH   5  12
ENDBRANCH   1  10
BRANCH   2  13
ATOM     13  C   UNL     1       5.629   4.483  16.567  0.00  0.00    +0.000 A 
ATOM     14  C   UNL     1       6.833   5.195  16.617  0.00  0.00    +0.000 A 
ATOM     15  C   UNL     1       7.551   5.422  15.438  0.00  0.00    +0.000 A 
ATOM     16  C   UNL     1       7.052   4.939  14.218  0.00  0.00    +0.000 A 
ATOM     17  C   UNL     1       5.841   4.235  14.164  0.00  0.00    +0.000 A 
ATOM     18  C   UNL     1       5.134   3.998  15.348  0.00  0.00    +0.000 A 
BRANCH  16  19
ATOM     19  N   UNL     1       7.825   5.151  12.989  0.00  0.00    +0.000 N 
ATOM     20  O   UNL     1       8.798   5.928  13.046  0.00  0.00    +0.000 OA
ATOM     21  O   UNL     1       7.465   4.553  11.969  0.00  0.00    +0.000 OA
ENDBRANCH  16  19
ENDBRANCH   2  13
TORSDOF 4
ENDMDL
MODEL 2
REMARK VINA RESULT:      -7.3      0.569      1.224
REMARK  Name = 
REMARK  5 active torsions:
REMARK  status: ('A' for Active; 'I' for Inactive)
REMARK    1  A    between atoms: C_1  and  S_2
REMARK    2  A    between atoms: S_2  and  C_3
REMARK    3  A    between atoms: C_8  and  N_9
REMARK    4  A    between atoms: C_10  and  C_12
REMARK    5  A    between atoms: C_15  and  N_16
REMARK                            x       y       z     vdW  Elec       q    Type
REMARK                         _______ _______ _______ _____ _____    ______ ____
ROOT
ATOM      1  N   UNL     1       3.997   3.795  18.078  0.00  0.00    +0.000 N 
ATOM      2  C   UNL     1       5.331   4.169  18.064  0.00  0.00    +0.000 C 
ATOM      3  O   UNL     1       6.039   4.346  19.049  0.00  0.00    +0.000 OA
ATOM      4  H   UNL     1       3.630   3.288  17.284  0.00  0.00    +0.000 HD
ENDROOT
BRANCH   1  10
ATOM      5  C   UNL     1       2.601   4.909  19.769  0.00  0.00    +0.000 A 
ATOM      6  C   UNL     1       1.902   4.800  20.987  0.00  0.00    +0.000 A 
ATOM      7  C   UNL     1       1.868   3.600  21.704  0.00  0.00    +0.000 A 
ATOM      8  C   UNL     1       2.527   2.482  21.212  0.00  0.00    +0.000 A 
ATOM      9  C   UNL     1       3.190   2.558  19.990  0.00  0.00    +0.000 A 
ATOM     10  C   UNL     1       3.231   3.760  19.262  0.00  0.00    +0.000 A 
BRANCH   5  12
ATOM     11  C   UNL     1       1.878   7.620  20.311  0.00  0.00    +0.000 C 
ATOM     12  S   UNL     1       2.614   6.553  19.040  0.00  0.00    +0.000 S 
ENDBRANCH   5  12
ENDBRANCH   1  10
BRANCH   2  13
ATOM     13  C   UNL     1       5.938   4.307  16.722  0.00  0.00    +0.000 A 
ATOM     14  C   UNL     1       5.239   3.853  15.597  0.00  0.00    +0.000 A 
ATOM     15  C   UNL     1       5.763   4.080  14.320  0.00  0.00    +0.000 A 
ATOM     16  C   UNL     1       6.986   4.755  14.182  0.00  0.00    +0.000 A 
ATOM     17  C   UNL     1       7.694   5.200  15.308  0.00  0.00    +0.000 A 
ATOM     18  C   UNL     1       7.158   4.983  16.582  0.00  0.00    +0.000 A 
BRANCH  16  19
ATOM     19  N   UNL     1       7.516   5.019  12.839  0.00  0.00    +0.000 N 
ATOM     20  O   UNL     1       8.287   5.988  12.704  0.00  0.00    +0.000 OA
ATOM     21  O   UNL     1       7.163   4.270  11.921  0.00  0.00    +0.000 OA
ENDBRANCH  16  19
ENDBRANCH   2  13
TORSDOF 4
ENDMDL
MODEL 3
REMARK VINA RESULT:      -6.8      1.120      1.555
REMARK  Name = 
REMARK  5 active torsions:
REMARK  status: ('A' for Active; 'I' for Inactive)
REMARK    1  A    between atoms: C_1  and  S_2
REMARK    2  A    between atoms: S_2  and  C_3
REMARK    3  A    between atoms: C_8  and  N_9
REMARK    4  A    between atoms: C_10  and  C_12
REMARK    5  A    between atoms: C_15  and  N_16
REMARK                            x       y       z     vdW  Elec       q    Type
REMARK                         _______ _______ _______ _____ _____    ______ ____
ROOT
ATOM      1  N   UNL     1       4.445   4.276  18.404  0.00  0.00    +0.000 N 
ATOM      2  C   UNL     1       4.061   4.005  17.101  0.00  0.00    +0.000 C 
ATOM      3  O   UNL     1       2.946   3.643  16.740  0.00  0.00    +0.000 OA
ATOM      4  H   UNL     1       5.198   4.933  18.558  0.00  0.00    +0.000 HD
ENDROOT
BRANCH   1  10
ATOM      5  C   UNL     1       2.769   4.930  20.081  0.00  0.00    +0.000 A 
ATOM      6  C   UNL     1       2.032   4.564  21.224  0.00  0.00    +0.000 A 
ATOM      7  C   UNL     1       2.177   3.304  21.814  0.00  0.00    +0.000 A 
ATOM      8  C   UNL     1       3.059   2.382  21.267  0.00  0.00    +0.000 A 
ATOM      9  C   UNL     1       3.768   2.710  20.114  0.00  0.00    +0.000 A 
ATOM     10  C   UNL     1       3.630   3.974  19.514  0.00  0.00    +0.000 A 
BRANCH   5  12
ATOM     11  C   UNL     1       1.478   7.375  20.801  0.00  0.00    +0.000 C 
ATOM     12  S   UNL     1       2.522   6.620  19.522  0.00  0.00    +0.000 S 
ENDBRANCH   5  12
ENDBRANCH   1  10
BRANCH   2  13
ATOM     13  C   UNL     1       5.099   4.233  16.072  0.00  0.00    +0.000 A 
ATOM     14  C   UNL     1       4.870   3.822  14.754  0.00  0.00    +0.000 A 
ATOM     15  C   UNL     1       5.803   4.133  13.760  0.00  0.00    +0.000 A 
ATOM     16  C   UNL     1       6.962   4.849  14.097  0.00  0.00    +0.000 A 
ATOM     17  C   UNL     1       7.200   5.253  15.418  0.00  0.00    +0.000 A 
ATOM     18  C   UNL     1       6.256   4.951  16.406  0.00  0.00    +0.000 A 
BRANCH  16  19
ATOM     19  N   UNL     1       7.923   5.201  13.045  0.00  0.00    +0.000 N 
ATOM     20  O   UNL     1       8.885   5.926  13.363  0.00  0.00    +0.000 OA
ATOM     21  O   UNL     1       7.720   4.764  11.906  0.00  0.00    +0.000 OA
ENDBRANCH  16  19
ENDBRANCH   2  13
TORSDOF 4
ENDMDL
MODEL 4
REMARK VINA RESULT:      -6.7      4.485      8.331
REMARK  Name = 
REMARK  5 active torsions:
REMARK  status: ('A' for Active; 'I' for Inactive)
REMARK    1  A    between atoms: C_1  and  S_2
REMARK    2  A    between atoms: S_2  and  C_3
REMARK    3  A    between atoms: C_8  and  N_9
REMARK    4  A    between atoms: C_10  and  C_12
REMARK    5  A    between atoms: C_15  and  N_16
REMARK                            x       y       z     vdW  Elec       q    Type
REMARK                         _______ _______ _______ _____ _____    ______ ____
ROOT
ATOM      1  N   UNL     1       2.923   6.734  18.544  0.00  0.00    +0.000 N 
ATOM      2  C   UNL     1       2.384   7.974  18.243  0.00  0.00    +0.000 C 
ATOM      3  O   UNL     1       2.468   8.552  17.166  0.00  0.00    +0.000 OA
ATOM      4  H   UNL     1       2.479   6.176  19.261  0.00  0.00    +0.000 HD
ENDROOT
BRANCH   1  10
ATOM      5  C   UNL     1       3.618   4.725  17.307  0.00  0.00    +0.000 A 
ATOM      6  C   UNL     1       4.588   4.115  16.488  0.00  0.00    +0.000 A 
ATOM      7  C   UNL     1       5.742   4.798  16.090  0.00  0.00    +0.000 A 
ATOM      8  C   UNL     1       5.945   6.109  16.498  0.00  0.00    +0.000 A 
ATOM      9  C   UNL     1       4.978   6.743  17.275  0.00  0.00    +0.000 A 
ATOM     10  C   UNL     1       3.816   6.065  17.682  0.00  0.00    +0.000 A 
BRANCH   5  12
ATOM     11  C   UNL     1       3.000   2.020  17.987  0.00  0.00    +0.000 C 
ATOM     12  S   UNL     1       2.252   3.663  17.795  0.00  0.00    +0.000 S 
ENDBRANCH   5  12
ENDBRANCH   1  10
BRANCH   2  13
ATOM     13  C   UNL     1       1.598   8.604  19.326  0.00  0.00    +0.000 A 
ATOM     14  C   UNL     1       1.620   8.049  20.611  0.00  0.00    +0.000 A 
ATOM     15  C   UNL     1       0.964   8.704  21.658  0.00  0.00    +0.000 A 
ATOM     16  C   UNL     1       0.287   9.907  21.409  0.00  0.00    +0.000 A 
ATOM     17  C   UNL     1       0.254  10.460  20.120  0.00  0.00    +0.000 A 
ATOM     18  C   UNL     1       0.923   9.808  19.079  0.00  0.00    +0.000 A 
BRANCH  16  19
ATOM     19  N   UNL     1      -0.372  10.607  22.517  0.00  0.00    +0.000 N 
ATOM     20  O   UNL     1      -1.074  11.598  22.238  0.00  0.00    +0.000 OA
ATOM     21  O   UNL     1      -0.188  10.178  23.663  0.00  0.00    +0.000 OA
ENDBRANCH  16  19
ENDBRANCH   2  13
TORSDOF 4
ENDMDL
MODEL 5
REMARK VINA RESULT:      -6.6      1.284      2.616
REMARK  Name = 
REMARK  5 active torsions:
REMARK  status: ('A' for Active; 'I' for Inactive)
REMARK    1  A    between atoms: C_1  and  S_2
REMARK    2  A    between atoms: S_2  and  C_3
REMARK    3  A    between atoms: C_8  and  N_9
REMARK    4  A    between atoms: C_10  and  C_12
REMARK    5  A    between atoms: C_15  and  N_16
REMARK                            x       y       z     vdW  Elec       q    Type
REMARK                         _______ _______ _______ _____ _____    ______ ____
ROOT
ATOM      1  N   UNL     1       3.704   4.774  17.611  0.00  0.00    +0.000 N 
ATOM      2  C   UNL     1       5.048   4.449  17.690  0.00  0.00    +0.000 C 
ATOM      3  O   UNL     1       5.634   4.054  18.692  0.00  0.00    +0.000 OA
ATOM      4  H   UNL     1       3.238   4.685  16.718  0.00  0.00    +0.000 HD
ENDROOT
BRANCH   1  10
ATOM      5  C   UNL     1       2.040   3.815  19.148  0.00  0.00    +0.000 A 
ATOM      6  C   UNL     1       1.204   4.016  20.264  0.00  0.00    +0.000 A 
ATOM      7  C   UNL     1       1.167   5.241  20.937  0.00  0.00    +0.000 A 
ATOM      8  C   UNL     1       1.971   6.289  20.511  0.00  0.00    +0.000 A 
ATOM      9  C   UNL     1       2.833   6.098  19.434  0.00  0.00    +0.000 A 
ATOM     10  C   UNL     1       2.877   4.871  18.750  0.00  0.00    +0.000 A 
BRANCH   5  12
ATOM     11  C   UNL     1       3.465   1.384  18.682  0.00  0.00    +0.000 C 
ATOM     12  S   UNL     1       1.882   2.210  18.355  0.00  0.00    +0.000 S 
ENDBRANCH   5  12
ENDBRANCH   1  10
BRANCH   2  13
ATOM     13  C   UNL     1       5.801   4.551  16.422  0.00  0.00    +0.000 A 
ATOM     14  C   UNL     1       5.306   3.928  15.270  0.00  0.00    +0.000 A 
ATOM     15  C   UNL     1       5.960   4.112  14.048  0.00  0.00    +0.000 A 
ATOM     16  C   UNL     1       7.110   4.915  13.991  0.00  0.00    +0.000 A 
ATOM     17  C   UNL     1       7.615   5.531  15.145  0.00  0.00    +0.000 A 
ATOM     18  C   UNL     1       6.949   5.355  16.362  0.00  0.00    +0.000 A 
BRANCH  16  19
ATOM     19  N   UNL     1       7.774   5.132  12.701  0.00  0.00    +0.000 N 
ATOM     20  O   UNL     1       7.445   4.395  11.751  0.00  0.00    +0.000 OA
ATOM     21  O   UNL     1       8.624   6.027  12.631  0.00  0.00    +0.000 OA
ENDBRANCH  16  19
ENDBRANCH   2  13
TORSDOF 4
ENDMDL
MODEL 6
REMARK VINA RESULT:      -6.6      3.949      7.531
REMARK  Name = 
REMARK  5 active torsions:
REMARK  status: ('A' for Active; 'I' for Inactive)
REMARK    1  A    between atoms: C_1  and  S_2
REMARK    2  A    between atoms: S_2  and  C_3
REMARK    3  A    between atoms: C_8  and  N_9
REMARK    4  A    between atoms: C_10  and  C_12
REMARK    5  A    between atoms: C_15  and  N_16
REMARK                            x       y       z     vdW  Elec       q    Type
REMARK                         _______ _______ _______ _____ _____    ______ ____
ROOT
ATOM      1  N   UNL     1       4.488   6.610  17.378  0.00  0.00    +0.000 N 
ATOM      2  C   UNL     1       3.345   6.162  18.019  0.00  0.00    +0.000 C 
ATOM      3  O   UNL     1       3.005   4.992  18.148  0.00  0.00    +0.000 OA
ATOM      4  H   UNL     1       4.888   7.494  17.666  0.00  0.00    +0.000 HD
ENDROOT
BRANCH   1  10
ATOM      5  C   UNL     1       6.675   5.581  16.920  0.00  0.00    +0.000 A 
ATOM      6  C   UNL     1       7.442   4.758  16.073  0.00  0.00    +0.000 A 
ATOM      7  C   UNL     1       6.889   4.165  14.934  0.00  0.00    +0.000 A 
ATOM      8  C   UNL     1       5.553   4.379  14.623  0.00  0.00    +0.000 A 
ATOM      9  C   UNL     1       4.767   5.158  15.469  0.00  0.00    +0.000 A 
ATOM     10  C   UNL     1       5.314   5.759  16.616  0.00  0.00    +0.000 A 
BRANCH   5  12
ATOM     11  C   UNL     1       7.836   8.053  17.760  0.00  0.00    +0.000 C 
ATOM     12  S   UNL     1       7.579   6.333  18.280  0.00  0.00    +0.000 S 
ENDBRANCH   5  12
ENDBRANCH   1  10
BRANCH   2  13
ATOM     13  C   UNL     1       2.510   7.215  18.637  0.00  0.00    +0.000 A 
ATOM     14  C   UNL     1       2.183   7.131  19.996  0.00  0.00    +0.000 A 
ATOM     15  C   UNL     1       1.485   8.179  20.605  0.00  0.00    +0.000 A 
ATOM     16  C   UNL     1       1.114   9.299  19.845  0.00  0.00    +0.000 A 
ATOM     17  C   UNL     1       1.429   9.381  18.481  0.00  0.00    +0.000 A 
ATOM     18  C   UNL     1       2.141   8.336  17.880  0.00  0.00    +0.000 A 
BRANCH  16  19
ATOM     19  N   UNL     1       0.410  10.410  20.496  0.00  0.00    +0.000 N 
ATOM     20  O   UNL     1      -0.600  10.866  19.925  0.00  0.00    +0.000 OA
ATOM     21  O   UNL     1       0.861  10.832  21.567  0.00  0.00    +0.000 OA
ENDBRANCH  16  19
ENDBRANCH   2  13
TORSDOF 4
ENDMDL
MODEL 7
REMARK VINA RESULT:      -6.6      4.456      8.309
REMARK  Name = 
REMARK  5 active torsions:
REMARK  status: ('A' for Active; 'I' for Inactive)
REMARK    1  A    between atoms: C_1  and  S_2
REMARK    2  A    between atoms: S_2  and  C_3
REMARK    3  A    between atoms: C_8  and  N_9
REMARK    4  A    between atoms: C_10  and  C_12
REMARK    5  A    between atoms: C_15  and  N_16
REMARK                            x       y       z     vdW  Elec       q    Type
REMARK                         _______ _______ _______ _____ _____    ______ ____
ROOT
ATOM      1  N   UNL     1       3.122   6.776  18.611  0.00  0.00    +0.000 N 
ATOM      2  C   UNL     1       2.468   7.944  18.254  0.00  0.00    +0.000 C 
ATOM      3  O   UNL     1       2.379   8.399  17.119  0.00  0.00    +0.000 OA
ATOM      4  H   UNL     1       2.809   6.280  19.435  0.00  0.00    +0.000 HD
ENDROOT
BRANCH   1  10
ATOM      5  C   UNL     1       3.619   4.758  17.294  0.00  0.00    +0.000 A 
ATOM      6  C   UNL     1       4.522   4.093  16.442  0.00  0.00    +0.000 A 
ATOM      7  C   UNL     1       5.730   4.682  16.055  0.00  0.00    +0.000 A 
ATOM      8  C   UNL     1       6.056   5.953  16.507  0.00  0.00    +0.000 A 
ATOM      9  C   UNL     1       5.158   6.644  17.318  0.00  0.00    +0.000 A 
ATOM     10  C   UNL     1       3.942   6.060  17.714  0.00  0.00    +0.000 A 
BRANCH   5  12
ATOM     11  C   UNL     1       2.783   2.115  17.984  0.00  0.00    +0.000 C 
ATOM     12  S   UNL     1       2.166   3.808  17.760  0.00  0.00    +0.000 S 
ENDBRANCH   5  12
ENDBRANCH   1  10
BRANCH   2  13
ATOM     13  C   UNL     1       1.784   8.651  19.358  0.00  0.00    +0.000 A 
ATOM     14  C   UNL     1       1.160   9.880  19.111  0.00  0.00    +0.000 A 
ATOM     15  C   UNL     1       0.423  10.497  20.126  0.00  0.00    +0.000 A 
ATOM     16  C   UNL     1       0.321   9.880  21.383  0.00  0.00    +0.000 A 
ATOM     17  C   UNL     1       0.954   8.654  21.636  0.00  0.00    +0.000 A 
ATOM     18  C   UNL     1       1.679   8.034  20.613  0.00  0.00    +0.000 A 
BRANCH  16  19
ATOM     19  N   UNL     1      -0.481  10.515  22.435  0.00  0.00    +0.000 N 
ATOM     20  O   UNL     1      -1.382  11.299  22.080  0.00  0.00    +0.000 OA
ATOM     21  O   UNL     1      -0.214  10.240  23.611  0.00  0.00    +0.000 OA
ENDBRANCH  16  19
ENDBRANCH   2  13
TORSDOF 4
ENDMDL
MODEL 8
REMARK VINA RESULT:      -6.5      4.074      7.607
REMARK  Name = 
REMARK  5 active torsions:
REMARK  status: ('A' for Active; 'I' for Inactive)
REMARK    1  A    between atoms: C_1  and  S_2
REMARK    2  A    between atoms: S_2  and  C_3
REMARK    3  A    between atoms: C_8  and  N_9
REMARK    4  A    between atoms: C_10  and  C_12
REMARK    5  A    between atoms: C_15  and  N_16
REMARK                            x       y       z     vdW  Elec       q    Type
REMARK                         _______ _______ _______ _____ _____    ______ ____
ROOT
ATOM      1  N   UNL     1       4.523   6.773  17.468  0.00  0.00    +0.000 N 
ATOM      2  C   UNL     1       3.279   6.427  17.969  0.00  0.00    +0.000 C 
ATOM      3  O   UNL     1       2.797   5.300  17.981  0.00  0.00    +0.000 OA
ATOM      4  H   UNL     1       4.991   7.582  17.854  0.00  0.00    +0.000 HD
ENDROOT
BRANCH   1  10
ATOM      5  C   UNL     1       6.531   5.374  17.221  0.00  0.00    +0.000 A 
ATOM      6  C   UNL     1       7.291   4.530  16.389  0.00  0.00    +0.000 A 
ATOM      7  C   UNL     1       6.882   4.229  15.085  0.00  0.00    +0.000 A 
ATOM      8  C   UNL     1       5.701   4.763  14.590  0.00  0.00    +0.000 A 
ATOM      9  C   UNL     1       4.915   5.569  15.411  0.00  0.00    +0.000 A 
ATOM     10  C   UNL     1       5.317   5.877  16.722  0.00  0.00    +0.000 A 
BRANCH   5  12
ATOM     11  C   UNL     1       8.164   7.279  18.587  0.00  0.00    +0.000 C 
ATOM     12  S   UNL     1       7.261   5.723  18.827  0.00  0.00    +0.000 S 
ENDBRANCH   5  12
ENDBRANCH   1  10
BRANCH   2  13
ATOM     13  C   UNL     1       2.513   7.532  18.585  0.00  0.00    +0.000 A 
ATOM     14  C   UNL     1       2.095   8.610  17.795  0.00  0.00    +0.000 A 
ATOM     15  C   UNL     1       1.281   9.601  18.351  0.00  0.00    +0.000 A 
ATOM     16  C   UNL     1       0.895   9.507  19.697  0.00  0.00    +0.000 A 
ATOM     17  C   UNL     1       1.321   8.435  20.494  0.00  0.00    +0.000 A 
ATOM     18  C   UNL     1       2.124   7.439  19.929  0.00  0.00    +0.000 A 
BRANCH  16  19
ATOM     19  N   UNL     1       0.013  10.532  20.268  0.00  0.00    +0.000 N 
ATOM     20  O   UNL     1       0.255  10.920  21.427  0.00  0.00    +0.000 OA
ATOM     21  O   UNL     1      -0.920  10.946  19.569  0.00  0.00    +0.000 OA
ENDBRANCH  16  19
ENDBRANCH   2  13
TORSDOF 4
ENDMDL
MODEL 9
REMARK VINA RESULT:      -6.5      4.152      7.685
REMARK  Name = 
REMARK  5 active torsions:
REMARK  status: ('A' for Active; 'I' for Inactive)
REMARK    1  A    between atoms: C_1  and  S_2
REMARK    2  A    between atoms: S_2  and  C_3
REMARK    3  A    between atoms: C_8  and  N_9
REMARK    4  A    between atoms: C_10  and  C_12
REMARK    5  A    between atoms: C_15  and  N_16
REMARK                            x       y       z     vdW  Elec       q    Type
REMARK                         _______ _______ _______ _____ _____    ______ ____
ROOT
ATOM      1  N   UNL     1       4.146   6.837  17.705  0.00  0.00    +0.000 N 
ATOM      2  C   UNL     1       2.822   6.653  18.070  0.00  0.00    +0.000 C 
ATOM      3  O   UNL     1       2.167   5.630  17.906  0.00  0.00    +0.000 OA
ATOM      4  H   UNL     1       4.700   7.507  18.222  0.00  0.00    +0.000 HD
ENDROOT
BRANCH   1  10
ATOM      5  C   UNL     1       5.410   4.741  17.460  0.00  0.00    +0.000 A 
ATOM      6  C   UNL     1       6.147   3.896  16.609  0.00  0.00    +0.000 A 
ATOM      7  C   UNL     1       6.363   4.220  15.265  0.00  0.00    +0.000 A 
ATOM      8  C   UNL     1       5.838   5.394  14.745  0.00  0.00    +0.000 A 
ATOM      9  C   UNL     1       5.072   6.224  15.560  0.00  0.00    +0.000 A 
ATOM     10  C   UNL     1       4.851   5.908  16.912  0.00  0.00    +0.000 A 
BRANCH   5  12
ATOM     11  C   UNL     1       4.050   2.911  19.182  0.00  0.00    +0.000 C 
ATOM     12  S   UNL     1       5.320   4.209  19.175  0.00  0.00    +0.000 S 
ENDBRANCH   5  12
ENDBRANCH   1  10
BRANCH   2  13
ATOM     13  C   UNL     1       2.190   7.797  18.762  0.00  0.00    +0.000 A 
ATOM     14  C   UNL     1       1.815   8.929  18.029  0.00  0.00    +0.000 A 
ATOM     15  C   UNL     1       1.121   9.965  18.663  0.00  0.00    +0.000 A 
ATOM     16  C   UNL     1       0.814   9.860  20.028  0.00  0.00    +0.000 A 
ATOM     17  C   UNL     1       1.198   8.732  20.768  0.00  0.00    +0.000 A 
ATOM     18  C   UNL     1       1.879   7.693  20.126  0.00  0.00    +0.000 A 
BRANCH  16  19
ATOM     19  N   UNL     1       0.057  10.934  20.682  0.00  0.00    +0.000 N 
ATOM     20  O   UNL     1       0.472  11.345  21.783  0.00  0.00    +0.000 OA
ATOM     21  O   UNL     1      -0.949  11.366  20.106  0.00  0.00    +0.000 OA
ENDBRANCH  16  19
ENDBRANCH   2  13
TORSDOF 4
ENDMDL
