MODEL 1
REMARK VINA RESULT:      -7.5      0.000      0.000
REMARK  Name = 
REMARK  3 active torsions:
REMARK  status: ('A' for Active; 'I' for Inactive)
REMARK    1  A    between atoms: C_2  and  C_9
REMARK    2  A    between atoms: N_14  and  S_15
REMARK    3  A    between atoms: S_15  and  C_18
REMARK                            x       y       z     vdW  Elec       q    Type
REMARK                         _______ _______ _______ _____ _____    ______ ____
ROOT
ATOM      1  C   UNL     1       3.942   5.362  18.578  0.00  0.00    +0.000 C 
ATOM      2  C   UNL     1       5.197   6.220  18.333  0.00  0.00    +0.000 C 
ATOM      3  C   UNL     1       6.370   5.371  17.874  0.00  0.00    +0.000 C 
ATOM      4  C   UNL     1       5.999   4.668  16.581  0.00  0.00    +0.000 C 
ATOM      5  C   UNL     1       4.753   3.823  16.776  0.00  0.00    +0.000 C 
ATOM      6  N   UNL     1       3.584   4.594  17.335  0.00  0.00    +0.000 NA
ENDROOT
BRANCH   1   8
ATOM      7  O   UNL     1       2.445   6.026  20.295  0.00  0.00    +0.000 OA
ATOM      8  C   UNL     1       2.902   6.305  19.191  0.00  0.00    +0.000 C 
ATOM      9  N   UNL     1       2.642   7.459  18.475  0.00  0.00    +0.000 N 
ATOM     10  C   UNL     1       1.849   8.441  19.018  0.00  0.00    +0.000 A 
ATOM     11  N   UNL     1       1.523   8.630  20.271  0.00  0.00    +0.000 NA
ATOM     12  C   UNL     1       0.637   9.683  20.369  0.00  0.00    +0.000 A 
ATOM     13  C   UNL     1       0.334  10.311  19.179  0.00  0.00    +0.000 A 
ATOM     14  S   UNL     1       1.223   9.576  17.902  0.00  0.00    +0.000 S 
ATOM     15  H   UNL     1       2.789   7.469  17.478  0.00  0.00    +0.000 HD
ENDBRANCH   1   8
BRANCH   6  16
ATOM     16  S   UNL     1       2.183   3.566  17.484  0.00  0.00    +0.000 S 
ATOM     17  O   UNL     1       1.005   4.367  17.246  0.00  0.00    +0.000 OA
ATOM     18  O   UNL     1       2.440   2.383  16.681  0.00  0.00    +0.000 OA
BRANCH  16  19
ATOM     19  C   UNL     1       2.203   3.066  19.196  0.00  0.00    +0.000 A 
ATOM     20  C   UNL     1       1.051   3.180  19.976  0.00  0.00    +0.000 A 
ATOM     21  C   UNL     1       1.120   2.884  21.338  0.00  0.00    +0.000 A 
ATOM     22  C   UNL     1       2.324   2.463  21.910  0.00  0.00    +0.000 A 
ATOM     23  C   UNL     1       3.462   2.309  21.118  0.00  0.00    +0.000 A 
ATOM     24  C   UNL     1       3.399   2.593  19.755  0.00  0.00    +0.000 A 
ENDBRANCH  16  19
ENDBRANCH   6  16
TORSDOF 3
ENDMDL
MODEL 2
REMARK VINA RESULT:      -7.3      1.267      1.659
REMARK  Name = 
REMARK  3 active torsions:
REMARK  status: ('A' for Active; 'I' for Inactive)
REMARK    1  A    between atoms: C_2  and  C_9
REMARK    2  A    between atoms: N_14  and  S_15
REMARK    3  A    between atoms: S_15  and  C_18
REMARK                            x       y       z     vdW  Elec       q    Type
REMARK                         _______ _______ _______ _____ _____    ______ ____
ROOT
ATOM      1  C   UNL     1       4.264   5.839  18.163  0.00  0.00    +0.000 C 
ATOM      2  C   UNL     1       5.661   6.349  17.764  0.00  0.00    +0.000 C 
ATOM      3  C   UNL     1       6.663   5.210  17.668  0.00  0.00    +0.000 C 
ATOM      4  C   UNL     1       6.188   4.218  16.622  0.00  0.00    +0.000 C 
ATOM      5  C   UNL     1       4.803   3.703  16.970  0.00  0.00    +0.000 C 
ATOM      6  N   UNL     1       3.790   4.799  17.185  0.00  0.00    +0.000 NA
ENDROOT
BRANCH   1   8
ATOM      7  O   UNL     1       3.356   7.925  17.488  0.00  0.00    +0.000 OA
ATOM      8  C   UNL     1       3.409   7.089  18.386  0.00  0.00    +0.000 C 
ATOM      9  N   UNL     1       2.680   7.116  19.561  0.00  0.00    +0.000 N 
ATOM     10  C   UNL     1       1.762   8.115  19.778  0.00  0.00    +0.000 A 
ATOM     11  N   UNL     1       1.202   8.915  18.907  0.00  0.00    +0.000 NA
ATOM     12  C   UNL     1       0.402   9.829  19.560  0.00  0.00    +0.000 A 
ATOM     13  C   UNL     1       0.332   9.679  20.929  0.00  0.00    +0.000 A 
ATOM     14  S   UNL     1       1.274   8.320  21.404  0.00  0.00    +0.000 S 
ATOM     15  H   UNL     1       3.003   6.591  20.358  0.00  0.00    +0.000 HD
ENDBRANCH   1   8
BRANCH   6  16
ATOM     16  S   UNL     1       2.219   4.125  17.533  0.00  0.00    +0.000 S 
ATOM     17  O   UNL     1       1.244   5.188  17.466  0.00  0.00    +0.000 OA
ATOM     18  O   UNL     1       2.073   2.943  16.703  0.00  0.00    +0.000 OA
BRANCH  16  19
ATOM     19  C   UNL     1       2.358   3.577  19.225  0.00  0.00    +0.000 A 
ATOM     20  C   UNL     1       3.473   2.846  19.638  0.00  0.00    +0.000 A 
ATOM     21  C   UNL     1       3.509   2.338  20.938  0.00  0.00    +0.000 A 
ATOM     22  C   UNL     1       2.449   2.572  21.818  0.00  0.00    +0.000 A 
ATOM     23  C   UNL     1       1.357   3.339  21.415  0.00  0.00    +0.000 A 
ATOM     24  C   UNL     1       1.317   3.859  20.122  0.00  0.00    +0.000 A 
ENDBRANCH  16  19
ENDBRANCH   6  16
TORSDOF 3
ENDMDL
MODEL 3
REMARK VINA RESULT:      -7.3      0.159      1.024
REMARK  Name = 
REMARK  3 active torsions:
REMARK  status: ('A' for Active; 'I' for Inactive)
REMARK    1  A    between atoms: C_2  and  C_9
REMARK    2  A    between atoms: N_14  and  S_15
REMARK    3  A    between atoms: S_15  and  C_18
REMARK                            x       y       z     vdW  Elec       q    Type
REMARK                         _______ _______ _______ _____ _____    ______ ____
ROOT
ATOM      1  C   UNL     1       3.938   5.494  18.452  0.00  0.00    +0.000 C 
ATOM      2  C   UNL     1       5.145   6.391  18.122  0.00  0.00    +0.000 C 
ATOM      3  C   UNL     1       6.321   5.574  17.611  0.00  0.00    +0.000 C 
ATOM      4  C   UNL     1       5.902   4.835  16.353  0.00  0.00    +0.000 C 
ATOM      5  C   UNL     1       4.701   3.950  16.633  0.00  0.00    +0.000 C 
ATOM      6  N   UNL     1       3.538   4.691  17.245  0.00  0.00    +0.000 NA
ENDROOT
BRANCH   1   8
ATOM      7  O   UNL     1       2.494   6.120  20.229  0.00  0.00    +0.000 OA
ATOM      8  C   UNL     1       2.900   6.411  19.107  0.00  0.00    +0.000 C 
ATOM      9  N   UNL     1       2.586   7.560  18.405  0.00  0.00    +0.000 N 
ATOM     10  C   UNL     1       1.791   8.521  18.980  0.00  0.00    +0.000 A 
ATOM     11  N   UNL     1       1.511   8.702  20.246  0.00  0.00    +0.000 NA
ATOM     12  C   UNL     1       0.605   9.733  20.380  0.00  0.00    +0.000 A 
ATOM     13  C   UNL     1       0.240  10.355  19.204  0.00  0.00    +0.000 A 
ATOM     14  S   UNL     1       1.095   9.642  17.892  0.00  0.00    +0.000 S 
ATOM     15  H   UNL     1       2.693   7.573  17.403  0.00  0.00    +0.000 HD
ENDBRANCH   1   8
BRANCH   6  16
ATOM     16  S   UNL     1       2.185   3.617  17.491  0.00  0.00    +0.000 S 
ATOM     17  O   UNL     1       0.968   4.360  17.262  0.00  0.00    +0.000 OA
ATOM     18  O   UNL     1       2.461   2.410  16.732  0.00  0.00    +0.000 OA
BRANCH  16  19
ATOM     19  C   UNL     1       2.287   3.197  19.221  0.00  0.00    +0.000 A 
ATOM     20  C   UNL     1       3.485   2.728  19.762  0.00  0.00    +0.000 A 
ATOM     21  C   UNL     1       3.511   2.305  21.093  0.00  0.00    +0.000 A 
ATOM     22  C   UNL     1       2.356   2.366  21.876  0.00  0.00    +0.000 A 
ATOM     23  C   UNL     1       1.172   2.876  21.344  0.00  0.00    +0.000 A 
ATOM     24  C   UNL     1       1.139   3.310  20.020  0.00  0.00    +0.000 A 
ENDBRANCH  16  19
ENDBRANCH   6  16
TORSDOF 3
ENDMDL
MODEL 4
REMARK VINA RESULT:      -7.2      2.081      4.284
REMARK  Name = 
REMARK  3 active torsions:
REMARK  status: ('A' for Active; 'I' for Inactive)
REMARK    1  A    between atoms: C_2  and  C_9
REMARK    2  A    between atoms: N_14  and  S_15
REMARK    3  A    between atoms: S_15  and  C_18
REMARK                            x       y       z     vdW  Elec       q    Type
REMARK                         _______ _______ _______ _____ _____    ______ ____
ROOT
ATOM      1  C   UNL     1       2.671   4.531  18.679  0.00  0.00    +0.000 C 
ATOM      2  C   UNL     1       1.618   3.413  18.793  0.00  0.00    +0.000 C 
ATOM      3  C   UNL     1       2.044   2.169  18.031  0.00  0.00    +0.000 C 
ATOM      4  C   UNL     1       3.358   1.664  18.600  0.00  0.00    +0.000 C 
ATOM      5  C   UNL     1       4.420   2.745  18.522  0.00  0.00    +0.000 C 
ATOM      6  N   UNL     1       4.006   4.043  19.169  0.00  0.00    +0.000 NA
ENDROOT
BRANCH   1   8
ATOM      7  O   UNL     1       1.611   5.654  20.482  0.00  0.00    +0.000 OA
ATOM      8  C   UNL     1       2.046   5.764  19.339  0.00  0.00    +0.000 C 
ATOM      9  N   UNL     1       2.121   6.938  18.611  0.00  0.00    +0.000 N 
ATOM     10  C   UNL     1       1.735   8.126  19.182  0.00  0.00    +0.000 A 
ATOM     11  N   UNL     1       1.589   8.416  20.450  0.00  0.00    +0.000 NA
ATOM     12  C   UNL     1       1.105   9.701  20.581  0.00  0.00    +0.000 A 
ATOM     13  C   UNL     1       0.930  10.389  19.400  0.00  0.00    +0.000 A 
ATOM     14  S   UNL     1       1.428   9.400  18.083  0.00  0.00    +0.000 S 
ATOM     15  H   UNL     1       2.184   6.895  17.607  0.00  0.00    +0.000 HD
ENDBRANCH   1   8
BRANCH   6  16
ATOM     16  S   UNL     1       5.296   5.214  19.080  0.00  0.00    +0.000 S 
ATOM     17  O   UNL     1       4.756   6.510  19.417  0.00  0.00    +0.000 OA
ATOM     18  O   UNL     1       6.415   4.668  19.827  0.00  0.00    +0.000 OA
BRANCH  16  19
ATOM     19  C   UNL     1       5.751   5.212  17.355  0.00  0.00    +0.000 A 
ATOM     20  C   UNL     1       4.956   5.872  16.417  0.00  0.00    +0.000 A 
ATOM     21  C   UNL     1       5.273   5.766  15.061  0.00  0.00    +0.000 A 
ATOM     22  C   UNL     1       6.384   5.023  14.651  0.00  0.00    +0.000 A 
ATOM     23  C   UNL     1       7.200   4.401  15.595  0.00  0.00    +0.000 A 
ATOM     24  C   UNL     1       6.896   4.509  16.951  0.00  0.00    +0.000 A 
ENDBRANCH  16  19
ENDBRANCH   6  16
TORSDOF 3
ENDMDL
MODEL 5
REMARK VINA RESULT:      -7.2      1.871      4.369
REMARK  Name = 
REMARK  3 active torsions:
REMARK  status: ('A' for Active; 'I' for Inactive)
REMARK    1  A    between atoms: C_2  and  C_9
REMARK    2  A    between atoms: N_14  and  S_15
REMARK    3  A    between atoms: S_15  and  C_18
REMARK                            x       y       z     vdW  Elec       q    Type
REMARK                         _______ _______ _______ _____ _____    ______ ____
ROOT
ATOM      1  C   UNL     1       2.414   4.866  19.786  0.00  0.00    +0.000 C 
ATOM      2  C   UNL     1       2.017   4.514  21.232  0.00  0.00    +0.000 C 
ATOM      3  C   UNL     1       1.970   3.011  21.446  0.00  0.00    +0.000 C 
ATOM      4  C   UNL     1       3.340   2.425  21.159  0.00  0.00    +0.000 C 
ATOM      5  C   UNL     1       3.776   2.764  19.745  0.00  0.00    +0.000 C 
ATOM      6  N   UNL     1       3.738   4.241  19.441  0.00  0.00    +0.000 NA
ENDROOT
BRANCH   1   8
ATOM      7  O   UNL     1       2.562   6.917  18.601  0.00  0.00    +0.000 OA
ATOM      8  C   UNL     1       2.258   6.384  19.665  0.00  0.00    +0.000 C 
ATOM      9  N   UNL     1       1.683   7.018  20.752  0.00  0.00    +0.000 N 
ATOM     10  C   UNL     1       1.355   8.350  20.676  0.00  0.00    +0.000 A 
ATOM     11  N   UNL     1       1.196   9.095  19.613  0.00  0.00    +0.000 NA
ATOM     12  C   UNL     1       0.952  10.399  19.989  0.00  0.00    +0.000 A 
ATOM     13  C   UNL     1       0.884  10.618  21.349  0.00  0.00    +0.000 A 
ATOM     14  S   UNL     1       1.098   9.126  22.179  0.00  0.00    +0.000 S 
ATOM     15  H   UNL     1       1.760   6.601  21.666  0.00  0.00    +0.000 HD
ENDBRANCH   1   8
BRANCH   6  16
ATOM     16  S   UNL     1       4.297   4.550  17.818  0.00  0.00    +0.000 S 
ATOM     17  O   UNL     1       4.740   3.301  17.245  0.00  0.00    +0.000 OA
ATOM     18  O   UNL     1       3.269   5.336  17.160  0.00  0.00    +0.000 OA
BRANCH  16  19
ATOM     19  C   UNL     1       5.712   5.610  18.053  0.00  0.00    +0.000 A 
ATOM     20  C   UNL     1       5.905   6.719  17.227  0.00  0.00    +0.000 A 
ATOM     21  C   UNL     1       7.074   7.471  17.360  0.00  0.00    +0.000 A 
ATOM     22  C   UNL     1       8.030   7.126  18.320  0.00  0.00    +0.000 A 
ATOM     23  C   UNL     1       7.813   6.044  19.171  0.00  0.00    +0.000 A 
ATOM     24  C   UNL     1       6.644   5.294  19.052  0.00  0.00    +0.000 A 
ENDBRANCH  16  19
ENDBRANCH   6  16
TORSDOF 3
ENDMDL
MODEL 6
REMARK VINA RESULT:      -7.1      2.080      4.401
REMARK  Name = 
REMARK  3 active torsions:
REMARK  status: ('A' for Active; 'I' for Inactive)
REMARK    1  A    between atoms: C_2  and  C_9
REMARK    2  A    between atoms: N_14  and  S_15
REMARK    3  A    between atoms: S_15  and  C_18
REMARK                            x       y       z     vdW  Elec       q    Type
REMARK                         _______ _______ _______ _____ _____    ______ ____
ROOT
ATOM      1  C   UNL     1       2.619   4.541  18.745  0.00  0.00    +0.000 C 
ATOM      2  C   UNL     1       1.548   3.444  18.892  0.00  0.00    +0.000 C 
ATOM      3  C   UNL     1       1.934   2.185  18.134  0.00  0.00    +0.000 C 
ATOM      4  C   UNL     1       3.250   1.661  18.680  0.00  0.00    +0.000 C 
ATOM      5  C   UNL     1       4.331   2.721  18.569  0.00  0.00    +0.000 C 
ATOM      6  N   UNL     1       3.955   4.033  19.211  0.00  0.00    +0.000 NA
ENDROOT
BRANCH   1   8
ATOM      7  O   UNL     1       1.651   5.711  20.569  0.00  0.00    +0.000 OA
ATOM      8  C   UNL     1       2.031   5.792  19.404  0.00  0.00    +0.000 C 
ATOM      9  N   UNL     1       2.077   6.948  18.647  0.00  0.00    +0.000 N 
ATOM     10  C   UNL     1       1.724   8.152  19.208  0.00  0.00    +0.000 A 
ATOM     11  N   UNL     1       1.639   8.472  20.474  0.00  0.00    +0.000 NA
ATOM     12  C   UNL     1       1.167   9.762  20.598  0.00  0.00    +0.000 A 
ATOM     13  C   UNL     1       0.939  10.424  19.411  0.00  0.00    +0.000 A 
ATOM     14  S   UNL     1       1.370   9.402  18.095  0.00  0.00    +0.000 S 
ATOM     15  H   UNL     1       2.092   6.882  17.642  0.00  0.00    +0.000 HD
ENDBRANCH   1   8
BRANCH   6  16
ATOM     16  S   UNL     1       5.264   5.178  19.082  0.00  0.00    +0.000 S 
ATOM     17  O   UNL     1       4.741   6.498  19.350  0.00  0.00    +0.000 OA
ATOM     18  O   UNL     1       6.365   4.652  19.870  0.00  0.00    +0.000 OA
BRANCH  16  19
ATOM     19  C   UNL     1       5.741   5.085  17.366  0.00  0.00    +0.000 A 
ATOM     20  C   UNL     1       6.953   4.496  17.004  0.00  0.00    +0.000 A 
ATOM     21  C   UNL     1       7.353   4.530  15.667  0.00  0.00    +0.000 A 
ATOM     22  C   UNL     1       6.542   5.133  14.701  0.00  0.00    +0.000 A 
ATOM     23  C   UNL     1       5.312   5.682  15.061  0.00  0.00    +0.000 A 
ATOM     24  C   UNL     1       4.900   5.644  16.392  0.00  0.00    +0.000 A 
ENDBRANCH  16  19
ENDBRANCH   6  16
TORSDOF 3
ENDMDL
MODEL 7
REMARK VINA RESULT:      -7.1      1.260      1.317
REMARK  Name = 
REMARK  3 active torsions:
REMARK  status: ('A' for Active; 'I' for Inactive)
REMARK    1  A    between atoms: C_2  and  C_9
REMARK    2  A    between atoms: N_14  and  S_15
REMARK    3  A    between atoms: S_15  and  C_18
REMARK                            x       y       z     vdW  Elec       q    Type
REMARK                         _______ _______ _______ _____ _____    ______ ____
ROOT
ATOM      1  C   UNL     1       4.275   5.788  18.263  0.00  0.00    +0.000 C 
ATOM      2  C   UNL     1       5.697   6.283  17.941  0.00  0.00    +0.000 C 
ATOM      3  C   UNL     1       6.685   5.131  17.873  0.00  0.00    +0.000 C 
ATOM      4  C   UNL     1       6.247   4.164  16.788  0.00  0.00    +0.000 C 
ATOM      5  C   UNL     1       4.840   3.664  17.060  0.00  0.00    +0.000 C 
ATOM      6  N   UNL     1       3.833   4.772  17.245  0.00  0.00    +0.000 NA
ENDROOT
BRANCH   1   8
ATOM      7  O   UNL     1       3.401   7.881  17.567  0.00  0.00    +0.000 OA
ATOM      8  C   UNL     1       3.428   7.047  18.467  0.00  0.00    +0.000 C 
ATOM      9  N   UNL     1       2.676   7.083  19.627  0.00  0.00    +0.000 N 
ATOM     10  C   UNL     1       1.763   8.092  19.823  0.00  0.00    +0.000 A 
ATOM     11  N   UNL     1       1.229   8.896  18.940  0.00  0.00    +0.000 NA
ATOM     12  C   UNL     1       0.426   9.819  19.576  0.00  0.00    +0.000 A 
ATOM     13  C   UNL     1       0.327   9.672  20.943  0.00  0.00    +0.000 A 
ATOM     14  S   UNL     1       1.246   8.305  21.439  0.00  0.00    +0.000 S 
ATOM     15  H   UNL     1       2.978   6.557  20.431  0.00  0.00    +0.000 HD
ENDBRANCH   1   8
BRANCH   6  16
ATOM     16  S   UNL     1       2.238   4.116  17.504  0.00  0.00    +0.000 S 
ATOM     17  O   UNL     1       1.287   5.201  17.450  0.00  0.00    +0.000 OA
ATOM     18  O   UNL     1       2.101   2.975  16.617  0.00  0.00    +0.000 OA
BRANCH  16  19
ATOM     19  C   UNL     1       2.303   3.492  19.174  0.00  0.00    +0.000 A 
ATOM     20  C   UNL     1       1.274   3.780  20.073  0.00  0.00    +0.000 A 
ATOM     21  C   UNL     1       1.399   3.370  21.402  0.00  0.00    +0.000 A 
ATOM     22  C   UNL     1       2.531   2.667  21.822  0.00  0.00    +0.000 A 
ATOM     23  C   UNL     1       3.536   2.344  20.911  0.00  0.00    +0.000 A 
ATOM     24  C   UNL     1       3.415   2.740  19.580  0.00  0.00    +0.000 A 
ENDBRANCH  16  19
ENDBRANCH   6  16
TORSDOF 3
ENDMDL
MODEL 8
REMARK VINA RESULT:      -7.1      1.883      4.404
REMARK  Name = 
REMARK  3 active torsions:
REMARK  status: ('A' for Active; 'I' for Inactive)
REMARK    1  A    between atoms: C_2  and  C_9
REMARK    2  A    between atoms: N_14  and  S_15
REMARK    3  A    between atoms: S_15  and  C_18
REMARK                            x       y       z     vdW  Elec       q    Type
REMARK                         _______ _______ _______ _____ _____    ______ ____
ROOT
ATOM      1  C   UNL     1       2.469   4.903  19.758  0.00  0.00    +0.000 C 
ATOM      2  C   UNL     1       2.091   4.538  21.206  0.00  0.00    +0.000 C 
ATOM      3  C   UNL     1       2.052   3.032  21.407  0.00  0.00    +0.000 C 
ATOM      4  C   UNL     1       3.420   2.454  21.097  0.00  0.00    +0.000 C 
ATOM      5  C   UNL     1       3.838   2.807  19.681  0.00  0.00    +0.000 C 
ATOM      6  N   UNL     1       3.791   4.286  19.392  0.00  0.00    +0.000 NA
ENDROOT
BRANCH   1   8
ATOM      7  O   UNL     1       2.626   6.969  18.601  0.00  0.00    +0.000 OA
ATOM      8  C   UNL     1       2.307   6.423  19.653  0.00  0.00    +0.000 C 
ATOM      9  N   UNL     1       1.710   7.039  20.737  0.00  0.00    +0.000 N 
ATOM     10  C   UNL     1       1.375   8.371  20.672  0.00  0.00    +0.000 A 
ATOM     11  N   UNL     1       1.231   9.128  19.615  0.00  0.00    +0.000 NA
ATOM     12  C   UNL     1       0.973  10.426  20.003  0.00  0.00    +0.000 A 
ATOM     13  C   UNL     1       0.881  10.628  21.363  0.00  0.00    +0.000 A 
ATOM     14  S   UNL     1       1.089   9.127  22.179  0.00  0.00    +0.000 S 
ATOM     15  H   UNL     1       1.774   6.613  21.647  0.00  0.00    +0.000 HD
ENDBRANCH   1   8
BRANCH   6  16
ATOM     16  S   UNL     1       4.329   4.612  17.765  0.00  0.00    +0.000 S 
ATOM     17  O   UNL     1       4.651   3.354  17.132  0.00  0.00    +0.000 OA
ATOM     18  O   UNL     1       3.353   5.505  17.168  0.00  0.00    +0.000 OA
BRANCH  16  19
ATOM     19  C   UNL     1       5.835   5.541  17.995  0.00  0.00    +0.000 A 
ATOM     20  C   UNL     1       6.728   5.193  19.009  0.00  0.00    +0.000 A 
ATOM     21  C   UNL     1       7.845   5.999  19.238  0.00  0.00    +0.000 A 
ATOM     22  C   UNL     1       8.073   7.130  18.450  0.00  0.00    +0.000 A 
ATOM     23  C   UNL     1       7.201   7.450  17.411  0.00  0.00    +0.000 A 
ATOM     24  C   UNL     1       6.089   6.646  17.169  0.00  0.00    +0.000 A 
ENDBRANCH  16  19
ENDBRANCH   6  16
TORSDOF 3
ENDMDL
MODEL 9
REMARK VINA RESULT:      -7.1      3.594      4.763
REMARK  Name = 
REMARK  3 active torsions:
REMARK  status: ('A' for Active; 'I' for Inactive)
REMARK    1  A    between atoms: C_2  and  C_9
REMARK    2  A    between atoms: N_14  and  S_15
REMARK    3  A    between atoms: S_15  and  C_18
REMARK                            x       y       z     vdW  Elec       q    Type
REMARK                         _______ _______ _______ _____ _____    ______ ____
ROOT
ATOM      1  C   UNL     1       6.900   5.477  17.182  0.00  0.00    +0.000 C 
ATOM      2  C   UNL     1       7.239   5.806  15.716  0.00  0.00    +0.000 C 
ATOM      3  C   UNL     1       6.858   4.665  14.787  0.00  0.00    +0.000 C 
ATOM      4  C   UNL     1       5.365   4.412  14.899  0.00  0.00    +0.000 C 
ATOM      5  C   UNL     1       4.986   4.100  16.335  0.00  0.00    +0.000 C 
ATOM      6  N   UNL     1       5.438   5.151  17.318  0.00  0.00    +0.000 NA
ENDROOT
BRANCH   1   8
ATOM      7  O   UNL     1       7.945   6.359  19.121  0.00  0.00    +0.000 OA
ATOM      8  C   UNL     1       7.484   6.622  18.015  0.00  0.00    +0.000 C 
ATOM      9  N   UNL     1       7.530   7.856  17.391  0.00  0.00    +0.000 N 
ATOM     10  C   UNL     1       8.181   8.906  17.992  0.00  0.00    +0.000 A 
ATOM     11  N   UNL     1       9.069   8.877  18.952  0.00  0.00    +0.000 NA
ATOM     12  C   UNL     1       9.403  10.164  19.318  0.00  0.00    +0.000 A 
ATOM     13  C   UNL     1       8.789  11.162  18.591  0.00  0.00    +0.000 A 
ATOM     14  S   UNL     1       7.786  10.455  17.384  0.00  0.00    +0.000 S 
ATOM     15  H   UNL     1       6.872   8.066  16.657  0.00  0.00    +0.000 HD
ENDBRANCH   1   8
BRANCH   6  16
ATOM     16  S   UNL     1       4.923   4.743  18.935  0.00  0.00    +0.000 S 
ATOM     17  O   UNL     1       5.895   3.840  19.506  0.00  0.00    +0.000 OA
ATOM     18  O   UNL     1       4.600   5.992  19.602  0.00  0.00    +0.000 OA
BRANCH  16  19
ATOM     19  C   UNL     1       3.395   3.860  18.682  0.00  0.00    +0.000 A 
ATOM     20  C   UNL     1       2.288   4.511  18.134  0.00  0.00    +0.000 A 
ATOM     21  C   UNL     1       1.073   3.829  18.045  0.00  0.00    +0.000 A 
ATOM     22  C   UNL     1       0.971   2.506  18.484  0.00  0.00    +0.000 A 
ATOM     23  C   UNL     1       2.090   1.846  18.991  0.00  0.00    +0.000 A 
ATOM     24  C   UNL     1       3.310   2.516  19.074  0.00  0.00    +0.000 A 
ENDBRANCH  16  19
ENDBRANCH   6  16
TORSDOF 3
ENDMDL
