MODEL 1
REMARK VINA RESULT:      -9.1      0.000      0.000
REMARK  Name = 
REMARK  4 active torsions:
REMARK  status: ('A' for Active; 'I' for Inactive)
REMARK    1  A    between atoms: C_1  and  C_2
REMARK    2  A    between atoms: C_5  and  N_6
REMARK    3  A    between atoms: N_6  and  S_7
REMARK    4  A    between atoms: S_7  and  C_10
REMARK                            x       y       z     vdW  Elec       q    Type
REMARK                         _______ _______ _______ _____ _____    ______ ____
ROOT
ATOM      1  N   UNL     1       4.398   2.813  18.089  0.00  0.00    +0.000 N 
ATOM      2  H   UNL     1       4.544   2.115  18.817  0.00  0.00    +0.000 HD
ENDROOT
BRANCH   1   7
ATOM      3  C   UNL     1       6.110   3.702  13.091  0.00  0.00    +0.000 C 
ATOM      4  C   UNL     1       6.386   4.222  14.465  0.00  0.00    +0.000 A 
ATOM      5  C   UNL     1       5.726   3.730  15.579  0.00  0.00    +0.000 A 
ATOM      6  C   UNL     1       5.962   4.309  16.841  0.00  0.00    +0.000 A 
ATOM      7  C   UNL     1       5.315   3.911  18.037  0.00  0.00    +0.000 A 
ATOM      8  C   UNL     1       5.553   4.585  19.238  0.00  0.00    +0.000 A 
ATOM      9  C   UNL     1       6.456   5.638  19.272  0.00  0.00    +0.000 A 
ATOM     10  C   UNL     1       7.122   6.009  18.105  0.00  0.00    +0.000 A 
ATOM     11  C   UNL     1       6.886   5.368  16.894  0.00  0.00    +0.000 A 
ATOM     12  N   UNL     1       7.528   5.788  15.795  0.00  0.00    +0.000 NA
ATOM     13  N   UNL     1       7.278   5.222  14.573  0.00  0.00    +0.000 NA
ENDBRANCH   1   7
BRANCH   1  14
ATOM     14  S   UNL     1       2.750   3.121  17.868  0.00  0.00    +0.000 S 
ATOM     15  O   UNL     1       2.576   3.315  16.444  0.00  0.00    +0.000 OA
ATOM     16  O   UNL     1       1.981   2.123  18.577  0.00  0.00    +0.000 OA
BRANCH  14  17
ATOM     17  C   UNL     1       2.505   4.693  18.663  0.00  0.00    +0.000 A 
ATOM     18  C   UNL     1       2.654   5.882  17.940  0.00  0.00    +0.000 A 
ATOM     19  C   UNL     1       2.449   7.106  18.585  0.00  0.00    +0.000 A 
ATOM     20  C   UNL     1       2.088   7.123  19.929  0.00  0.00    +0.000 A 
ATOM     21  F   UNL     1       1.908   8.297  20.548  0.00  0.00    +0.000 F 
ATOM     22  C   UNL     1       1.909   5.942  20.643  0.00  0.00    +0.000 A 
ATOM     23  C   UNL     1       2.106   4.718  20.006  0.00  0.00    +0.000 A 
ENDBRANCH  14  17
ENDBRANCH   1  14
TORSDOF 3
ENDMDL
MODEL 2
REMARK VINA RESULT:      -9.1      0.035      1.037
REMARK  Name = 
REMARK  4 active torsions:
REMARK  status: ('A' for Active; 'I' for Inactive)
REMARK    1  A    between atoms: C_1  and  C_2
REMARK    2  A    between atoms: C_5  and  N_6
REMARK    3  A    between atoms: N_6  and  S_7
REMARK    4  A    between atoms: S_7  and  C_10
REMARK                            x       y       z     vdW  Elec       q    Type
REMARK                         _______ _______ _______ _____ _____    ______ ____
ROOT
ATOM      1  N   UNL     1       4.360   2.815  18.069  0.00  0.00    +0.000 N 
ATOM      2  H   UNL     1       4.493   2.117  18.801  0.00  0.00    +0.000 HD
ENDROOT
BRANCH   1   7
ATOM      3  C   UNL     1       6.114   3.704  13.086  0.00  0.00    +0.000 C 
ATOM      4  C   UNL     1       6.383   4.220  14.464  0.00  0.00    +0.000 A 
ATOM      5  C   UNL     1       5.712   3.730  15.572  0.00  0.00    +0.000 A 
ATOM      6  C   UNL     1       5.942   4.304  16.837  0.00  0.00    +0.000 A 
ATOM      7  C   UNL     1       5.283   3.907  18.026  0.00  0.00    +0.000 A 
ATOM      8  C   UNL     1       5.517   4.577  19.231  0.00  0.00    +0.000 A 
ATOM      9  C   UNL     1       6.425   5.625  19.275  0.00  0.00    +0.000 A 
ATOM     10  C   UNL     1       7.102   5.995  18.113  0.00  0.00    +0.000 A 
ATOM     11  C   UNL     1       6.871   5.358  16.899  0.00  0.00    +0.000 A 
ATOM     12  N   UNL     1       7.524   5.777  15.806  0.00  0.00    +0.000 NA
ATOM     13  N   UNL     1       7.280   5.214  14.580  0.00  0.00    +0.000 NA
ENDBRANCH   1   7
BRANCH   1  14
ATOM     14  S   UNL     1       2.716   3.131  17.826  0.00  0.00    +0.000 S 
ATOM     15  O   UNL     1       2.569   3.361  16.405  0.00  0.00    +0.000 OA
ATOM     16  O   UNL     1       1.934   2.117  18.496  0.00  0.00    +0.000 OA
BRANCH  14  17
ATOM     17  C   UNL     1       2.459   4.683  18.655  0.00  0.00    +0.000 A 
ATOM     18  C   UNL     1       2.106   4.712  20.009  0.00  0.00    +0.000 A 
ATOM     19  C   UNL     1       1.917   5.945  20.641  0.00  0.00    +0.000 A 
ATOM     20  C   UNL     1       2.094   7.122  19.919  0.00  0.00    +0.000 A 
ATOM     21  F   UNL     1       1.896   8.301  20.525  0.00  0.00    +0.000 F 
ATOM     22  C   UNL     1       2.474   7.099  18.581  0.00  0.00    +0.000 A 
ATOM     23  C   UNL     1       2.670   5.874  17.946  0.00  0.00    +0.000 A 
ENDBRANCH  14  17
ENDBRANCH   1  14
TORSDOF 3
ENDMDL
MODEL 3
REMARK VINA RESULT:      -8.6      2.212      2.570
REMARK  Name = 
REMARK  4 active torsions:
REMARK  status: ('A' for Active; 'I' for Inactive)
REMARK    1  A    between atoms: C_1  and  C_2
REMARK    2  A    between atoms: C_5  and  N_6
REMARK    3  A    between atoms: N_6  and  S_7
REMARK    4  A    between atoms: S_7  and  C_10
REMARK                            x       y       z     vdW  Elec       q    Type
REMARK                         _______ _______ _______ _____ _____    ______ ____
ROOT
ATOM      1  N   UNL     1       4.692   3.290  17.675  0.00  0.00    +0.000 N 
ATOM      2  H   UNL     1       4.869   2.670  18.464  0.00  0.00    +0.000 HD
ENDROOT
BRANCH   1   7
ATOM      3  C   UNL     1       5.953   3.452  12.471  0.00  0.00    +0.000 C 
ATOM      4  C   UNL     1       6.395   4.110  13.739  0.00  0.00    +0.000 A 
ATOM      5  C   UNL     1       5.819   3.804  14.961  0.00  0.00    +0.000 A 
ATOM      6  C   UNL     1       6.214   4.509  16.114  0.00  0.00    +0.000 A 
ATOM      7  C   UNL     1       5.664   4.304  17.403  0.00  0.00    +0.000 A 
ATOM      8  C   UNL     1       6.061   5.096  18.484  0.00  0.00    +0.000 A 
ATOM      9  C   UNL     1       7.026   6.078  18.305  0.00  0.00    +0.000 A 
ATOM     10  C   UNL     1       7.595   6.258  17.045  0.00  0.00    +0.000 A 
ATOM     11  C   UNL     1       7.202   5.497  15.950  0.00  0.00    +0.000 A 
ATOM     12  N   UNL     1       7.757   5.736  14.754  0.00  0.00    +0.000 NA
ATOM     13  N   UNL     1       7.353   5.048  13.639  0.00  0.00    +0.000 NA
ENDBRANCH   1   7
BRANCH   1  14
ATOM     14  S   UNL     1       3.052   3.692  17.577  0.00  0.00    +0.000 S 
ATOM     15  O   UNL     1       3.009   5.133  17.453  0.00  0.00    +0.000 OA
ATOM     16  O   UNL     1       2.414   2.846  16.593  0.00  0.00    +0.000 OA
BRANCH  14  17
ATOM     17  C   UNL     1       2.418   3.267  19.183  0.00  0.00    +0.000 A 
ATOM     18  C   UNL     1       3.283   2.825  20.191  0.00  0.00    +0.000 A 
ATOM     19  C   UNL     1       2.762   2.504  21.448  0.00  0.00    +0.000 A 
ATOM     20  C   UNL     1       1.397   2.640  21.682  0.00  0.00    +0.000 A 
ATOM     21  F   UNL     1       0.899   2.316  22.883  0.00  0.00    +0.000 F 
ATOM     22  C   UNL     1       0.538   3.108  20.693  0.00  0.00    +0.000 A 
ATOM     23  C   UNL     1       1.050   3.436  19.439  0.00  0.00    +0.000 A 
ENDBRANCH  14  17
ENDBRANCH   1  14
TORSDOF 3
ENDMDL
MODEL 4
REMARK VINA RESULT:      -8.6      2.225      2.515
REMARK  Name = 
REMARK  4 active torsions:
REMARK  status: ('A' for Active; 'I' for Inactive)
REMARK    1  A    between atoms: C_1  and  C_2
REMARK    2  A    between atoms: C_5  and  N_6
REMARK    3  A    between atoms: N_6  and  S_7
REMARK    4  A    between atoms: S_7  and  C_10
REMARK                            x       y       z     vdW  Elec       q    Type
REMARK                         _______ _______ _______ _____ _____    ______ ____
ROOT
ATOM      1  N   UNL     1       4.741   3.198  17.820  0.00  0.00    +0.000 N 
ATOM      2  H   UNL     1       4.900   2.611  18.639  0.00  0.00    +0.000 HD
ENDROOT
BRANCH   1   7
ATOM      3  C   UNL     1       5.937   3.521  12.608  0.00  0.00    +0.000 C 
ATOM      4  C   UNL     1       6.379   4.157  13.888  0.00  0.00    +0.000 A 
ATOM      5  C   UNL     1       5.825   3.806  15.108  0.00  0.00    +0.000 A 
ATOM      6  C   UNL     1       6.216   4.491  16.274  0.00  0.00    +0.000 A 
ATOM      7  C   UNL     1       5.686   4.241  17.564  0.00  0.00    +0.000 A 
ATOM      8  C   UNL     1       6.077   5.015  18.660  0.00  0.00    +0.000 A 
ATOM      9  C   UNL     1       7.016   6.023  18.496  0.00  0.00    +0.000 A 
ATOM     10  C   UNL     1       7.566   6.249  17.234  0.00  0.00    +0.000 A 
ATOM     11  C   UNL     1       7.178   5.507  16.125  0.00  0.00    +0.000 A 
ATOM     12  N   UNL     1       7.713   5.788  14.929  0.00  0.00    +0.000 NA
ATOM     13  N   UNL     1       7.313   5.120  13.802  0.00  0.00    +0.000 NA
ENDBRANCH   1   7
BRANCH   1  14
ATOM     14  S   UNL     1       3.094   3.529  17.624  0.00  0.00    +0.000 S 
ATOM     15  O   UNL     1       3.006   4.955  17.400  0.00  0.00    +0.000 OA
ATOM     16  O   UNL     1       2.532   2.595  16.675  0.00  0.00    +0.000 OA
BRANCH  14  17
ATOM     17  C   UNL     1       2.403   3.189  19.227  0.00  0.00    +0.000 A 
ATOM     18  C   UNL     1       1.020   3.253  19.430  0.00  0.00    +0.000 A 
ATOM     19  C   UNL     1       0.499   2.975  20.697  0.00  0.00    +0.000 A 
ATOM     20  C   UNL     1       1.362   2.627  21.734  0.00  0.00    +0.000 A 
ATOM     21  F   UNL     1       0.861   2.377  22.951  0.00  0.00    +0.000 F 
ATOM     22  C   UNL     1       2.734   2.533  21.529  0.00  0.00    +0.000 A 
ATOM     23  C   UNL     1       3.260   2.803  20.267  0.00  0.00    +0.000 A 
ENDBRANCH  14  17
ENDBRANCH   1  14
TORSDOF 3
ENDMDL
MODEL 5
REMARK VINA RESULT:      -8.2      0.822      1.387
REMARK  Name = 
REMARK  4 active torsions:
REMARK  status: ('A' for Active; 'I' for Inactive)
REMARK    1  A    between atoms: C_1  and  C_2
REMARK    2  A    between atoms: C_5  and  N_6
REMARK    3  A    between atoms: N_6  and  S_7
REMARK    4  A    between atoms: S_7  and  C_10
REMARK                            x       y       z     vdW  Elec       q    Type
REMARK                         _______ _______ _______ _____ _____    ______ ____
ROOT
ATOM      1  N   UNL     1       4.545   2.867  18.207  0.00  0.00    +0.000 N 
ATOM      2  H   UNL     1       4.933   1.931  18.319  0.00  0.00    +0.000 HD
ENDROOT
BRANCH   1   7
ATOM      3  C   UNL     1       6.016   3.805  13.142  0.00  0.00    +0.000 C 
ATOM      4  C   UNL     1       6.365   4.305  14.508  0.00  0.00    +0.000 A 
ATOM      5  C   UNL     1       5.756   3.805  15.647  0.00  0.00    +0.000 A 
ATOM      6  C   UNL     1       6.060   4.364  16.903  0.00  0.00    +0.000 A 
ATOM      7  C   UNL     1       5.468   3.956  18.124  0.00  0.00    +0.000 A 
ATOM      8  C   UNL     1       5.773   4.612  19.320  0.00  0.00    +0.000 A 
ATOM      9  C   UNL     1       6.687   5.657  19.324  0.00  0.00    +0.000 A 
ATOM     10  C   UNL     1       7.298   6.037  18.129  0.00  0.00    +0.000 A 
ATOM     11  C   UNL     1       6.996   5.415  16.924  0.00  0.00    +0.000 A 
ATOM     12  N   UNL     1       7.587   5.843  15.800  0.00  0.00    +0.000 NA
ATOM     13  N   UNL     1       7.271   5.295  14.584  0.00  0.00    +0.000 NA
ENDBRANCH   1   7
BRANCH   1  14
ATOM     14  S   UNL     1       3.146   3.058  19.140  0.00  0.00    +0.000 S 
ATOM     15  O   UNL     1       2.105   2.344  18.432  0.00  0.00    +0.000 OA
ATOM     16  O   UNL     1       3.450   2.747  20.519  0.00  0.00    +0.000 OA
BRANCH  14  17
ATOM     17  C   UNL     1       2.792   4.796  19.016  0.00  0.00    +0.000 A 
ATOM     18  C   UNL     1       2.609   5.564  20.171  0.00  0.00    +0.000 A 
ATOM     19  C   UNL     1       2.339   6.931  20.049  0.00  0.00    +0.000 A 
ATOM     20  C   UNL     1       2.269   7.508  18.784  0.00  0.00    +0.000 A 
ATOM     21  F   UNL     1       1.994   8.814  18.671  0.00  0.00    +0.000 F 
ATOM     22  C   UNL     1       2.481   6.754  17.634  0.00  0.00    +0.000 A 
ATOM     23  C   UNL     1       2.756   5.392  17.748  0.00  0.00    +0.000 A 
ENDBRANCH  14  17
ENDBRANCH   1  14
TORSDOF 3
ENDMDL
MODEL 6
REMARK VINA RESULT:      -8.1      3.903      6.827
REMARK  Name = 
REMARK  4 active torsions:
REMARK  status: ('A' for Active; 'I' for Inactive)
REMARK    1  A    between atoms: C_1  and  C_2
REMARK    2  A    between atoms: C_5  and  N_6
REMARK    3  A    between atoms: N_6  and  S_7
REMARK    4  A    between atoms: S_7  and  C_10
REMARK                            x       y       z     vdW  Elec       q    Type
REMARK                         _______ _______ _______ _____ _____    ______ ____
ROOT
ATOM      1  N   UNL     1       2.762   6.220  20.345  0.00  0.00    +0.000 N 
ATOM      2  H   UNL     1       2.505   6.174  21.331  0.00  0.00    +0.000 HD
ENDROOT
BRANCH   1   7
ATOM      3  C   UNL     1      -0.187   9.510  23.375  0.00  0.00    +0.000 C 
ATOM      4  C   UNL     1       0.237   9.403  21.945  0.00  0.00    +0.000 A 
ATOM      5  C   UNL     1       1.036   8.365  21.494  0.00  0.00    +0.000 A 
ATOM      6  C   UNL     1       1.475   8.352  20.157  0.00  0.00    +0.000 A 
ATOM      7  C   UNL     1       2.324   7.362  19.604  0.00  0.00    +0.000 A 
ATOM      8  C   UNL     1       2.773   7.461  18.284  0.00  0.00    +0.000 A 
ATOM      9  C   UNL     1       2.362   8.524  17.491  0.00  0.00    +0.000 A 
ATOM     10  C   UNL     1       1.498   9.482  18.022  0.00  0.00    +0.000 A 
ATOM     11  C   UNL     1       1.055   9.416  19.338  0.00  0.00    +0.000 A 
ATOM     12  N   UNL     1       0.253  10.382  19.807  0.00  0.00    +0.000 NA
ATOM     13  N   UNL     1      -0.157  10.385  21.115  0.00  0.00    +0.000 NA
ENDBRANCH   1   7
BRANCH   1  14
ATOM     14  S   UNL     1       2.660   4.694  19.622  0.00  0.00    +0.000 S 
ATOM     15  O   UNL     1       2.787   3.740  20.702  0.00  0.00    +0.000 OA
ATOM     16  O   UNL     1       1.515   4.663  18.739  0.00  0.00    +0.000 OA
BRANCH  14  17
ATOM     17  C   UNL     1       4.136   4.596  18.636  0.00  0.00    +0.000 A 
ATOM     18  C   UNL     1       4.080   4.109  17.325  0.00  0.00    +0.000 A 
ATOM     19  C   UNL     1       5.253   4.049  16.566  0.00  0.00    +0.000 A 
ATOM     20  C   UNL     1       6.454   4.485  17.120  0.00  0.00    +0.000 A 
ATOM     21  F   UNL     1       7.578   4.410  16.396  0.00  0.00    +0.000 F 
ATOM     22  C   UNL     1       6.509   4.998  18.412  0.00  0.00    +0.000 A 
ATOM     23  C   UNL     1       5.343   5.067  19.173  0.00  0.00    +0.000 A 
ENDBRANCH  14  17
ENDBRANCH   1  14
TORSDOF 3
ENDMDL
MODEL 7
REMARK VINA RESULT:      -8.1      3.891      6.844
REMARK  Name = 
REMARK  4 active torsions:
REMARK  status: ('A' for Active; 'I' for Inactive)
REMARK    1  A    between atoms: C_1  and  C_2
REMARK    2  A    between atoms: C_5  and  N_6
REMARK    3  A    between atoms: N_6  and  S_7
REMARK    4  A    between atoms: S_7  and  C_10
REMARK                            x       y       z     vdW  Elec       q    Type
REMARK                         _______ _______ _______ _____ _____    ______ ____
ROOT
ATOM      1  N   UNL     1       2.756   6.183  20.352  0.00  0.00    +0.000 N 
ATOM      2  H   UNL     1       2.475   6.126  21.330  0.00  0.00    +0.000 HD
ENDROOT
BRANCH   1   7
ATOM      3  C   UNL     1      -0.162   9.498  23.384  0.00  0.00    +0.000 C 
ATOM      4  C   UNL     1       0.262   9.389  21.954  0.00  0.00    +0.000 A 
ATOM      5  C   UNL     1       1.051   8.344  21.503  0.00  0.00    +0.000 A 
ATOM      6  C   UNL     1       1.491   8.329  20.166  0.00  0.00    +0.000 A 
ATOM      7  C   UNL     1       2.330   7.331  19.612  0.00  0.00    +0.000 A 
ATOM      8  C   UNL     1       2.781   7.428  18.292  0.00  0.00    +0.000 A 
ATOM      9  C   UNL     1       2.382   8.497  17.501  0.00  0.00    +0.000 A 
ATOM     10  C   UNL     1       1.527   9.462  18.032  0.00  0.00    +0.000 A 
ATOM     11  C   UNL     1       1.083   9.399  19.348  0.00  0.00    +0.000 A 
ATOM     12  N   UNL     1       0.290  10.371  19.819  0.00  0.00    +0.000 NA
ATOM     13  N   UNL     1      -0.121  10.376  21.126  0.00  0.00    +0.000 NA
ENDBRANCH   1   7
BRANCH   1  14
ATOM     14  S   UNL     1       2.679   4.665  19.610  0.00  0.00    +0.000 S 
ATOM     15  O   UNL     1       2.825   3.700  20.678  0.00  0.00    +0.000 OA
ATOM     16  O   UNL     1       1.533   4.625  18.729  0.00  0.00    +0.000 OA
BRANCH  14  17
ATOM     17  C   UNL     1       4.154   4.605  18.620  0.00  0.00    +0.000 A 
ATOM     18  C   UNL     1       5.381   5.019  19.152  0.00  0.00    +0.000 A 
ATOM     19  C   UNL     1       6.529   4.955  18.356  0.00  0.00    +0.000 A 
ATOM     20  C   UNL     1       6.438   4.471  17.054  0.00  0.00    +0.000 A 
ATOM     21  F   UNL     1       7.537   4.427  16.290  0.00  0.00    +0.000 F 
ATOM     22  C   UNL     1       5.226   4.031  16.531  0.00  0.00    +0.000 A 
ATOM     23  C   UNL     1       4.078   4.085  17.320  0.00  0.00    +0.000 A 
ENDBRANCH  14  17
ENDBRANCH   1  14
TORSDOF 3
ENDMDL
MODEL 8
REMARK VINA RESULT:      -7.7      2.256      2.642
REMARK  Name = 
REMARK  4 active torsions:
REMARK  status: ('A' for Active; 'I' for Inactive)
REMARK    1  A    between atoms: C_1  and  C_2
REMARK    2  A    between atoms: C_5  and  N_6
REMARK    3  A    between atoms: N_6  and  S_7
REMARK    4  A    between atoms: S_7  and  C_10
REMARK                            x       y       z     vdW  Elec       q    Type
REMARK                         _______ _______ _______ _____ _____    ______ ____
ROOT
ATOM      1  N   UNL     1       3.517   4.843  17.350  0.00  0.00    +0.000 N 
ATOM      2  H   UNL     1       2.789   5.277  16.783  0.00  0.00    +0.000 HD
ENDROOT
BRANCH   1   7
ATOM      3  C   UNL     1       5.445   3.608  12.506  0.00  0.00    +0.000 C 
ATOM      4  C   UNL     1       5.942   4.237  13.769  0.00  0.00    +0.000 A 
ATOM      5  C   UNL     1       5.125   4.398  14.876  0.00  0.00    +0.000 A 
ATOM      6  C   UNL     1       5.615   5.069  16.013  0.00  0.00    +0.000 A 
ATOM      7  C   UNL     1       4.855   5.321  17.182  0.00  0.00    +0.000 A 
ATOM      8  C   UNL     1       5.394   6.058  18.240  0.00  0.00    +0.000 A 
ATOM      9  C   UNL     1       6.699   6.526  18.163  0.00  0.00    +0.000 A 
ATOM     10  C   UNL     1       7.462   6.249  17.030  0.00  0.00    +0.000 A 
ATOM     11  C   UNL     1       6.941   5.536  15.955  0.00  0.00    +0.000 A 
ATOM     12  N   UNL     1       7.706   5.328  14.875  0.00  0.00    +0.000 NA
ATOM     13  N   UNL     1       7.210   4.682  13.773  0.00  0.00    +0.000 NA
ENDBRANCH   1   7
BRANCH   1  14
ATOM     14  S   UNL     1       3.262   3.177  17.489  0.00  0.00    +0.000 S 
ATOM     15  O   UNL     1       2.244   2.854  16.512  0.00  0.00    +0.000 OA
ATOM     16  O   UNL     1       4.539   2.499  17.477  0.00  0.00    +0.000 OA
BRANCH  14  17
ATOM     17  C   UNL     1       2.540   2.995  19.103  0.00  0.00    +0.000 A 
ATOM     18  C   UNL     1       3.342   2.676  20.205  0.00  0.00    +0.000 A 
ATOM     19  C   UNL     1       2.752   2.546  21.467  0.00  0.00    +0.000 A 
ATOM     20  C   UNL     1       1.382   2.747  21.610  0.00  0.00    +0.000 A 
ATOM     21  F   UNL     1       0.819   2.606  22.817  0.00  0.00    +0.000 F 
ATOM     22  C   UNL     1       0.586   3.094  20.523  0.00  0.00    +0.000 A 
ATOM     23  C   UNL     1       1.167   3.232  19.263  0.00  0.00    +0.000 A 
ENDBRANCH  14  17
ENDBRANCH   1  14
TORSDOF 3
ENDMDL
MODEL 9
REMARK VINA RESULT:      -7.6      2.264      2.608
REMARK  Name = 
REMARK  4 active torsions:
REMARK  status: ('A' for Active; 'I' for Inactive)
REMARK    1  A    between atoms: C_1  and  C_2
REMARK    2  A    between atoms: C_5  and  N_6
REMARK    3  A    between atoms: N_6  and  S_7
REMARK    4  A    between atoms: S_7  and  C_10
REMARK                            x       y       z     vdW  Elec       q    Type
REMARK                         _______ _______ _______ _____ _____    ______ ____
ROOT
ATOM      1  N   UNL     1       3.503   4.801  17.315  0.00  0.00    +0.000 N 
ATOM      2  H   UNL     1       2.779   5.208  16.724  0.00  0.00    +0.000 HD
ENDROOT
BRANCH   1   7
ATOM      3  C   UNL     1       5.489   3.578  12.492  0.00  0.00    +0.000 C 
ATOM      4  C   UNL     1       5.966   4.217  13.757  0.00  0.00    +0.000 A 
ATOM      5  C   UNL     1       5.138   4.370  14.857  0.00  0.00    +0.000 A 
ATOM      6  C   UNL     1       5.609   5.050  15.996  0.00  0.00    +0.000 A 
ATOM      7  C   UNL     1       4.836   5.296  17.157  0.00  0.00    +0.000 A 
ATOM      8  C   UNL     1       5.356   6.042  18.218  0.00  0.00    +0.000 A 
ATOM      9  C   UNL     1       6.656   6.527  18.152  0.00  0.00    +0.000 A 
ATOM     10  C   UNL     1       7.431   6.257  17.025  0.00  0.00    +0.000 A 
ATOM     11  C   UNL     1       6.929   5.535  15.948  0.00  0.00    +0.000 A 
ATOM     12  N   UNL     1       7.707   5.333  14.876  0.00  0.00    +0.000 NA
ATOM     13  N   UNL     1       7.229   4.678  13.771  0.00  0.00    +0.000 NA
ENDBRANCH   1   7
BRANCH   1  14
ATOM     14  S   UNL     1       3.272   3.135  17.495  0.00  0.00    +0.000 S 
ATOM     15  O   UNL     1       2.280   2.769  16.506  0.00  0.00    +0.000 OA
ATOM     16  O   UNL     1       4.559   2.478  17.529  0.00  0.00    +0.000 OA
BRANCH  14  17
ATOM     17  C   UNL     1       2.518   2.985  19.099  0.00  0.00    +0.000 A 
ATOM     18  C   UNL     1       1.129   3.079  19.239  0.00  0.00    +0.000 A 
ATOM     19  C   UNL     1       0.559   2.950  20.509  0.00  0.00    +0.000 A 
ATOM     20  C   UNL     1       1.378   2.719  21.611  0.00  0.00    +0.000 A 
ATOM     21  F   UNL     1       0.830   2.613  22.828  0.00  0.00    +0.000 F 
ATOM     22  C   UNL     1       2.757   2.595  21.472  0.00  0.00    +0.000 A 
ATOM     23  C   UNL     1       3.332   2.716  20.208  0.00  0.00    +0.000 A 
ENDBRANCH  14  17
ENDBRANCH   1  14
TORSDOF 3
ENDMDL
