MODEL 1
REMARK VINA RESULT:      -8.3      0.000      0.000
REMARK  Name = 
REMARK  11 active torsions:
REMARK  status: ('A' for Active; 'I' for Inactive)
REMARK    1  A    between atoms: C_1  and  C_2
REMARK    2  A    between atoms: C_2  and  C_3
REMARK    3  A    between atoms: C_5  and  C_6
REMARK    4  A    between atoms: C_13  and  C_14
REMARK    5  A    between atoms: C_14  and  C_15
REMARK    6  A    between atoms: N_16  and  C_17
REMARK    7  A    between atoms: C_17  and  C_18
REMARK    8  A    between atoms: N_20  and  N_21
REMARK    9  A    between atoms: N_21  and  C_22
REMARK   10  A    between atoms: C_25  and  S_26
REMARK   11  A    between atoms: S_26  and  N_27
REMARK                            x       y       z     vdW  Elec       q    Type
REMARK                         _______ _______ _______ _____ _____    ______ ____
ROOT
ATOM      1  C   UNL     1       1.856   5.387  20.178  0.00  0.00    +0.000 C 
ATOM      2  O   UNL     1       1.180   4.414  19.836  0.00  0.00    +0.000 OA
ATOM      3  N   UNL     1       1.262   6.486  20.760  0.00  0.00    +0.000 N 
ATOM      4  H   UNL     1       0.250   6.458  20.873  0.00  0.00    +0.000 HD
ENDROOT
BRANCH   3   5
ATOM      5  N   UNL     1       1.941   7.687  21.036  0.00  0.00    +0.000 N 
ATOM      6  H   UNL     1       2.586   8.011  20.318  0.00  0.00    +0.000 HD
BRANCH   5   7
ATOM      7  C   UNL     1       1.110   8.795  21.370  0.00  0.00    +0.000 A 
ATOM      8  C   UNL     1       0.859   9.861  20.500  0.00  0.00    +0.000 A 
ATOM      9  C   UNL     1       0.004  10.900  20.883  0.00  0.00    +0.000 A 
ATOM     10  C   UNL     1      -0.630  10.860  22.129  0.00  0.00    +0.000 A 
ATOM     11  C   UNL     1      -0.415   9.793  22.998  0.00  0.00    +0.000 A 
ATOM     12  C   UNL     1       0.434   8.759  22.607  0.00  0.00    +0.000 A 
BRANCH  10  13
ATOM     13  S   UNL     1      -1.683  12.197  22.628  0.00  0.00    +0.000 S 
ATOM     14  O   UNL     1      -2.657  11.683  23.560  0.00  0.00    +0.000 OA
ATOM     15  O   UNL     1      -0.854  13.347  22.910  0.00  0.00    +0.000 OA
BRANCH  13  16
ATOM     16  N   UNL     1      -2.492  12.526  21.197  0.00  0.00    +0.000 NA
ATOM     17  H   UNL     1      -3.457  12.794  21.395  0.00  0.00    +0.000 HD
ATOM     18  H   UNL     1      -1.981  13.230  20.658  0.00  0.00    +0.000 HD
ENDBRANCH  13  16
ENDBRANCH  10  13
ENDBRANCH   5   7
ENDBRANCH   3   5
BRANCH   1  19
ATOM     19  C   UNL     1       3.323   5.431  19.894  0.00  0.00    +0.000 C 
BRANCH  19  25
ATOM     20  C   UNL     1       4.295   3.954  18.189  0.00  0.00    +0.000 A 
ATOM     21  C   UNL     1       4.889   3.689  16.938  0.00  0.00    +0.000 A 
ATOM     22  C   UNL     1       5.122   4.688  16.005  0.00  0.00    +0.000 A 
ATOM     23  C   UNL     1       4.689   5.955  16.367  0.00  0.00    +0.000 A 
ATOM     24  C   UNL     1       4.050   6.250  17.590  0.00  0.00    +0.000 A 
ATOM     25  N   UNL     1       3.875   5.232  18.512  0.00  0.00    +0.000 N 
BRANCH  22  26
ATOM     26  C   UNL     1       5.794   4.461  14.704  0.00  0.00    +0.000 A 
ATOM     27  C   UNL     1       5.204   3.677  13.698  0.00  0.00    +0.000 A 
ATOM     28  C   UNL     1       5.828   3.511  12.455  0.00  0.00    +0.000 A 
ATOM     29  C   UNL     1       7.045   4.132  12.187  0.00  0.00    +0.000 A 
ATOM     30  C   UNL     1       7.651   4.907  13.166  0.00  0.00    +0.000 A 
ATOM     31  C   UNL     1       7.037   5.057  14.413  0.00  0.00    +0.000 A 
ENDBRANCH  22  26
BRANCH  20  33
ATOM     32  C   UNL     1       3.574   1.541  18.516  0.00  0.00    +0.000 C 
ATOM     33  C   UNL     1       4.196   2.776  19.153  0.00  0.00    +0.000 C 
ENDBRANCH  20  33
BRANCH  24  34
ATOM     34  C   UNL     1       3.753   7.723  17.831  0.00  0.00    +0.000 C 
ATOM     35  C   UNL     1       2.335   8.248  17.597  0.00  0.00    +0.000 C 
ENDBRANCH  24  34
ENDBRANCH  19  25
ENDBRANCH   1  19
TORSDOF 9
ENDMDL
MODEL 2
REMARK VINA RESULT:      -8.3      0.627      1.428
REMARK  Name = 
REMARK  11 active torsions:
REMARK  status: ('A' for Active; 'I' for Inactive)
REMARK    1  A    between atoms: C_1  and  C_2
REMARK    2  A    between atoms: C_2  and  C_3
REMARK    3  A    between atoms: C_5  and  C_6
REMARK    4  A    between atoms: C_13  and  C_14
REMARK    5  A    between atoms: C_14  and  C_15
REMARK    6  A    between atoms: N_16  and  C_17
REMARK    7  A    between atoms: C_17  and  C_18
REMARK    8  A    between atoms: N_20  and  N_21
REMARK    9  A    between atoms: N_21  and  C_22
REMARK   10  A    between atoms: C_25  and  S_26
REMARK   11  A    between atoms: S_26  and  N_27
REMARK                            x       y       z     vdW  Elec       q    Type
REMARK                         _______ _______ _______ _____ _____    ______ ____
ROOT
ATOM      1  C   UNL     1       1.864   5.426  20.218  0.00  0.00    +0.000 C 
ATOM      2  O   UNL     1       1.219   4.427  19.893  0.00  0.00    +0.000 OA
ATOM      3  N   UNL     1       1.239   6.509  20.797  0.00  0.00    +0.000 N 
ATOM      4  H   UNL     1       0.229   6.446  20.922  0.00  0.00    +0.000 HD
ENDROOT
BRANCH   3   5
ATOM      5  N   UNL     1       1.877   7.735  21.054  0.00  0.00    +0.000 N 
ATOM      6  H   UNL     1       2.468   8.098  20.308  0.00  0.00    +0.000 HD
BRANCH   5   7
ATOM      7  C   UNL     1       1.018   8.800  21.449  0.00  0.00    +0.000 A 
ATOM      8  C   UNL     1       0.436   8.892  22.717  0.00  0.00    +0.000 A 
ATOM      9  C   UNL     1      -0.371   9.988  23.047  0.00  0.00    +0.000 A 
ATOM     10  C   UNL     1      -0.572  11.012  22.117  0.00  0.00    +0.000 A 
ATOM     11  C   UNL     1       0.022  10.953  20.858  0.00  0.00    +0.000 A 
ATOM     12  C   UNL     1       0.829   9.862  20.539  0.00  0.00    +0.000 A 
BRANCH  10  13
ATOM     13  S   UNL     1      -1.627  12.380  22.523  0.00  0.00    +0.000 S 
ATOM     14  O   UNL     1      -0.905  13.262  23.406  0.00  0.00    +0.000 OA
ATOM     15  O   UNL     1      -2.270  12.833  21.310  0.00  0.00    +0.000 OA
BRANCH  13  16
ATOM     16  N   UNL     1      -2.808  11.620  23.438  0.00  0.00    +0.000 NA
ATOM     17  H   UNL     1      -2.501  11.541  24.409  0.00  0.00    +0.000 HD
ATOM     18  H   UNL     1      -3.701  12.109  23.337  0.00  0.00    +0.000 HD
ENDBRANCH  13  16
ENDBRANCH  10  13
ENDBRANCH   5   7
ENDBRANCH   3   5
BRANCH   1  19
ATOM     19  C   UNL     1       3.326   5.519  19.916  0.00  0.00    +0.000 C 
BRANCH  19  25
ATOM     20  C   UNL     1       4.331   4.061  18.215  0.00  0.00    +0.000 A 
ATOM     21  C   UNL     1       4.920   3.804  16.959  0.00  0.00    +0.000 A 
ATOM     22  C   UNL     1       5.106   4.801  16.014  0.00  0.00    +0.000 A 
ATOM     23  C   UNL     1       4.630   6.055  16.368  0.00  0.00    +0.000 A 
ATOM     24  C   UNL     1       3.996   6.340  17.595  0.00  0.00    +0.000 A 
ATOM     25  N   UNL     1       3.869   5.326  18.530  0.00  0.00    +0.000 N 
BRANCH  22  26
ATOM     26  C   UNL     1       5.770   4.585  14.707  0.00  0.00    +0.000 A 
ATOM     27  C   UNL     1       7.014   5.167  14.408  0.00  0.00    +0.000 A 
ATOM     28  C   UNL     1       7.653   4.914  13.188  0.00  0.00    +0.000 A 
ATOM     29  C   UNL     1       7.071   4.068  12.248  0.00  0.00    +0.000 A 
ATOM     30  C   UNL     1       5.841   3.484  12.516  0.00  0.00    +0.000 A 
ATOM     31  C   UNL     1       5.194   3.752  13.727  0.00  0.00    +0.000 A 
ENDBRANCH  22  26
BRANCH  20  33
ATOM     32  C   UNL     1       3.553   1.680  18.631  0.00  0.00    +0.000 C 
ATOM     33  C   UNL     1       4.287   2.891  19.192  0.00  0.00    +0.000 C 
ENDBRANCH  20  33
BRANCH  24  34
ATOM     34  C   UNL     1       3.647   7.803  17.824  0.00  0.00    +0.000 C 
ATOM     35  C   UNL     1       2.208   8.274  17.605  0.00  0.00    +0.000 C 
ENDBRANCH  24  34
ENDBRANCH  19  25
ENDBRANCH   1  19
TORSDOF 9
ENDMDL
MODEL 3
REMARK VINA RESULT:      -8.1      0.708      1.127
REMARK  Name = 
REMARK  11 active torsions:
REMARK  status: ('A' for Active; 'I' for Inactive)
REMARK    1  A    between atoms: C_1  and  C_2
REMARK    2  A    between atoms: C_2  and  C_3
REMARK    3  A    between atoms: C_5  and  C_6
REMARK    4  A    between atoms: C_13  and  C_14
REMARK    5  A    between atoms: C_14  and  C_15
REMARK    6  A    between atoms: N_16  and  C_17
REMARK    7  A    between atoms: C_17  and  C_18
REMARK    8  A    between atoms: N_20  and  N_21
REMARK    9  A    between atoms: N_21  and  C_22
REMARK   10  A    between atoms: C_25  and  S_26
REMARK   11  A    between atoms: S_26  and  N_27
REMARK                            x       y       z     vdW  Elec       q    Type
REMARK                         _______ _______ _______ _____ _____    ______ ____
ROOT
ATOM      1  C   UNL     1       1.849   5.271  20.174  0.00  0.00    +0.000 C 
ATOM      2  O   UNL     1       1.163   4.311  19.816  0.00  0.00    +0.000 OA
ATOM      3  N   UNL     1       1.265   6.370  20.766  0.00  0.00    +0.000 N 
ATOM      4  H   UNL     1       0.251   6.353  20.872  0.00  0.00    +0.000 HD
ENDROOT
BRANCH   3   5
ATOM      5  N   UNL     1       1.956   7.559  21.061  0.00  0.00    +0.000 N 
ATOM      6  H   UNL     1       2.707   7.811  20.420  0.00  0.00    +0.000 HD
BRANCH   5   7
ATOM      7  C   UNL     1       1.143   8.718  21.213  0.00  0.00    +0.000 A 
ATOM      8  C   UNL     1       0.789   9.557  20.152  0.00  0.00    +0.000 A 
ATOM      9  C   UNL     1      -0.044  10.660  20.370  0.00  0.00    +0.000 A 
ATOM     10  C   UNL     1      -0.553  10.909  21.649  0.00  0.00    +0.000 A 
ATOM     11  C   UNL     1      -0.235  10.069  22.713  0.00  0.00    +0.000 A 
ATOM     12  C   UNL     1       0.591   8.969  22.487  0.00  0.00    +0.000 A 
BRANCH  10  13
ATOM     13  S   UNL     1      -1.577  12.330  21.931  0.00  0.00    +0.000 S 
ATOM     14  O   UNL     1      -2.621  12.341  20.937  0.00  0.00    +0.000 OA
ATOM     15  O   UNL     1      -1.839  12.427  23.350  0.00  0.00    +0.000 OA
BRANCH  13  16
ATOM     16  N   UNL     1      -0.519  13.574  21.551  0.00  0.00    +0.000 NA
ATOM     17  H   UNL     1       0.439  13.222  21.523  0.00  0.00    +0.000 HD
ATOM     18  H   UNL     1      -0.807  14.027  20.680  0.00  0.00    +0.000 HD
ENDBRANCH  13  16
ENDBRANCH  10  13
ENDBRANCH   5   7
ENDBRANCH   3   5
BRANCH   1  19
ATOM     19  C   UNL     1       3.318   5.300  19.900  0.00  0.00    +0.000 C 
BRANCH  19  25
ATOM     20  C   UNL     1       4.330   3.901  18.154  0.00  0.00    +0.000 A 
ATOM     21  C   UNL     1       4.931   3.689  16.895  0.00  0.00    +0.000 A 
ATOM     22  C   UNL     1       5.135   4.720  15.992  0.00  0.00    +0.000 A 
ATOM     23  C   UNL     1       4.666   5.964  16.390  0.00  0.00    +0.000 A 
ATOM     24  C   UNL     1       4.020   6.205  17.620  0.00  0.00    +0.000 A 
ATOM     25  N   UNL     1       3.875   5.156  18.513  0.00  0.00    +0.000 N 
BRANCH  22  26
ATOM     26  C   UNL     1       5.812   4.550  14.685  0.00  0.00    +0.000 A 
ATOM     27  C   UNL     1       7.040   5.173  14.405  0.00  0.00    +0.000 A 
ATOM     28  C   UNL     1       7.692   4.963  13.183  0.00  0.00    +0.000 A 
ATOM     29  C   UNL     1       7.139   4.120  12.223  0.00  0.00    +0.000 A 
ATOM     30  C   UNL     1       5.925   3.496  12.473  0.00  0.00    +0.000 A 
ATOM     31  C   UNL     1       5.265   3.721  13.685  0.00  0.00    +0.000 A 
ENDBRANCH  22  26
BRANCH  20  33
ATOM     32  C   UNL     1       3.353   1.593  18.561  0.00  0.00    +0.000 C 
ATOM     33  C   UNL     1       4.266   2.694  19.084  0.00  0.00    +0.000 C 
ENDBRANCH  20  33
BRANCH  24  34
ATOM     34  C   UNL     1       3.680   7.662  17.903  0.00  0.00    +0.000 C 
ATOM     35  C   UNL     1       2.309   8.203  17.497  0.00  0.00    +0.000 C 
ENDBRANCH  24  34
ENDBRANCH  19  25
ENDBRANCH   1  19
TORSDOF 9
ENDMDL
MODEL 4
REMARK VINA RESULT:      -8.0      2.066      2.897
REMARK  Name = 
REMARK  11 active torsions:
REMARK  status: ('A' for Active; 'I' for Inactive)
REMARK    1  A    between atoms: C_1  and  C_2
REMARK    2  A    between atoms: C_2  and  C_3
REMARK    3  A    between atoms: C_5  and  C_6
REMARK    4  A    between atoms: C_13  and  C_14
REMARK    5  A    between atoms: C_14  and  C_15
REMARK    6  A    between atoms: N_16  and  C_17
REMARK    7  A    between atoms: C_17  and  C_18
REMARK    8  A    between atoms: N_20  and  N_21
REMARK    9  A    between atoms: N_21  and  C_22
REMARK   10  A    between atoms: C_25  and  S_26
REMARK   11  A    between atoms: S_26  and  N_27
REMARK                            x       y       z     vdW  Elec       q    Type
REMARK                         _______ _______ _______ _____ _____    ______ ____
ROOT
ATOM      1  C   UNL     1       2.934   4.421  20.402  0.00  0.00    +0.000 C 
ATOM      2  O   UNL     1       2.297   3.442  20.793  0.00  0.00    +0.000 OA
ATOM      3  N   UNL     1       2.313   5.638  20.220  0.00  0.00    +0.000 N 
ATOM      4  H   UNL     1       1.311   5.677  20.406  0.00  0.00    +0.000 HD
ENDROOT
BRANCH   3   5
ATOM      5  N   UNL     1       2.936   6.755  19.636  0.00  0.00    +0.000 N 
ATOM      6  H   UNL     1       3.367   6.602  18.726  0.00  0.00    +0.000 HD
BRANCH   5   7
ATOM      7  C   UNL     1       2.119   7.915  19.511  0.00  0.00    +0.000 A 
ATOM      8  C   UNL     1       1.988   8.643  18.324  0.00  0.00    +0.000 A 
ATOM      9  C   UNL     1       1.138   9.753  18.265  0.00  0.00    +0.000 A 
ATOM     10  C   UNL     1       0.391  10.121  19.388  0.00  0.00    +0.000 A 
ATOM     11  C   UNL     1       0.486   9.392  20.571  0.00  0.00    +0.000 A 
ATOM     12  C   UNL     1       1.330   8.284  20.620  0.00  0.00    +0.000 A 
BRANCH  10  13
ATOM     13  S   UNL     1      -0.656  11.552  19.323  0.00  0.00    +0.000 S 
ATOM     14  O   UNL     1      -2.001  11.117  19.038  0.00  0.00    +0.000 OA
ATOM     15  O   UNL     1      -0.324  12.408  20.439  0.00  0.00    +0.000 OA
BRANCH  13  16
ATOM     16  N   UNL     1      -0.080  12.314  17.945  0.00  0.00    +0.000 NA
ATOM     17  H   UNL     1      -0.605  13.173  17.774  0.00  0.00    +0.000 HD
ATOM     18  H   UNL     1       0.929  12.467  18.023  0.00  0.00    +0.000 HD
ENDBRANCH  13  16
ENDBRANCH  10  13
ENDBRANCH   5   7
ENDBRANCH   3   5
BRANCH   1  19
ATOM     19  C   UNL     1       4.378   4.292  20.036  0.00  0.00    +0.000 C 
BRANCH  19  25
ATOM     20  C   UNL     1       6.058   4.763  18.307  0.00  0.00    +0.000 A 
ATOM     21  C   UNL     1       6.536   4.775  16.981  0.00  0.00    +0.000 A 
ATOM     22  C   UNL     1       5.794   4.269  15.925  0.00  0.00    +0.000 A 
ATOM     23  C   UNL     1       4.574   3.706  16.268  0.00  0.00    +0.000 A 
ATOM     24  C   UNL     1       4.083   3.635  17.589  0.00  0.00    +0.000 A 
ATOM     25  N   UNL     1       4.835   4.192  18.610  0.00  0.00    +0.000 N 
BRANCH  22  26
ATOM     26  C   UNL     1       6.236   4.314  14.511  0.00  0.00    +0.000 A 
ATOM     27  C   UNL     1       7.320   5.109  14.103  0.00  0.00    +0.000 A 
ATOM     28  C   UNL     1       7.757   5.104  12.773  0.00  0.00    +0.000 A 
ATOM     29  C   UNL     1       7.129   4.299  11.826  0.00  0.00    +0.000 A 
ATOM     30  C   UNL     1       6.052   3.508  12.202  0.00  0.00    +0.000 A 
ATOM     31  C   UNL     1       5.605   3.527  13.526  0.00  0.00    +0.000 A 
ENDBRANCH  22  26
BRANCH  20  33
ATOM     32  C   UNL     1       7.901   6.456  18.738  0.00  0.00    +0.000 C 
ATOM     33  C   UNL     1       6.937   5.448  19.348  0.00  0.00    +0.000 C 
ENDBRANCH  20  33
BRANCH  24  34
ATOM     34  C   UNL     1       2.675   3.074  17.731  0.00  0.00    +0.000 C 
ATOM     35  C   UNL     1       1.480   3.946  17.345  0.00  0.00    +0.000 C 
ENDBRANCH  24  34
ENDBRANCH  19  25
ENDBRANCH   1  19
TORSDOF 9
ENDMDL
MODEL 5
REMARK VINA RESULT:      -8.0      0.292      2.467
REMARK  Name = 
REMARK  11 active torsions:
REMARK  status: ('A' for Active; 'I' for Inactive)
REMARK    1  A    between atoms: C_1  and  C_2
REMARK    2  A    between atoms: C_2  and  C_3
REMARK    3  A    between atoms: C_5  and  C_6
REMARK    4  A    between atoms: C_13  and  C_14
REMARK    5  A    between atoms: C_14  and  C_15
REMARK    6  A    between atoms: N_16  and  C_17
REMARK    7  A    between atoms: C_17  and  C_18
REMARK    8  A    between atoms: N_20  and  N_21
REMARK    9  A    between atoms: N_21  and  C_22
REMARK   10  A    between atoms: C_25  and  S_26
REMARK   11  A    between atoms: S_26  and  N_27
REMARK                            x       y       z     vdW  Elec       q    Type
REMARK                         _______ _______ _______ _____ _____    ______ ____
ROOT
ATOM      1  C   UNL     1       1.909   5.404  20.002  0.00  0.00    +0.000 C 
ATOM      2  O   UNL     1       1.294   4.481  19.463  0.00  0.00    +0.000 OA
ATOM      3  N   UNL     1       1.233   6.409  20.660  0.00  0.00    +0.000 N 
ATOM      4  H   UNL     1       0.215   6.357  20.660  0.00  0.00    +0.000 HD
ENDROOT
BRANCH   3   5
ATOM      5  N   UNL     1       1.852   7.567  21.164  0.00  0.00    +0.000 N 
ATOM      6  H   UNL     1       2.605   7.954  20.599  0.00  0.00    +0.000 HD
BRANCH   5   7
ATOM      7  C   UNL     1       0.973   8.646  21.468  0.00  0.00    +0.000 A 
ATOM      8  C   UNL     1       0.541   8.949  22.763  0.00  0.00    +0.000 A 
ATOM      9  C   UNL     1      -0.295  10.048  22.991  0.00  0.00    +0.000 A 
ATOM     10  C   UNL     1      -0.678  10.867  21.924  0.00  0.00    +0.000 A 
ATOM     11  C   UNL     1      -0.236  10.598  20.631  0.00  0.00    +0.000 A 
ATOM     12  C   UNL     1       0.602   9.506  20.413  0.00  0.00    +0.000 A 
BRANCH  10  13
ATOM     13  S   UNL     1      -1.770  12.236  22.209  0.00  0.00    +0.000 S 
ATOM     14  O   UNL     1      -2.741  11.842  23.201  0.00  0.00    +0.000 OA
ATOM     15  O   UNL     1      -0.974  13.437  22.319  0.00  0.00    +0.000 OA
BRANCH  13  16
ATOM     16  N   UNL     1      -2.572  12.323  20.740  0.00  0.00    +0.000 NA
ATOM     17  H   UNL     1      -3.282  11.592  20.684  0.00  0.00    +0.000 HD
ATOM     18  H   UNL     1      -2.951  13.264  20.601  0.00  0.00    +0.000 HD
ENDBRANCH  13  16
ENDBRANCH  10  13
ENDBRANCH   5   7
ENDBRANCH   3   5
BRANCH   1  19
ATOM     19  C   UNL     1       3.396   5.499  19.882  0.00  0.00    +0.000 C 
BRANCH  19  25
ATOM     20  C   UNL     1       4.272   6.263  17.719  0.00  0.00    +0.000 A 
ATOM     21  C   UNL     1       4.875   6.065  16.460  0.00  0.00    +0.000 A 
ATOM     22  C   UNL     1       5.288   4.814  16.028  0.00  0.00    +0.000 A 
ATOM     23  C   UNL     1       5.112   3.781  16.936  0.00  0.00    +0.000 A 
ATOM     24  C   UNL     1       4.555   3.947  18.221  0.00  0.00    +0.000 A 
ATOM     25  N   UNL     1       4.115   5.206  18.598  0.00  0.00    +0.000 N 
BRANCH  22  26
ATOM     26  C   UNL     1       5.874   4.555  14.691  0.00  0.00    +0.000 A 
ATOM     27  C   UNL     1       5.234   3.725  13.755  0.00  0.00    +0.000 A 
ATOM     28  C   UNL     1       5.774   3.529  12.479  0.00  0.00    +0.000 A 
ATOM     29  C   UNL     1       6.955   4.164  12.106  0.00  0.00    +0.000 A 
ATOM     30  C   UNL     1       7.610   4.986  13.013  0.00  0.00    +0.000 A 
ATOM     31  C   UNL     1       7.080   5.167  14.294  0.00  0.00    +0.000 A 
ENDBRANCH  22  26
BRANCH  20  33
ATOM     32  C   UNL     1       2.364   7.923  17.502  0.00  0.00    +0.000 C 
ATOM     33  C   UNL     1       3.775   7.673  18.016  0.00  0.00    +0.000 C 
ENDBRANCH  20  33
BRANCH  24  34
ATOM     34  C   UNL     1       4.354   2.665  19.016  0.00  0.00    +0.000 C 
ATOM     35  C   UNL     1       3.316   1.647  18.544  0.00  0.00    +0.000 C 
ENDBRANCH  24  34
ENDBRANCH  19  25
ENDBRANCH   1  19
TORSDOF 9
ENDMDL
MODEL 6
REMARK VINA RESULT:      -7.9      2.189      3.254
REMARK  Name = 
REMARK  11 active torsions:
REMARK  status: ('A' for Active; 'I' for Inactive)
REMARK    1  A    between atoms: C_1  and  C_2
REMARK    2  A    between atoms: C_2  and  C_3
REMARK    3  A    between atoms: C_5  and  C_6
REMARK    4  A    between atoms: C_13  and  C_14
REMARK    5  A    between atoms: C_14  and  C_15
REMARK    6  A    between atoms: N_16  and  C_17
REMARK    7  A    between atoms: C_17  and  C_18
REMARK    8  A    between atoms: N_20  and  N_21
REMARK    9  A    between atoms: N_21  and  C_22
REMARK   10  A    between atoms: C_25  and  S_26
REMARK   11  A    between atoms: S_26  and  N_27
REMARK                            x       y       z     vdW  Elec       q    Type
REMARK                         _______ _______ _______ _____ _____    ______ ____
ROOT
ATOM      1  C   UNL     1       3.021   4.254  20.470  0.00  0.00    +0.000 C 
ATOM      2  O   UNL     1       2.398   3.272  20.876  0.00  0.00    +0.000 OA
ATOM      3  N   UNL     1       2.384   5.461  20.280  0.00  0.00    +0.000 N 
ATOM      4  H   UNL     1       1.383   5.490  20.472  0.00  0.00    +0.000 HD
ENDROOT
BRANCH   3   5
ATOM      5  N   UNL     1       2.990   6.580  19.679  0.00  0.00    +0.000 N 
ATOM      6  H   UNL     1       3.433   6.417  18.776  0.00  0.00    +0.000 HD
BRANCH   5   7
ATOM      7  C   UNL     1       2.150   7.719  19.522  0.00  0.00    +0.000 A 
ATOM      8  C   UNL     1       1.404   8.278  20.565  0.00  0.00    +0.000 A 
ATOM      9  C   UNL     1       0.627   9.421  20.345  0.00  0.00    +0.000 A 
ATOM     10  C   UNL     1       0.617  10.027  19.086  0.00  0.00    +0.000 A 
ATOM     11  C   UNL     1       1.375   9.503  18.041  0.00  0.00    +0.000 A 
ATOM     12  C   UNL     1       2.151   8.368  18.269  0.00  0.00    +0.000 A 
BRANCH  10  13
ATOM     13  S   UNL     1      -0.400  11.453  18.798  0.00  0.00    +0.000 S 
ATOM     14  O   UNL     1       0.463  12.579  18.536  0.00  0.00    +0.000 OA
ATOM     15  O   UNL     1      -1.483  11.069  17.921  0.00  0.00    +0.000 OA
BRANCH  13  16
ATOM     16  N   UNL     1      -1.069  11.686  20.317  0.00  0.00    +0.000 NA
ATOM     17  H   UNL     1      -0.879  12.635  20.642  0.00  0.00    +0.000 HD
ATOM     18  H   UNL     1      -2.067  11.459  20.300  0.00  0.00    +0.000 HD
ENDBRANCH  13  16
ENDBRANCH  10  13
ENDBRANCH   5   7
ENDBRANCH   3   5
BRANCH   1  19
ATOM     19  C   UNL     1       4.464   4.138  20.095  0.00  0.00    +0.000 C 
BRANCH  19  25
ATOM     20  C   UNL     1       6.097   4.727  18.358  0.00  0.00    +0.000 A 
ATOM     21  C   UNL     1       6.563   4.780  17.028  0.00  0.00    +0.000 A 
ATOM     22  C   UNL     1       5.847   4.234  15.974  0.00  0.00    +0.000 A 
ATOM     23  C   UNL     1       4.667   3.593  16.322  0.00  0.00    +0.000 A 
ATOM     24  C   UNL     1       4.192   3.481  17.645  0.00  0.00    +0.000 A 
ATOM     25  N   UNL     1       4.915   4.077  18.665  0.00  0.00    +0.000 N 
BRANCH  22  26
ATOM     26  C   UNL     1       6.274   4.318  14.557  0.00  0.00    +0.000 A 
ATOM     27  C   UNL     1       7.338   5.144  14.156  0.00  0.00    +0.000 A 
ATOM     28  C   UNL     1       7.762   5.175  12.822  0.00  0.00    +0.000 A 
ATOM     29  C   UNL     1       7.143   4.376  11.865  0.00  0.00    +0.000 A 
ATOM     30  C   UNL     1       6.087   3.555  12.234  0.00  0.00    +0.000 A 
ATOM     31  C   UNL     1       5.651   3.538  13.563  0.00  0.00    +0.000 A 
ENDBRANCH  22  26
BRANCH  20  33
ATOM     32  C   UNL     1       7.989   6.368  18.776  0.00  0.00    +0.000 C 
ATOM     33  C   UNL     1       6.939   5.460  19.398  0.00  0.00    +0.000 C 
ENDBRANCH  20  33
BRANCH  24  34
ATOM     34  C   UNL     1       2.824   2.831  17.793  0.00  0.00    +0.000 C 
ATOM     35  C   UNL     1       1.571   3.637  17.448  0.00  0.00    +0.000 C 
ENDBRANCH  24  34
ENDBRANCH  19  25
ENDBRANCH   1  19
TORSDOF 9
ENDMDL
MODEL 7
REMARK VINA RESULT:      -7.9      1.970      2.879
REMARK  Name = 
REMARK  11 active torsions:
REMARK  status: ('A' for Active; 'I' for Inactive)
REMARK    1  A    between atoms: C_1  and  C_2
REMARK    2  A    between atoms: C_2  and  C_3
REMARK    3  A    between atoms: C_5  and  C_6
REMARK    4  A    between atoms: C_13  and  C_14
REMARK    5  A    between atoms: C_14  and  C_15
REMARK    6  A    between atoms: N_16  and  C_17
REMARK    7  A    between atoms: C_17  and  C_18
REMARK    8  A    between atoms: N_20  and  N_21
REMARK    9  A    between atoms: N_21  and  C_22
REMARK   10  A    between atoms: C_25  and  S_26
REMARK   11  A    between atoms: S_26  and  N_27
REMARK                            x       y       z     vdW  Elec       q    Type
REMARK                         _______ _______ _______ _____ _____    ______ ____
ROOT
ATOM      1  C   UNL     1       3.055   4.834  20.185  0.00  0.00    +0.000 C 
ATOM      2  O   UNL     1       2.521   3.883  20.758  0.00  0.00    +0.000 OA
ATOM      3  N   UNL     1       2.311   5.927  19.794  0.00  0.00    +0.000 N 
ATOM      4  H   UNL     1       1.311   5.897  19.986  0.00  0.00    +0.000 HD
ENDROOT
BRANCH   3   5
ATOM      5  N   UNL     1       2.817   6.976  19.006  0.00  0.00    +0.000 N 
ATOM      6  H   UNL     1       2.958   6.767  18.020  0.00  0.00    +0.000 HD
BRANCH   5   7
ATOM      7  C   UNL     1       2.081   8.194  19.064  0.00  0.00    +0.000 A 
ATOM      8  C   UNL     1       1.994   9.095  17.998  0.00  0.00    +0.000 A 
ATOM      9  C   UNL     1       1.222  10.256  18.114  0.00  0.00    +0.000 A 
ATOM     10  C   UNL     1       0.508  10.505  19.290  0.00  0.00    +0.000 A 
ATOM     11  C   UNL     1       0.558   9.606  20.353  0.00  0.00    +0.000 A 
ATOM     12  C   UNL     1       1.324   8.449  20.227  0.00  0.00    +0.000 A 
BRANCH  10  13
ATOM     13  S   UNL     1      -0.439  11.997  19.451  0.00  0.00    +0.000 S 
ATOM     14  O   UNL     1      -1.643  11.693  20.184  0.00  0.00    +0.000 OA
ATOM     15  O   UNL     1       0.460  13.068  19.820  0.00  0.00    +0.000 OA
BRANCH  13  16
ATOM     16  N   UNL     1      -0.885  12.272  17.859  0.00  0.00    +0.000 NA
ATOM     17  H   UNL     1      -0.209  11.841  17.226  0.00  0.00    +0.000 HD
ATOM     18  H   UNL     1      -1.844  11.951  17.702  0.00  0.00    +0.000 HD
ENDBRANCH  13  16
ENDBRANCH  10  13
ENDBRANCH   5   7
ENDBRANCH   3   5
BRANCH   1  19
ATOM     19  C   UNL     1       4.506   4.789  19.825  0.00  0.00    +0.000 C 
BRANCH  19  25
ATOM     20  C   UNL     1       6.242   5.022  18.104  0.00  0.00    +0.000 A 
ATOM     21  C   UNL     1       6.738   4.919  16.788  0.00  0.00    +0.000 A 
ATOM     22  C   UNL     1       5.972   4.413  15.749  0.00  0.00    +0.000 A 
ATOM     23  C   UNL     1       4.705   3.971  16.101  0.00  0.00    +0.000 A 
ATOM     24  C   UNL     1       4.192   4.016  17.414  0.00  0.00    +0.000 A 
ATOM     25  N   UNL     1       4.972   4.569  18.415  0.00  0.00    +0.000 N 
BRANCH  22  26
ATOM     26  C   UNL     1       6.435   4.340  14.343  0.00  0.00    +0.000 A 
ATOM     27  C   UNL     1       5.860   3.447  13.423  0.00  0.00    +0.000 A 
ATOM     28  C   UNL     1       6.274   3.424  12.086  0.00  0.00    +0.000 A 
ATOM     29  C   UNL     1       7.261   4.297  11.637  0.00  0.00    +0.000 A 
ATOM     30  C   UNL     1       7.849   5.186  12.526  0.00  0.00    +0.000 A 
ATOM     31  C   UNL     1       7.448   5.196  13.865  0.00  0.00    +0.000 A 
ENDBRANCH  22  26
BRANCH  20  33
ATOM     32  C   UNL     1       7.959   6.844  18.526  0.00  0.00    +0.000 C 
ATOM     33  C   UNL     1       7.159   5.694  19.121  0.00  0.00    +0.000 C 
ENDBRANCH  20  33
BRANCH  24  34
ATOM     34  C   UNL     1       2.742   3.579  17.562  0.00  0.00    +0.000 C 
ATOM     35  C   UNL     1       2.421   2.094  17.735  0.00  0.00    +0.000 C 
ENDBRANCH  24  34
ENDBRANCH  19  25
ENDBRANCH   1  19
TORSDOF 9
ENDMDL
MODEL 8
REMARK VINA RESULT:      -7.9      2.186      3.014
REMARK  Name = 
REMARK  11 active torsions:
REMARK  status: ('A' for Active; 'I' for Inactive)
REMARK    1  A    between atoms: C_1  and  C_2
REMARK    2  A    between atoms: C_2  and  C_3
REMARK    3  A    between atoms: C_5  and  C_6
REMARK    4  A    between atoms: C_13  and  C_14
REMARK    5  A    between atoms: C_14  and  C_15
REMARK    6  A    between atoms: N_16  and  C_17
REMARK    7  A    between atoms: C_17  and  C_18
REMARK    8  A    between atoms: N_20  and  N_21
REMARK    9  A    between atoms: N_21  and  C_22
REMARK   10  A    between atoms: C_25  and  S_26
REMARK   11  A    between atoms: S_26  and  N_27
REMARK                            x       y       z     vdW  Elec       q    Type
REMARK                         _______ _______ _______ _____ _____    ______ ____
ROOT
ATOM      1  C   UNL     1       2.929   4.347  20.407  0.00  0.00    +0.000 C 
ATOM      2  O   UNL     1       2.251   3.382  20.764  0.00  0.00    +0.000 OA
ATOM      3  N   UNL     1       2.352   5.587  20.239  0.00  0.00    +0.000 N 
ATOM      4  H   UNL     1       1.349   5.656  20.405  0.00  0.00    +0.000 HD
ENDROOT
BRANCH   3   5
ATOM      5  N   UNL     1       3.024   6.695  19.691  0.00  0.00    +0.000 N 
ATOM      6  H   UNL     1       3.572   6.515  18.851  0.00  0.00    +0.000 HD
BRANCH   5   7
ATOM      7  C   UNL     1       2.208   7.828  19.410  0.00  0.00    +0.000 A 
ATOM      8  C   UNL     1       2.067   8.381  18.134  0.00  0.00    +0.000 A 
ATOM      9  C   UNL     1       1.219   9.474  17.926  0.00  0.00    +0.000 A 
ATOM     10  C   UNL     1       0.483  10.000  18.993  0.00  0.00    +0.000 A 
ATOM     11  C   UNL     1       0.588   9.446  20.266  0.00  0.00    +0.000 A 
ATOM     12  C   UNL     1       1.431   8.353  20.464  0.00  0.00    +0.000 A 
BRANCH  10  13
ATOM     13  S   UNL     1      -0.561  11.411  18.736  0.00  0.00    +0.000 S 
ATOM     14  O   UNL     1       0.276  12.581  18.630  0.00  0.00    +0.000 OA
ATOM     15  O   UNL     1      -1.559  11.064  17.749  0.00  0.00    +0.000 OA
BRANCH  13  16
ATOM     16  N   UNL     1      -1.353  11.502  20.210  0.00  0.00    +0.000 NA
ATOM     17  H   UNL     1      -1.937  12.339  20.243  0.00  0.00    +0.000 HD
ATOM     18  H   UNL     1      -1.877  10.639  20.382  0.00  0.00    +0.000 HD
ENDBRANCH  13  16
ENDBRANCH  10  13
ENDBRANCH   5   7
ENDBRANCH   3   5
BRANCH   1  19
ATOM     19  C   UNL     1       4.375   4.177  20.067  0.00  0.00    +0.000 C 
BRANCH  19  25
ATOM     20  C   UNL     1       6.064   4.703  18.363  0.00  0.00    +0.000 A 
ATOM     21  C   UNL     1       6.561   4.729  17.044  0.00  0.00    +0.000 A 
ATOM     22  C   UNL     1       5.855   4.192  15.979  0.00  0.00    +0.000 A 
ATOM     23  C   UNL     1       4.651   3.586  16.305  0.00  0.00    +0.000 A 
ATOM     24  C   UNL     1       4.142   3.501  17.618  0.00  0.00    +0.000 A 
ATOM     25  N   UNL     1       4.858   4.089  18.649  0.00  0.00    +0.000 N 
BRANCH  22  26
ATOM     26  C   UNL     1       6.317   4.248  14.572  0.00  0.00    +0.000 A 
ATOM     27  C   UNL     1       5.684   3.509  13.559  0.00  0.00    +0.000 A 
ATOM     28  C   UNL     1       6.100   3.610  12.226  0.00  0.00    +0.000 A 
ATOM     29  C   UNL     1       7.146   4.458  11.874  0.00  0.00    +0.000 A 
ATOM     30  C   UNL     1       7.792   5.196  12.857  0.00  0.00    +0.000 A 
ATOM     31  C   UNL     1       7.388   5.081  14.191  0.00  0.00    +0.000 A 
ENDBRANCH  22  26
BRANCH  20  33
ATOM     32  C   UNL     1       7.966   6.325  18.808  0.00  0.00    +0.000 C 
ATOM     33  C   UNL     1       6.900   5.424  19.415  0.00  0.00    +0.000 C 
ENDBRANCH  20  33
BRANCH  24  34
ATOM     34  C   UNL     1       2.754   2.890  17.741  0.00  0.00    +0.000 C 
ATOM     35  C   UNL     1       1.531   3.731  17.375  0.00  0.00    +0.000 C 
ENDBRANCH  24  34
ENDBRANCH  19  25
ENDBRANCH   1  19
TORSDOF 9
ENDMDL
MODEL 9
REMARK VINA RESULT:      -7.7      2.091      3.191
REMARK  Name = 
REMARK  11 active torsions:
REMARK  status: ('A' for Active; 'I' for Inactive)
REMARK    1  A    between atoms: C_1  and  C_2
REMARK    2  A    between atoms: C_2  and  C_3
REMARK    3  A    between atoms: C_5  and  C_6
REMARK    4  A    between atoms: C_13  and  C_14
REMARK    5  A    between atoms: C_14  and  C_15
REMARK    6  A    between atoms: N_16  and  C_17
REMARK    7  A    between atoms: C_17  and  C_18
REMARK    8  A    between atoms: N_20  and  N_21
REMARK    9  A    between atoms: N_21  and  C_22
REMARK   10  A    between atoms: C_25  and  S_26
REMARK   11  A    between atoms: S_26  and  N_27
REMARK                            x       y       z     vdW  Elec       q    Type
REMARK                         _______ _______ _______ _____ _____    ______ ____
ROOT
ATOM      1  C   UNL     1       2.924   4.528  20.156  0.00  0.00    +0.000 C 
ATOM      2  O   UNL     1       2.369   3.563  20.685  0.00  0.00    +0.000 OA
ATOM      3  N   UNL     1       2.199   5.638  19.782  0.00  0.00    +0.000 N 
ATOM      4  H   UNL     1       1.194   5.610  19.947  0.00  0.00    +0.000 HD
ENDROOT
BRANCH   3   5
ATOM      5  N   UNL     1       2.733   6.707  19.040  0.00  0.00    +0.000 N 
ATOM      6  H   UNL     1       2.910   6.524  18.054  0.00  0.00    +0.000 HD
BRANCH   5   7
ATOM      7  C   UNL     1       1.994   7.923  19.102  0.00  0.00    +0.000 A 
ATOM      8  C   UNL     1       1.449   8.436  20.284  0.00  0.00    +0.000 A 
ATOM      9  C   UNL     1       0.764   9.656  20.276  0.00  0.00    +0.000 A 
ATOM     10  C   UNL     1       0.648  10.384  19.088  0.00  0.00    +0.000 A 
ATOM     11  C   UNL     1       1.208   9.904  17.906  0.00  0.00    +0.000 A 
ATOM     12  C   UNL     1       1.894   8.691  17.923  0.00  0.00    +0.000 A 
BRANCH  10  13
ATOM     13  S   UNL     1      -0.255  11.911  19.071  0.00  0.00    +0.000 S 
ATOM     14  O   UNL     1      -1.233  11.848  18.013  0.00  0.00    +0.000 OA
ATOM     15  O   UNL     1      -0.591  12.255  20.434  0.00  0.00    +0.000 OA
BRANCH  13  16
ATOM     16  N   UNL     1       0.934  12.987  18.582  0.00  0.00    +0.000 NA
ATOM     17  H   UNL     1       0.526  13.716  17.995  0.00  0.00    +0.000 HD
ATOM     18  H   UNL     1       1.431  13.357  19.396  0.00  0.00    +0.000 HD
ENDBRANCH  13  16
ENDBRANCH  10  13
ENDBRANCH   5   7
ENDBRANCH   3   5
BRANCH   1  19
ATOM     19  C   UNL     1       4.383   4.481  19.832  0.00  0.00    +0.000 C 
BRANCH  19  25
ATOM     20  C   UNL     1       6.105   4.912  18.134  0.00  0.00    +0.000 A 
ATOM     21  C   UNL     1       6.622   4.877  16.822  0.00  0.00    +0.000 A 
ATOM     22  C   UNL     1       5.922   4.310  15.768  0.00  0.00    +0.000 A 
ATOM     23  C   UNL     1       4.703   3.738  16.100  0.00  0.00    +0.000 A 
ATOM     24  C   UNL     1       4.174   3.713  17.408  0.00  0.00    +0.000 A 
ATOM     25  N   UNL     1       4.884   4.329  18.425  0.00  0.00    +0.000 N 
BRANCH  22  26
ATOM     26  C   UNL     1       6.405   4.304  14.367  0.00  0.00    +0.000 A 
ATOM     27  C   UNL     1       5.847   3.450  13.400  0.00  0.00    +0.000 A 
ATOM     28  C   UNL     1       6.280   3.489  12.069  0.00  0.00    +0.000 A 
ATOM     29  C   UNL     1       7.267   4.387  11.673  0.00  0.00    +0.000 A 
ATOM     30  C   UNL     1       7.838   5.238  12.610  0.00  0.00    +0.000 A 
ATOM     31  C   UNL     1       7.419   5.186  13.943  0.00  0.00    +0.000 A 
ENDBRANCH  22  26
BRANCH  20  33
ATOM     32  C   UNL     1       7.908   6.651  18.543  0.00  0.00    +0.000 C 
ATOM     33  C   UNL     1       6.938   5.659  19.169  0.00  0.00    +0.000 C 
ENDBRANCH  20  33
BRANCH  24  34
ATOM     34  C   UNL     1       2.774   3.130  17.533  0.00  0.00    +0.000 C 
ATOM     35  C   UNL     1       2.605   1.684  18.001  0.00  0.00    +0.000 C 
ENDBRANCH  24  34
ENDBRANCH  19  25
ENDBRANCH   1  19
TORSDOF 9
ENDMDL
