MODEL 1
REMARK VINA RESULT:      -7.8      0.000      0.000
REMARK  Name = 
REMARK  4 active torsions:
REMARK  status: ('A' for Active; 'I' for Inactive)
REMARK    1  A    between atoms: C_11  and  N_12
REMARK    2  A    between atoms: C_15  and  O_16
REMARK    3  A    between atoms: O_16  and  C_17
REMARK    4  A    between atoms: C_23  and  C_24
REMARK                            x       y       z     vdW  Elec       q    Type
REMARK                         _______ _______ _______ _____ _____    ______ ____
ROOT
ATOM      1  C   UNL     1       0.973   1.636  18.272  0.00  0.00    +0.000 C 
ATOM      2  C   UNL     1       1.882   2.598  18.554  0.00  0.00    +0.000 C 
ATOM      3  C   UNL     1       2.711   2.978  17.356  0.00  0.00    +0.000 C 
ATOM      4  C   UNL     1       3.939   3.405  18.050  0.00  0.00    +0.000 C 
ATOM      5  C   UNL     1       3.344   4.233  19.180  0.00  0.00    +0.000 C 
ATOM      6  C   UNL     1       2.843   5.633  18.811  0.00  0.00    +0.000 C 
ATOM      7  C   UNL     1       3.756   6.409  17.849  0.00  0.00    +0.000 C 
ATOM      8  C   UNL     1       2.999   7.613  17.324  0.00  0.00    +0.000 C 
ATOM      9  C   UNL     1       2.173   8.312  18.379  0.00  0.00    +0.000 A 
ATOM     10  C   UNL     1       1.480   9.457  17.962  0.00  0.00    +0.000 A 
ATOM     11  C   UNL     1       0.633  10.173  18.815  0.00  0.00    +0.000 A 
ATOM     12  C   UNL     1       0.549   9.757  20.155  0.00  0.00    +0.000 A 
ATOM     13  C   UNL     1       1.240   8.582  20.567  0.00  0.00    +0.000 A 
ATOM     14  C   UNL     1       2.020   7.819  19.685  0.00  0.00    +0.000 A 
ATOM     15  C   UNL     1       2.713   6.509  20.081  0.00  0.00    +0.000 C 
ATOM     16  C   UNL     1       2.128   5.693  21.253  0.00  0.00    +0.000 C 
ATOM     17  C   UNL     1       2.555   4.171  21.269  0.00  0.00    +0.000 C 
ATOM     18  C   UNL     1       2.165   3.319  19.954  0.00  0.00    +0.000 C 
ATOM     19  C   UNL     1       0.608   3.622  20.180  0.00  0.00    +0.000 C 
ENDROOT
BRANCH  11  20
ATOM     20  N   UNL     1      -0.076  11.275  18.275  0.00  0.00    +0.000 N 
ATOM     21  C   UNL     1      -0.032  12.575  18.666  0.00  0.00    +0.000 C 
ATOM     22  O   UNL     1      -0.709  13.444  18.131  0.00  0.00    +0.000 OA
ATOM     23  H   UNL     1      -0.676  11.148  17.479  0.00  0.00    +0.000 HD
ENDBRANCH  11  20
BRANCH  12  24
ATOM     24  O   UNL     1      -0.153  10.283  21.207  0.00  0.00    +0.000 OA
ATOM     25  C   UNL     1      -0.356   9.563  22.407  0.00  0.00    +0.000 C 
ENDBRANCH  12  24
TORSDOF 2
ENDMDL
MODEL 2
REMARK VINA RESULT:      -7.7      4.217      6.041
REMARK  Name = 
REMARK  4 active torsions:
REMARK  status: ('A' for Active; 'I' for Inactive)
REMARK    1  A    between atoms: C_11  and  N_12
REMARK    2  A    between atoms: C_15  and  O_16
REMARK    3  A    between atoms: O_16  and  C_17
REMARK    4  A    between atoms: C_23  and  C_24
REMARK                            x       y       z     vdW  Elec       q    Type
REMARK                         _______ _______ _______ _____ _____    ______ ____
ROOT
ATOM      1  C   UNL     1       2.231   1.775  21.963  0.00  0.00    +0.000 C 
ATOM      2  C   UNL     1       1.932   2.506  20.864  0.00  0.00    +0.000 C 
ATOM      3  C   UNL     1       1.265   3.813  21.204  0.00  0.00    +0.000 C 
ATOM      4  C   UNL     1       0.475   3.996  19.974  0.00  0.00    +0.000 C 
ATOM      5  C   UNL     1       1.510   3.625  18.922  0.00  0.00    +0.000 C 
ATOM      6  C   UNL     1       2.579   4.678  18.614  0.00  0.00    +0.000 C 
ATOM      7  C   UNL     1       2.054   6.120  18.528  0.00  0.00    +0.000 C 
ATOM      8  C   UNL     1       3.236   7.070  18.544  0.00  0.00    +0.000 C 
ATOM      9  C   UNL     1       4.402   6.594  17.710  0.00  0.00    +0.000 A 
ATOM     10  C   UNL     1       5.511   7.449  17.653  0.00  0.00    +0.000 A 
ATOM     11  C   UNL     1       6.683   7.114  16.965  0.00  0.00    +0.000 A 
ATOM     12  C   UNL     1       6.698   5.906  16.247  0.00  0.00    +0.000 A 
ATOM     13  C   UNL     1       5.576   5.033  16.325  0.00  0.00    +0.000 A 
ATOM     14  C   UNL     1       4.437   5.335  17.087  0.00  0.00    +0.000 A 
ATOM     15  C   UNL     1       3.247   4.382  17.249  0.00  0.00    +0.000 C 
ATOM     16  C   UNL     1       3.488   2.868  17.073  0.00  0.00    +0.000 C 
ATOM     17  C   UNL     1       2.388   1.947  17.737  0.00  0.00    +0.000 C 
ATOM     18  C   UNL     1       2.179   2.138  19.327  0.00  0.00    +0.000 C 
ATOM     19  C   UNL     1       3.705   1.736  19.608  0.00  0.00    +0.000 C 
ENDROOT
BRANCH  11  20
ATOM     20  N   UNL     1       7.772   8.019  17.030  0.00  0.00    +0.000 N 
ATOM     21  C   UNL     1       7.926   9.091  17.851  0.00  0.00    +0.000 C 
ATOM     22  O   UNL     1       8.911   9.816  17.804  0.00  0.00    +0.000 OA
ATOM     23  H   UNL     1       8.578   7.881  16.446  0.00  0.00    +0.000 HD
ENDBRANCH  11  20
BRANCH  12  24
ATOM     24  O   UNL     1       7.674   5.350  15.462  0.00  0.00    +0.000 OA
ATOM     25  C   UNL     1       7.384   4.777  14.202  0.00  0.00    +0.000 C 
ENDBRANCH  12  24
TORSDOF 2
ENDMDL
MODEL 3
REMARK VINA RESULT:      -7.4      1.952      4.155
REMARK  Name = 
REMARK  4 active torsions:
REMARK  status: ('A' for Active; 'I' for Inactive)
REMARK    1  A    between atoms: C_11  and  N_12
REMARK    2  A    between atoms: C_15  and  O_16
REMARK    3  A    between atoms: O_16  and  C_17
REMARK    4  A    between atoms: C_23  and  C_24
REMARK                            x       y       z     vdW  Elec       q    Type
REMARK                         _______ _______ _______ _____ _____    ______ ____
ROOT
ATOM      1  C   UNL     1       7.943   5.403  18.740  0.00  0.00    +0.000 C 
ATOM      2  C   UNL     1       6.633   5.264  18.428  0.00  0.00    +0.000 C 
ATOM      3  C   UNL     1       5.921   4.300  19.340  0.00  0.00    +0.000 C 
ATOM      4  C   UNL     1       4.878   3.831  18.412  0.00  0.00    +0.000 C 
ATOM      5  C   UNL     1       4.446   5.152  17.791  0.00  0.00    +0.000 C 
ATOM      6  C   UNL     1       3.545   6.047  18.647  0.00  0.00    +0.000 C 
ATOM      7  C   UNL     1       2.443   5.301  19.417  0.00  0.00    +0.000 C 
ATOM      8  C   UNL     1       1.851   6.240  20.450  0.00  0.00    +0.000 C 
ATOM      9  C   UNL     1       1.655   7.649  19.941  0.00  0.00    +0.000 A 
ATOM     10  C   UNL     1       1.073   8.555  20.839  0.00  0.00    +0.000 A 
ATOM     11  C   UNL     1       0.882   9.905  20.525  0.00  0.00    +0.000 A 
ATOM     12  C   UNL     1       1.221  10.330  19.228  0.00  0.00    +0.000 A 
ATOM     13  C   UNL     1       1.829   9.409  18.328  0.00  0.00    +0.000 A 
ATOM     14  C   UNL     1       2.097   8.078  18.679  0.00  0.00    +0.000 A 
ATOM     15  C   UNL     1       2.819   7.086  17.758  0.00  0.00    +0.000 C 
ATOM     16  C   UNL     1       3.769   7.644  16.678  0.00  0.00    +0.000 C 
ATOM     17  C   UNL     1       4.829   6.603  16.136  0.00  0.00    +0.000 C 
ATOM     18  C   UNL     1       5.813   5.962  17.244  0.00  0.00    +0.000 C 
ATOM     19  C   UNL     1       6.376   7.412  17.630  0.00  0.00    +0.000 C 
ENDROOT
BRANCH  11  20
ATOM     20  N   UNL     1       0.351  10.752  21.530  0.00  0.00    +0.000 N 
ATOM     21  C   UNL     1      -0.440  10.414  22.581  0.00  0.00    +0.000 C 
ATOM     22  O   UNL     1      -0.855  11.242  23.382  0.00  0.00    +0.000 OA
ATOM     23  H   UNL     1       0.583  11.730  21.540  0.00  0.00    +0.000 HD
ENDBRANCH  11  20
BRANCH  12  24
ATOM     24  O   UNL     1       1.105  11.560  18.637  0.00  0.00    +0.000 OA
ATOM     25  C   UNL     1       2.237  12.343  18.310  0.00  0.00    +0.000 C 
ENDBRANCH  12  24
TORSDOF 2
ENDMDL
MODEL 4
REMARK VINA RESULT:      -6.7      4.956      7.035
REMARK  Name = 
REMARK  4 active torsions:
REMARK  status: ('A' for Active; 'I' for Inactive)
REMARK    1  A    between atoms: C_11  and  N_12
REMARK    2  A    between atoms: C_15  and  O_16
REMARK    3  A    between atoms: O_16  and  C_17
REMARK    4  A    between atoms: C_23  and  C_24
REMARK                            x       y       z     vdW  Elec       q    Type
REMARK                         _______ _______ _______ _____ _____    ______ ____
ROOT
ATOM      1  C   UNL     1       2.585   2.339  22.192  0.00  0.00    +0.000 C 
ATOM      2  C   UNL     1       2.211   3.120  21.151  0.00  0.00    +0.000 C 
ATOM      3  C   UNL     1       2.295   4.589  21.473  0.00  0.00    +0.000 C 
ATOM      4  C   UNL     1       1.244   5.084  20.567  0.00  0.00    +0.000 C 
ATOM      5  C   UNL     1       1.573   4.298  19.306  0.00  0.00    +0.000 C 
ATOM      6  C   UNL     1       2.771   4.789  18.487  0.00  0.00    +0.000 C 
ATOM      7  C   UNL     1       2.868   6.316  18.344  0.00  0.00    +0.000 C 
ATOM      8  C   UNL     1       4.241   6.668  17.805  0.00  0.00    +0.000 C 
ATOM      9  C   UNL     1       4.720   5.732  16.719  0.00  0.00    +0.000 A 
ATOM     10  C   UNL     1       5.967   6.030  16.154  0.00  0.00    +0.000 A 
ATOM     11  C   UNL     1       6.561   5.220  15.178  0.00  0.00    +0.000 A 
ATOM     12  C   UNL     1       5.828   4.117  14.708  0.00  0.00    +0.000 A 
ATOM     13  C   UNL     1       4.571   3.810  15.301  0.00  0.00    +0.000 A 
ATOM     14  C   UNL     1       4.019   4.576  16.339  0.00  0.00    +0.000 A 
ATOM     15  C   UNL     1       2.705   4.226  17.047  0.00  0.00    +0.000 C 
ATOM     16  C   UNL     1       2.243   2.753  17.054  0.00  0.00    +0.000 C 
ATOM     17  C   UNL     1       1.204   2.397  18.191  0.00  0.00    +0.000 C 
ATOM     18  C   UNL     1       1.699   2.670  19.704  0.00  0.00    +0.000 C 
ATOM     19  C   UNL     1       2.926   1.655  19.521  0.00  0.00    +0.000 C 
ENDROOT
BRANCH  11  20
ATOM     20  N   UNL     1       7.857   5.571  14.724  0.00  0.00    +0.000 N 
ATOM     21  C   UNL     1       8.264   5.806  13.449  0.00  0.00    +0.000 C 
ATOM     22  O   UNL     1       9.423   6.087  13.172  0.00  0.00    +0.000 OA
ATOM     23  H   UNL     1       8.602   5.713  15.383  0.00  0.00    +0.000 HD
ENDBRANCH  11  20
BRANCH  12  24
ATOM     24  O   UNL     1       6.134   3.192  13.746  0.00  0.00    +0.000 OA
ATOM     25  C   UNL     1       5.696   3.330  12.408  0.00  0.00    +0.000 C 
ENDBRANCH  12  24
TORSDOF 2
ENDMDL
MODEL 5
REMARK VINA RESULT:      -6.4      3.068      7.814
REMARK  Name = 
REMARK  4 active torsions:
REMARK  status: ('A' for Active; 'I' for Inactive)
REMARK    1  A    between atoms: C_11  and  N_12
REMARK    2  A    between atoms: C_15  and  O_16
REMARK    3  A    between atoms: O_16  and  C_17
REMARK    4  A    between atoms: C_23  and  C_24
REMARK                            x       y       z     vdW  Elec       q    Type
REMARK                         _______ _______ _______ _____ _____    ______ ____
ROOT
ATOM      1  C   UNL     1      -4.489  12.248  19.171  0.00  0.00    +0.000 C 
ATOM      2  C   UNL     1      -3.250  12.290  19.713  0.00  0.00    +0.000 C 
ATOM      3  C   UNL     1      -3.272  12.166  21.214  0.00  0.00    +0.000 C 
ATOM      4  C   UNL     1      -2.045  12.919  21.526  0.00  0.00    +0.000 C 
ATOM      5  C   UNL     1      -1.100  12.359  20.472  0.00  0.00    +0.000 C 
ATOM      6  C   UNL     1      -0.533  10.961  20.737  0.00  0.00    +0.000 C 
ATOM      7  C   UNL     1      -0.107  10.706  22.192  0.00  0.00    +0.000 C 
ATOM      8  C   UNL     1       0.123   9.219  22.378  0.00  0.00    +0.000 C 
ATOM      9  C   UNL     1       0.832   8.569  21.212  0.00  0.00    +0.000 A 
ATOM     10  C   UNL     1       1.108   7.201  21.342  0.00  0.00    +0.000 A 
ATOM     11  C   UNL     1       1.710   6.456  20.322  0.00  0.00    +0.000 A 
ATOM     12  C   UNL     1       2.114   7.141  19.163  0.00  0.00    +0.000 A 
ATOM     13  C   UNL     1       1.813   8.526  19.029  0.00  0.00    +0.000 A 
ATOM     14  C   UNL     1       1.132   9.249  20.021  0.00  0.00    +0.000 A 
ATOM     15  C   UNL     1       0.728  10.720  19.872  0.00  0.00    +0.000 C 
ATOM     16  C   UNL     1       0.536  11.290  18.451  0.00  0.00    +0.000 C 
ATOM     17  C   UNL     1      -0.346  12.601  18.384  0.00  0.00    +0.000 C 
ATOM     18  C   UNL     1      -1.844  12.470  18.970  0.00  0.00    +0.000 C 
ATOM     19  C   UNL     1      -2.195  11.324  17.905  0.00  0.00    +0.000 C 
ENDROOT
BRANCH  11  20
ATOM     20  N   UNL     1       1.880   5.064  20.527  0.00  0.00    +0.000 N 
ATOM     21  C   UNL     1       0.992   4.065  20.284  0.00  0.00    +0.000 C 
ATOM     22  O   UNL     1       1.246   2.890  20.520  0.00  0.00    +0.000 OA
ATOM     23  H   UNL     1       2.758   4.707  20.859  0.00  0.00    +0.000 HD
ENDBRANCH  11  20
BRANCH  12  24
ATOM     24  O   UNL     1       2.754   6.688  18.039  0.00  0.00    +0.000 OA
ATOM     25  C   UNL     1       4.039   7.149  17.672  0.00  0.00    +0.000 C 
ENDBRANCH  12  24
TORSDOF 2
ENDMDL
MODEL 6
REMARK VINA RESULT:      -6.2      9.128     10.808
REMARK  Name = 
REMARK  4 active torsions:
REMARK  status: ('A' for Active; 'I' for Inactive)
REMARK    1  A    between atoms: C_11  and  N_12
REMARK    2  A    between atoms: C_15  and  O_16
REMARK    3  A    between atoms: O_16  and  C_17
REMARK    4  A    between atoms: C_23  and  C_24
REMARK                            x       y       z     vdW  Elec       q    Type
REMARK                         _______ _______ _______ _____ _____    ______ ____
ROOT
ATOM      1  C   UNL     1      11.248  13.388  16.328  0.00  0.00    +0.000 C 
ATOM      2  C   UNL     1      11.390  13.703  17.637  0.00  0.00    +0.000 C 
ATOM      3  C   UNL     1      11.531  15.186  17.860  0.00  0.00    +0.000 C 
ATOM      4  C   UNL     1      12.333  15.159  19.095  0.00  0.00    +0.000 C 
ATOM      5  C   UNL     1      11.602  14.076  19.877  0.00  0.00    +0.000 C 
ATOM      6  C   UNL     1      10.275  14.481  20.526  0.00  0.00    +0.000 C 
ATOM      7  C   UNL     1      10.281  15.868  21.189  0.00  0.00    +0.000 C 
ATOM      8  C   UNL     1       8.851  16.266  21.496  0.00  0.00    +0.000 C 
ATOM      9  C   UNL     1       8.010  15.130  22.030  0.00  0.00    +0.000 A 
ATOM     10  C   UNL     1       6.687  15.446  22.369  0.00  0.00    +0.000 A 
ATOM     11  C   UNL     1       5.778  14.484  22.824  0.00  0.00    +0.000 A 
ATOM     12  C   UNL     1       6.252  13.174  23.013  0.00  0.00    +0.000 A 
ATOM     13  C   UNL     1       7.591  12.856  22.648  0.00  0.00    +0.000 A 
ATOM     14  C   UNL     1       8.472  13.806  22.112  0.00  0.00    +0.000 A 
ATOM     15  C   UNL     1       9.893  13.475  21.639  0.00  0.00    +0.000 C 
ATOM     16  C   UNL     1      10.204  12.028  21.202  0.00  0.00    +0.000 C 
ATOM     17  C   UNL     1      11.478  11.882  20.277  0.00  0.00    +0.000 C 
ATOM     18  C   UNL     1      11.444  12.720  18.898  0.00  0.00    +0.000 C 
ATOM     19  C   UNL     1      10.128  11.941  18.420  0.00  0.00    +0.000 C 
ENDROOT
BRANCH  11  20
ATOM     20  N   UNL     1       4.445  14.895  23.072  0.00  0.00    +0.000 N 
ATOM     21  C   UNL     1       3.438  15.065  22.175  0.00  0.00    +0.000 C 
ATOM     22  O   UNL     1       2.322  15.444  22.507  0.00  0.00    +0.000 OA
ATOM     23  H   UNL     1       4.135  15.062  24.013  0.00  0.00    +0.000 HD
ENDBRANCH  11  20
BRANCH  12  24
ATOM     24  O   UNL     1       5.612  12.056  23.479  0.00  0.00    +0.000 OA
ATOM     25  C   UNL     1       6.046  11.374  24.640  0.00  0.00    +0.000 C 
ENDBRANCH  12  24
TORSDOF 2
ENDMDL
MODEL 7
REMARK VINA RESULT:      -6.0      5.929     10.830
REMARK  Name = 
REMARK  4 active torsions:
REMARK  status: ('A' for Active; 'I' for Inactive)
REMARK    1  A    between atoms: C_11  and  N_12
REMARK    2  A    between atoms: C_15  and  O_16
REMARK    3  A    between atoms: O_16  and  C_17
REMARK    4  A    between atoms: C_23  and  C_24
REMARK                            x       y       z     vdW  Elec       q    Type
REMARK                         _______ _______ _______ _____ _____    ______ ____
ROOT
ATOM      1  C   UNL     1      -6.800  17.463  22.776  0.00  0.00    +0.000 C 
ATOM      2  C   UNL     1      -6.607  16.125  22.844  0.00  0.00    +0.000 C 
ATOM      3  C   UNL     1      -7.817  15.345  22.400  0.00  0.00    +0.000 C 
ATOM      4  C   UNL     1      -7.616  14.128  23.206  0.00  0.00    +0.000 C 
ATOM      5  C   UNL     1      -6.125  13.901  22.997  0.00  0.00    +0.000 C 
ATOM      6  C   UNL     1      -5.708  13.303  21.650  0.00  0.00    +0.000 C 
ATOM      7  C   UNL     1      -6.614  12.172  21.140  0.00  0.00    +0.000 C 
ATOM      8  C   UNL     1      -6.286  11.903  19.685  0.00  0.00    +0.000 C 
ATOM      9  C   UNL     1      -4.805  11.936  19.385  0.00  0.00    +0.000 A 
ATOM     10  C   UNL     1      -4.436  11.656  18.062  0.00  0.00    +0.000 A 
ATOM     11  C   UNL     1      -3.106  11.705  17.628  0.00  0.00    +0.000 A 
ATOM     12  C   UNL     1      -2.114  11.970  18.587  0.00  0.00    +0.000 A 
ATOM     13  C   UNL     1      -2.497  12.272  19.924  0.00  0.00    +0.000 A 
ATOM     14  C   UNL     1      -3.838  12.306  20.335  0.00  0.00    +0.000 A 
ATOM     15  C   UNL     1      -4.284  12.703  21.747  0.00  0.00    +0.000 C 
ATOM     16  C   UNL     1      -3.360  13.614  22.582  0.00  0.00    +0.000 C 
ATOM     17  C   UNL     1      -4.082  14.373  23.766  0.00  0.00    +0.000 C 
ATOM     18  C   UNL     1      -5.310  15.330  23.340  0.00  0.00    +0.000 C 
ATOM     19  C   UNL     1      -4.344  16.213  22.415  0.00  0.00    +0.000 C 
ENDROOT
BRANCH  11  20
ATOM     20  N   UNL     1      -2.848  11.475  16.253  0.00  0.00    +0.000 N 
ATOM     21  C   UNL     1      -2.947  10.308  15.564  0.00  0.00    +0.000 C 
ATOM     22  O   UNL     1      -2.679  10.226  14.372  0.00  0.00    +0.000 OA
ATOM     23  H   UNL     1      -2.591  12.239  15.654  0.00  0.00    +0.000 HD
ENDBRANCH  11  20
BRANCH  12  24
ATOM     24  O   UNL     1      -0.751  12.035  18.461  0.00  0.00    +0.000 OA
ATOM     25  C   UNL     1       0.077  10.913  18.694  0.00  0.00    +0.000 C 
ENDBRANCH  12  24
TORSDOF 2
ENDMDL
MODEL 8
REMARK VINA RESULT:      -6.0      3.192      7.567
REMARK  Name = 
REMARK  4 active torsions:
REMARK  status: ('A' for Active; 'I' for Inactive)
REMARK    1  A    between atoms: C_11  and  N_12
REMARK    2  A    between atoms: C_15  and  O_16
REMARK    3  A    between atoms: O_16  and  C_17
REMARK    4  A    between atoms: C_23  and  C_24
REMARK                            x       y       z     vdW  Elec       q    Type
REMARK                         _______ _______ _______ _____ _____    ______ ____
ROOT
ATOM      1  C   UNL     1      -3.578  11.926  18.949  0.00  0.00    +0.000 C 
ATOM      2  C   UNL     1      -2.307  11.863  19.411  0.00  0.00    +0.000 C 
ATOM      3  C   UNL     1      -2.241  11.843  20.916  0.00  0.00    +0.000 C 
ATOM      4  C   UNL     1      -0.921  12.472  21.098  0.00  0.00    +0.000 C 
ATOM      5  C   UNL     1      -0.116  11.739  20.033  0.00  0.00    +0.000 C 
ATOM      6  C   UNL     1       0.312  10.307  20.366  0.00  0.00    +0.000 C 
ATOM      7  C   UNL     1       0.805  10.102  21.808  0.00  0.00    +0.000 C 
ATOM      8  C   UNL     1       0.884   8.615  22.089  0.00  0.00    +0.000 C 
ATOM      9  C   UNL     1       1.438   7.812  20.935  0.00  0.00    +0.000 A 
ATOM     10  C   UNL     1       1.572   6.433  21.149  0.00  0.00    +0.000 A 
ATOM     11  C   UNL     1       2.018   5.558  20.152  0.00  0.00    +0.000 A 
ATOM     12  C   UNL     1       2.415   6.115  18.923  0.00  0.00    +0.000 A 
ATOM     13  C   UNL     1       2.258   7.513  18.706  0.00  0.00    +0.000 A 
ATOM     14  C   UNL     1       1.729   8.372  19.680  0.00  0.00    +0.000 A 
ATOM     15  C   UNL     1       1.478   9.867  19.447  0.00  0.00    +0.000 C 
ATOM     16  C   UNL     1       1.252  10.359  18.002  0.00  0.00    +0.000 C 
ATOM     17  C   UNL     1       0.516  11.753  17.891  0.00  0.00    +0.000 C 
ATOM     18  C   UNL     1      -0.944  11.832  18.574  0.00  0.00    +0.000 C 
ATOM     19  C   UNL     1      -1.489  10.665  17.620  0.00  0.00    +0.000 C 
ENDROOT
BRANCH  11  20
ATOM     20  N   UNL     1       2.049   4.173  20.449  0.00  0.00    +0.000 N 
ATOM     21  C   UNL     1       2.189   3.578  21.662  0.00  0.00    +0.000 C 
ATOM     22  O   UNL     1       2.220   2.361  21.796  0.00  0.00    +0.000 OA
ATOM     23  H   UNL     1       1.921   3.497  19.717  0.00  0.00    +0.000 HD
ENDBRANCH  11  20
BRANCH  12  24
ATOM     24  O   UNL     1       2.924   5.517  17.800  0.00  0.00    +0.000 OA
ATOM     25  C   UNL     1       4.283   5.139  17.704  0.00  0.00    +0.000 C 
ENDBRANCH  12  24
TORSDOF 2
ENDMDL
MODEL 9
REMARK VINA RESULT:      -5.9      8.109     10.074
REMARK  Name = 
REMARK  4 active torsions:
REMARK  status: ('A' for Active; 'I' for Inactive)
REMARK    1  A    between atoms: C_11  and  N_12
REMARK    2  A    between atoms: C_15  and  O_16
REMARK    3  A    between atoms: O_16  and  C_17
REMARK    4  A    between atoms: C_23  and  C_24
REMARK                            x       y       z     vdW  Elec       q    Type
REMARK                         _______ _______ _______ _____ _____    ______ ____
ROOT
ATOM      1  C   UNL     1      11.567  11.523  18.237  0.00  0.00    +0.000 C 
ATOM      2  C   UNL     1      11.055  12.758  18.451  0.00  0.00    +0.000 C 
ATOM      3  C   UNL     1      10.518  13.385  17.191  0.00  0.00    +0.000 C 
ATOM      4  C   UNL     1      10.719  14.803  17.535  0.00  0.00    +0.000 C 
ATOM      5  C   UNL     1      10.216  14.814  18.972  0.00  0.00    +0.000 C 
ATOM      6  C   UNL     1       8.697  14.789  19.164  0.00  0.00    +0.000 C 
ATOM      7  C   UNL     1       7.913  15.689  18.196  0.00  0.00    +0.000 C 
ATOM      8  C   UNL     1       6.442  15.327  18.279  0.00  0.00    +0.000 C 
ATOM      9  C   UNL     1       5.965  15.064  19.688  0.00  0.00    +0.000 A 
ATOM     10  C   UNL     1       4.604  14.763  19.833  0.00  0.00    +0.000 A 
ATOM     11  C   UNL     1       4.034  14.444  21.071  0.00  0.00    +0.000 A 
ATOM     12  C   UNL     1       4.858  14.509  22.208  0.00  0.00    +0.000 A 
ATOM     13  C   UNL     1       6.244  14.797  22.050  0.00  0.00    +0.000 A 
ATOM     14  C   UNL     1       6.827  15.032  20.796  0.00  0.00    +0.000 A 
ATOM     15  C   UNL     1       8.328  15.268  20.589  0.00  0.00    +0.000 C 
ATOM     16  C   UNL     1       9.313  14.698  21.632  0.00  0.00    +0.000 C 
ATOM     17  C   UNL     1      10.797  14.534  21.111  0.00  0.00    +0.000 C 
ATOM     18  C   UNL     1      10.985  13.583  19.819  0.00  0.00    +0.000 C 
ATOM     19  C   UNL     1      10.367  12.333  20.609  0.00  0.00    +0.000 C 
ENDROOT
BRANCH  11  20
ATOM     20  N   UNL     1       2.663  14.085  21.098  0.00  0.00    +0.000 N 
ATOM     21  C   UNL     1       2.034  13.120  20.377  0.00  0.00    +0.000 C 
ATOM     22  O   UNL     1       0.831  12.910  20.473  0.00  0.00    +0.000 OA
ATOM     23  H   UNL     1       2.034  14.542  21.734  0.00  0.00    +0.000 HD
ENDBRANCH  11  20
BRANCH  12  24
ATOM     24  O   UNL     1       4.569  14.295  23.529  0.00  0.00    +0.000 OA
ATOM     25  C   UNL     1       5.581  14.070  24.491  0.00  0.00    +0.000 C 
ENDBRANCH  12  24
TORSDOF 2
ENDMDL
