MODEL 1
REMARK VINA RESULT:      -7.5      0.000      0.000
REMARK  Name = 
REMARK  10 active torsions:
REMARK  status: ('A' for Active; 'I' for Inactive)
REMARK    1  A    between atoms: C_2  and  C_3
REMARK    2  A    between atoms: C_5  and  C_6
REMARK    3  A    between atoms: N_8  and  C_9
REMARK    4  A    between atoms: C_9  and  C_10
REMARK    5  A    between atoms: C_10  and  C_11
REMARK    6  A    between atoms: C_11  and  C_13
REMARK    7  A    between atoms: C_13  and  O_15
REMARK    8  A    between atoms: C_16  and  O_17
REMARK    9  A    between atoms: C_21  and  O_22
REMARK   10  A    between atoms: O_22  and  C_23
REMARK                            x       y       z     vdW  Elec       q    Type
REMARK                         _______ _______ _______ _____ _____    ______ ____
ROOT
ATOM      1  C   UNL     1       0.206  10.308  21.537  0.00  0.00    +0.000 A 
ATOM      2  N   UNL     1      -0.477  11.491  21.469  0.00  0.00    +0.000 NA
ATOM      3  C   UNL     1      -0.627  12.026  20.228  0.00  0.00    +0.000 A 
ATOM      4  C   UNL     1      -0.141  11.434  19.063  0.00  0.00    +0.000 A 
ATOM      5  C   UNL     1       0.558  10.223  19.156  0.00  0.00    +0.000 A 
ATOM      6  C   UNL     1       1.054   9.592  18.006  0.00  0.00    +0.000 A 
ATOM      7  C   UNL     1       1.766   8.401  18.083  0.00  0.00    +0.000 A 
ATOM      8  C   UNL     1       2.060   7.846  19.325  0.00  0.00    +0.000 A 
ATOM      9  C   UNL     1       1.519   8.419  20.481  0.00  0.00    +0.000 A 
ATOM     10  C   UNL     1       0.763   9.626  20.426  0.00  0.00    +0.000 A 
ENDROOT
BRANCH   3  11
ATOM     11  C   UNL     1      -1.340  13.339  20.130  0.00  0.00    +0.000 C 
ATOM     12  O   UNL     1      -0.900  14.224  19.396  0.00  0.00    +0.000 OA
ATOM     13  N   UNL     1      -2.475  13.497  20.894  0.00  0.00    +0.000 N 
ATOM     14  H   UNL     1      -2.784  12.708  21.458  0.00  0.00    +0.000 HD
BRANCH  13  15
ATOM     15  C   UNL     1      -3.205  14.752  20.901  0.00  0.00    +0.000 C 
BRANCH  15  16
ATOM     16  C   UNL     1      -4.136  14.861  22.099  0.00  0.00    +0.000 C 
BRANCH  16  17
ATOM     17  C   UNL     1      -3.786  13.843  23.150  0.00  0.00    +0.000 C 
ATOM     18  O   UNL     1      -2.765  13.820  23.830  0.00  0.00    +0.000 OA
BRANCH  17  19
ATOM     19  C   UNL     1      -4.801  12.727  23.380  0.00  0.00    +0.000 C 
ATOM     20  O   UNL     1      -5.676  12.447  22.586  0.00  0.00    +0.000 OA
BRANCH  19  21
ATOM     21  O   UNL     1      -4.573  12.114  24.558  0.00  0.00    +0.000 OA
ATOM     22  H   UNL     1      -5.156  11.322  24.631  0.00  0.00    +0.000 HD
ENDBRANCH  19  21
ENDBRANCH  17  19
ENDBRANCH  16  17
ENDBRANCH  15  16
ENDBRANCH  13  15
ENDBRANCH   3  11
BRANCH   1  24
ATOM     23  N   UNL     1       0.430   9.378  23.965  0.00  0.00    +0.000 NA
ATOM     24  C   UNL     1       0.336   9.783  22.878  0.00  0.00    +0.000 C 
ENDBRANCH   1  24
BRANCH   4  25
ATOM     25  O   UNL     1      -0.298  11.993  17.815  0.00  0.00    +0.000 OA
ATOM     26  H   UNL     1      -1.171  12.448  17.773  0.00  0.00    +0.000 HD
ENDBRANCH   4  25
BRANCH   8  27
ATOM     27  O   UNL     1       2.860   6.732  19.488  0.00  0.00    +0.000 OA
BRANCH  27  28
ATOM     28  C   UNL     1       2.271   5.484  19.424  0.00  0.00    +0.000 A 
ATOM     29  C   UNL     1       2.089   4.776  18.230  0.00  0.00    +0.000 A 
ATOM     30  C   UNL     1       1.375   3.578  18.225  0.00  0.00    +0.000 A 
ATOM     31  C   UNL     1       0.912   3.041  19.423  0.00  0.00    +0.000 A 
ATOM     32  C   UNL     1       1.178   3.693  20.628  0.00  0.00    +0.000 A 
ATOM     33  C   UNL     1       1.855   4.916  20.630  0.00  0.00    +0.000 A 
ENDBRANCH  27  28
ENDBRANCH   8  27
TORSDOF 10
ENDMDL
MODEL 2
REMARK VINA RESULT:      -7.4      0.788      1.053
REMARK  Name = 
REMARK  10 active torsions:
REMARK  status: ('A' for Active; 'I' for Inactive)
REMARK    1  A    between atoms: C_2  and  C_3
REMARK    2  A    between atoms: C_5  and  C_6
REMARK    3  A    between atoms: N_8  and  C_9
REMARK    4  A    between atoms: C_9  and  C_10
REMARK    5  A    between atoms: C_10  and  C_11
REMARK    6  A    between atoms: C_11  and  C_13
REMARK    7  A    between atoms: C_13  and  O_15
REMARK    8  A    between atoms: C_16  and  O_17
REMARK    9  A    between atoms: C_21  and  O_22
REMARK   10  A    between atoms: O_22  and  C_23
REMARK                            x       y       z     vdW  Elec       q    Type
REMARK                         _______ _______ _______ _____ _____    ______ ____
ROOT
ATOM      1  C   UNL     1       0.102  10.311  21.553  0.00  0.00    +0.000 A 
ATOM      2  N   UNL     1      -0.624  11.469  21.501  0.00  0.00    +0.000 NA
ATOM      3  C   UNL     1      -0.819  11.999  20.264  0.00  0.00    +0.000 A 
ATOM      4  C   UNL     1      -0.336  11.425  19.089  0.00  0.00    +0.000 A 
ATOM      5  C   UNL     1       0.408  10.240  19.165  0.00  0.00    +0.000 A 
ATOM      6  C   UNL     1       0.902   9.628  18.004  0.00  0.00    +0.000 A 
ATOM      7  C   UNL     1       1.657   8.464  18.064  0.00  0.00    +0.000 A 
ATOM      8  C   UNL     1       1.997   7.918  19.299  0.00  0.00    +0.000 A 
ATOM      9  C   UNL     1       1.459   8.471  20.468  0.00  0.00    +0.000 A 
ATOM     10  C   UNL     1       0.660   9.650  20.430  0.00  0.00    +0.000 A 
ENDROOT
BRANCH   3  11
ATOM     11  C   UNL     1      -1.580  13.286  20.183  0.00  0.00    +0.000 C 
ATOM     12  O   UNL     1      -1.082  14.260  19.619  0.00  0.00    +0.000 OA
ATOM     13  N   UNL     1      -2.827  13.317  20.768  0.00  0.00    +0.000 N 
ATOM     14  H   UNL     1      -3.174  12.462  21.195  0.00  0.00    +0.000 HD
BRANCH  13  15
ATOM     15  C   UNL     1      -3.618  14.534  20.782  0.00  0.00    +0.000 C 
BRANCH  15  16
ATOM     16  C   UNL     1      -4.675  14.512  21.875  0.00  0.00    +0.000 C 
BRANCH  16  17
ATOM     17  C   UNL     1      -5.083  13.102  22.204  0.00  0.00    +0.000 C 
ATOM     18  O   UNL     1      -4.490  12.327  22.948  0.00  0.00    +0.000 OA
BRANCH  17  19
ATOM     19  C   UNL     1      -6.355  12.589  21.536  0.00  0.00    +0.000 C 
ATOM     20  O   UNL     1      -6.647  12.832  20.382  0.00  0.00    +0.000 OA
BRANCH  19  21
ATOM     21  O   UNL     1      -7.072  11.838  22.394  0.00  0.00    +0.000 OA
ATOM     22  H   UNL     1      -7.399  12.407  23.129  0.00  0.00    +0.000 HD
ENDBRANCH  19  21
ENDBRANCH  17  19
ENDBRANCH  16  17
ENDBRANCH  15  16
ENDBRANCH  13  15
ENDBRANCH   3  11
BRANCH   1  24
ATOM     23  N   UNL     1       0.413   9.351  23.960  0.00  0.00    +0.000 NA
ATOM     24  C   UNL     1       0.278   9.790  22.891  0.00  0.00    +0.000 C 
ENDBRANCH   1  24
BRANCH   4  25
ATOM     25  O   UNL     1      -0.538  11.979  17.845  0.00  0.00    +0.000 OA
ATOM     26  H   UNL     1       0.334  12.202  17.444  0.00  0.00    +0.000 HD
ENDBRANCH   4  25
BRANCH   8  27
ATOM     27  O   UNL     1       2.839   6.834  19.444  0.00  0.00    +0.000 OA
BRANCH  27  28
ATOM     28  C   UNL     1       2.293   5.565  19.398  0.00  0.00    +0.000 A 
ATOM     29  C   UNL     1       2.107   4.847  18.210  0.00  0.00    +0.000 A 
ATOM     30  C   UNL     1       1.436   3.625  18.226  0.00  0.00    +0.000 A 
ATOM     31  C   UNL     1       1.021   3.077  19.437  0.00  0.00    +0.000 A 
ATOM     32  C   UNL     1       1.293   3.742  20.633  0.00  0.00    +0.000 A 
ATOM     33  C   UNL     1       1.927   4.988  20.615  0.00  0.00    +0.000 A 
ENDBRANCH  27  28
ENDBRANCH   8  27
TORSDOF 10
ENDMDL
MODEL 3
REMARK VINA RESULT:      -7.4      1.242      1.891
REMARK  Name = 
REMARK  10 active torsions:
REMARK  status: ('A' for Active; 'I' for Inactive)
REMARK    1  A    between atoms: C_2  and  C_3
REMARK    2  A    between atoms: C_5  and  C_6
REMARK    3  A    between atoms: N_8  and  C_9
REMARK    4  A    between atoms: C_9  and  C_10
REMARK    5  A    between atoms: C_10  and  C_11
REMARK    6  A    between atoms: C_11  and  C_13
REMARK    7  A    between atoms: C_13  and  O_15
REMARK    8  A    between atoms: C_16  and  O_17
REMARK    9  A    between atoms: C_21  and  O_22
REMARK   10  A    between atoms: O_22  and  C_23
REMARK                            x       y       z     vdW  Elec       q    Type
REMARK                         _______ _______ _______ _____ _____    ______ ____
ROOT
ATOM      1  C   UNL     1       0.204  10.354  21.535  0.00  0.00    +0.000 A 
ATOM      2  N   UNL     1      -0.460  11.549  21.487  0.00  0.00    +0.000 NA
ATOM      3  C   UNL     1      -0.603  12.107  20.256  0.00  0.00    +0.000 A 
ATOM      4  C   UNL     1      -0.127  11.527  19.080  0.00  0.00    +0.000 A 
ATOM      5  C   UNL     1       0.552  10.304  19.152  0.00  0.00    +0.000 A 
ATOM      6  C   UNL     1       1.036   9.685  17.990  0.00  0.00    +0.000 A 
ATOM      7  C   UNL     1       1.729   8.482  18.046  0.00  0.00    +0.000 A 
ATOM      8  C   UNL     1       2.015   7.901  19.278  0.00  0.00    +0.000 A 
ATOM      9  C   UNL     1       1.485   8.463  20.445  0.00  0.00    +0.000 A 
ATOM     10  C   UNL     1       0.749   9.682  20.411  0.00  0.00    +0.000 A 
ENDROOT
BRANCH   3  11
ATOM     11  C   UNL     1      -1.295  13.433  20.181  0.00  0.00    +0.000 C 
ATOM     12  O   UNL     1      -0.807  14.344  19.513  0.00  0.00    +0.000 OA
ATOM     13  N   UNL     1      -2.467  13.572  20.891  0.00  0.00    +0.000 N 
ATOM     14  H   UNL     1      -2.814  12.763  21.401  0.00  0.00    +0.000 HD
BRANCH  13  15
ATOM     15  C   UNL     1      -3.182  14.835  20.918  0.00  0.00    +0.000 C 
BRANCH  15  16
ATOM     16  C   UNL     1      -4.610  14.670  21.417  0.00  0.00    +0.000 C 
BRANCH  16  17
ATOM     17  C   UNL     1      -5.175  13.339  21.004  0.00  0.00    +0.000 C 
ATOM     18  O   UNL     1      -5.271  12.338  21.708  0.00  0.00    +0.000 OA
BRANCH  17  19
ATOM     19  C   UNL     1      -5.668  13.227  19.564  0.00  0.00    +0.000 C 
ATOM     20  O   UNL     1      -6.754  13.628  19.198  0.00  0.00    +0.000 OA
BRANCH  19  21
ATOM     21  O   UNL     1      -4.734  12.646  18.787  0.00  0.00    +0.000 OA
ATOM     22  H   UNL     1      -4.308  13.332  18.221  0.00  0.00    +0.000 HD
ENDBRANCH  19  21
ENDBRANCH  17  19
ENDBRANCH  16  17
ENDBRANCH  15  16
ENDBRANCH  13  15
ENDBRANCH   3  11
BRANCH   1  24
ATOM     23  N   UNL     1       0.414   9.378  23.945  0.00  0.00    +0.000 NA
ATOM     24  C   UNL     1       0.327   9.804  22.866  0.00  0.00    +0.000 C 
ENDBRANCH   1  24
BRANCH   4  25
ATOM     25  O   UNL     1      -0.277  12.110  17.843  0.00  0.00    +0.000 OA
ATOM     26  H   UNL     1      -0.851  12.907  17.928  0.00  0.00    +0.000 HD
ENDBRANCH   4  25
BRANCH   8  27
ATOM     27  O   UNL     1       2.797   6.772  19.421  0.00  0.00    +0.000 OA
BRANCH  27  28
ATOM     28  C   UNL     1       2.179   5.536  19.404  0.00  0.00    +0.000 A 
ATOM     29  C   UNL     1       1.623   4.935  20.539  0.00  0.00    +0.000 A 
ATOM     30  C   UNL     1       1.127   3.633  20.473  0.00  0.00    +0.000 A 
ATOM     31  C   UNL     1       1.109   2.958  19.256  0.00  0.00    +0.000 A 
ATOM     32  C   UNL     1       1.571   3.591  18.101  0.00  0.00    +0.000 A 
ATOM     33  C   UNL     1       2.109   4.879  18.174  0.00  0.00    +0.000 A 
ENDBRANCH  27  28
ENDBRANCH   8  27
TORSDOF 10
ENDMDL
MODEL 4
REMARK VINA RESULT:      -7.4      1.317      1.739
REMARK  Name = 
REMARK  10 active torsions:
REMARK  status: ('A' for Active; 'I' for Inactive)
REMARK    1  A    between atoms: C_2  and  C_3
REMARK    2  A    between atoms: C_5  and  C_6
REMARK    3  A    between atoms: N_8  and  C_9
REMARK    4  A    between atoms: C_9  and  C_10
REMARK    5  A    between atoms: C_10  and  C_11
REMARK    6  A    between atoms: C_11  and  C_13
REMARK    7  A    between atoms: C_13  and  O_15
REMARK    8  A    between atoms: C_16  and  O_17
REMARK    9  A    between atoms: C_21  and  O_22
REMARK   10  A    between atoms: O_22  and  C_23
REMARK                            x       y       z     vdW  Elec       q    Type
REMARK                         _______ _______ _______ _____ _____    ______ ____
ROOT
ATOM      1  C   UNL     1       0.020  10.366  21.559  0.00  0.00    +0.000 A 
ATOM      2  N   UNL     1      -0.720  11.516  21.516  0.00  0.00    +0.000 NA
ATOM      3  C   UNL     1      -0.926  12.050  20.283  0.00  0.00    +0.000 A 
ATOM      4  C   UNL     1      -0.441  11.488  19.102  0.00  0.00    +0.000 A 
ATOM      5  C   UNL     1       0.316  10.311  19.170  0.00  0.00    +0.000 A 
ATOM      6  C   UNL     1       0.813   9.711  18.003  0.00  0.00    +0.000 A 
ATOM      7  C   UNL     1       1.581   8.555  18.054  0.00  0.00    +0.000 A 
ATOM      8  C   UNL     1       1.932   8.007  19.285  0.00  0.00    +0.000 A 
ATOM      9  C   UNL     1       1.393   8.547  20.458  0.00  0.00    +0.000 A 
ATOM     10  C   UNL     1       0.581   9.717  20.430  0.00  0.00    +0.000 A 
ENDROOT
BRANCH   3  11
ATOM     11  C   UNL     1      -1.702  13.329  20.211  0.00  0.00    +0.000 C 
ATOM     12  O   UNL     1      -1.189  14.332  19.717  0.00  0.00    +0.000 OA
ATOM     13  N   UNL     1      -2.980  13.318  20.726  0.00  0.00    +0.000 N 
ATOM     14  H   UNL     1      -3.336  12.441  21.098  0.00  0.00    +0.000 HD
BRANCH  13  15
ATOM     15  C   UNL     1      -3.789  14.522  20.745  0.00  0.00    +0.000 C 
BRANCH  15  16
ATOM     16  C   UNL     1      -5.252  14.229  20.449  0.00  0.00    +0.000 C 
BRANCH  16  17
ATOM     17  C   UNL     1      -5.423  12.839  19.901  0.00  0.00    +0.000 C 
ATOM     18  O   UNL     1      -4.958  12.408  18.850  0.00  0.00    +0.000 OA
BRANCH  17  19
ATOM     19  C   UNL     1      -6.266  11.878  20.735  0.00  0.00    +0.000 C 
ATOM     20  O   UNL     1      -6.457  12.020  21.926  0.00  0.00    +0.000 OA
BRANCH  19  21
ATOM     21  O   UNL     1      -6.760  10.890  19.965  0.00  0.00    +0.000 OA
ATOM     22  H   UNL     1      -6.057  10.217  19.807  0.00  0.00    +0.000 HD
ENDBRANCH  19  21
ENDBRANCH  17  19
ENDBRANCH  16  17
ENDBRANCH  15  16
ENDBRANCH  13  15
ENDBRANCH   3  11
BRANCH   1  24
ATOM     23  N   UNL     1       0.371   9.401  23.958  0.00  0.00    +0.000 NA
ATOM     24  C   UNL     1       0.208   9.840  22.893  0.00  0.00    +0.000 C 
ENDBRANCH   1  24
BRANCH   4  25
ATOM     25  O   UNL     1      -0.655  12.047  17.863  0.00  0.00    +0.000 OA
ATOM     26  H   UNL     1      -1.463  11.647  17.464  0.00  0.00    +0.000 HD
ENDBRANCH   4  25
BRANCH   8  27
ATOM     27  O   UNL     1       2.787   6.931  19.420  0.00  0.00    +0.000 OA
BRANCH  27  28
ATOM     28  C   UNL     1       2.256   5.657  19.369  0.00  0.00    +0.000 A 
ATOM     29  C   UNL     1       2.141   4.914  18.188  0.00  0.00    +0.000 A 
ATOM     30  C   UNL     1       1.480   3.686  18.192  0.00  0.00    +0.000 A 
ATOM     31  C   UNL     1       1.005   3.157  19.389  0.00  0.00    +0.000 A 
ATOM     32  C   UNL     1       1.205   3.849  20.585  0.00  0.00    +0.000 A 
ATOM     33  C   UNL     1       1.828   5.100  20.576  0.00  0.00    +0.000 A 
ENDBRANCH  27  28
ENDBRANCH   8  27
TORSDOF 10
ENDMDL
MODEL 5
REMARK VINA RESULT:      -7.3      0.681      1.320
REMARK  Name = 
REMARK  10 active torsions:
REMARK  status: ('A' for Active; 'I' for Inactive)
REMARK    1  A    between atoms: C_2  and  C_3
REMARK    2  A    between atoms: C_5  and  C_6
REMARK    3  A    between atoms: N_8  and  C_9
REMARK    4  A    between atoms: C_9  and  C_10
REMARK    5  A    between atoms: C_10  and  C_11
REMARK    6  A    between atoms: C_11  and  C_13
REMARK    7  A    between atoms: C_13  and  O_15
REMARK    8  A    between atoms: C_16  and  O_17
REMARK    9  A    between atoms: C_21  and  O_22
REMARK   10  A    between atoms: O_22  and  C_23
REMARK                            x       y       z     vdW  Elec       q    Type
REMARK                         _______ _______ _______ _____ _____    ______ ____
ROOT
ATOM      1  C   UNL     1       0.145  10.345  21.538  0.00  0.00    +0.000 A 
ATOM      2  N   UNL     1      -0.546  11.525  21.488  0.00  0.00    +0.000 NA
ATOM      3  C   UNL     1      -0.711  12.072  20.254  0.00  0.00    +0.000 A 
ATOM      4  C   UNL     1      -0.233  11.494  19.079  0.00  0.00    +0.000 A 
ATOM      5  C   UNL     1       0.474  10.287  19.152  0.00  0.00    +0.000 A 
ATOM      6  C   UNL     1       0.963   9.671  17.991  0.00  0.00    +0.000 A 
ATOM      7  C   UNL     1       1.682   8.484  18.049  0.00  0.00    +0.000 A 
ATOM      8  C   UNL     1       1.992   7.917  19.282  0.00  0.00    +0.000 A 
ATOM      9  C   UNL     1       1.459   8.475  20.450  0.00  0.00    +0.000 A 
ATOM     10  C   UNL     1       0.695   9.678  20.414  0.00  0.00    +0.000 A 
ENDROOT
BRANCH   3  11
ATOM     11  C   UNL     1      -1.433  13.381  20.177  0.00  0.00    +0.000 C 
ATOM     12  O   UNL     1      -1.010  14.274  19.443  0.00  0.00    +0.000 OA
ATOM     13  N   UNL     1      -2.557  13.527  20.960  0.00  0.00    +0.000 N 
ATOM     14  H   UNL     1      -2.852  12.733  21.523  0.00  0.00    +0.000 HD
BRANCH  13  15
ATOM     15  C   UNL     1      -3.293  14.778  20.988  0.00  0.00    +0.000 C 
BRANCH  15  16
ATOM     16  C   UNL     1      -4.798  14.552  20.994  0.00  0.00    +0.000 C 
BRANCH  16  17
ATOM     17  C   UNL     1      -5.156  13.327  21.790  0.00  0.00    +0.000 C 
ATOM     18  O   UNL     1      -5.408  12.213  21.339  0.00  0.00    +0.000 OA
BRANCH  17  19
ATOM     19  C   UNL     1      -5.220  13.495  23.305  0.00  0.00    +0.000 C 
ATOM     20  O   UNL     1      -5.644  14.495  23.848  0.00  0.00    +0.000 OA
BRANCH  19  21
ATOM     21  O   UNL     1      -4.760  12.391  23.924  0.00  0.00    +0.000 OA
ATOM     22  H   UNL     1      -4.144  12.655  24.648  0.00  0.00    +0.000 HD
ENDBRANCH  19  21
ENDBRANCH  17  19
ENDBRANCH  16  17
ENDBRANCH  15  16
ENDBRANCH  13  15
ENDBRANCH   3  11
BRANCH   1  24
ATOM     23  N   UNL     1       0.399   9.356  23.939  0.00  0.00    +0.000 NA
ATOM     24  C   UNL     1       0.291   9.807  22.872  0.00  0.00    +0.000 C 
ENDBRANCH   1  24
BRANCH   4  25
ATOM     25  O   UNL     1      -0.405  12.065  17.839  0.00  0.00    +0.000 OA
ATOM     26  H   UNL     1       0.477  12.221  17.429  0.00  0.00    +0.000 HD
ENDBRANCH   4  25
BRANCH   8  27
ATOM     27  O   UNL     1       2.800   6.807  19.425  0.00  0.00    +0.000 OA
BRANCH  27  28
ATOM     28  C   UNL     1       2.208   5.559  19.432  0.00  0.00    +0.000 A 
ATOM     29  C   UNL     1       1.711   4.945  20.588  0.00  0.00    +0.000 A 
ATOM     30  C   UNL     1       1.241   3.632  20.540  0.00  0.00    +0.000 A 
ATOM     31  C   UNL     1       1.188   2.958  19.323  0.00  0.00    +0.000 A 
ATOM     32  C   UNL     1       1.590   3.601  18.152  0.00  0.00    +0.000 A 
ATOM     33  C   UNL     1       2.102   4.901  18.205  0.00  0.00    +0.000 A 
ENDBRANCH  27  28
ENDBRANCH   8  27
TORSDOF 10
ENDMDL
MODEL 6
REMARK VINA RESULT:      -7.3      4.103      6.469
REMARK  Name = 
REMARK  10 active torsions:
REMARK  status: ('A' for Active; 'I' for Inactive)
REMARK    1  A    between atoms: C_2  and  C_3
REMARK    2  A    between atoms: C_5  and  C_6
REMARK    3  A    between atoms: N_8  and  C_9
REMARK    4  A    between atoms: C_9  and  C_10
REMARK    5  A    between atoms: C_10  and  C_11
REMARK    6  A    between atoms: C_11  and  C_13
REMARK    7  A    between atoms: C_13  and  O_15
REMARK    8  A    between atoms: C_16  and  O_17
REMARK    9  A    between atoms: C_21  and  O_22
REMARK   10  A    between atoms: O_22  and  C_23
REMARK                            x       y       z     vdW  Elec       q    Type
REMARK                         _______ _______ _______ _____ _____    ______ ____
ROOT
ATOM      1  C   UNL     1       2.906   5.287  19.536  0.00  0.00    +0.000 A 
ATOM      2  N   UNL     1       2.140   6.208  20.195  0.00  0.00    +0.000 NA
ATOM      3  C   UNL     1       2.099   7.454  19.651  0.00  0.00    +0.000 A 
ATOM      4  C   UNL     1       2.772   7.814  18.485  0.00  0.00    +0.000 A 
ATOM      5  C   UNL     1       3.553   6.855  17.826  0.00  0.00    +0.000 A 
ATOM      6  C   UNL     1       4.237   7.177  16.644  0.00  0.00    +0.000 A 
ATOM      7  C   UNL     1       5.030   6.244  15.989  0.00  0.00    +0.000 A 
ATOM      8  C   UNL     1       5.215   4.979  16.541  0.00  0.00    +0.000 A 
ATOM      9  C   UNL     1       4.491   4.612  17.681  0.00  0.00    +0.000 A 
ATOM     10  C   UNL     1       3.650   5.543  18.356  0.00  0.00    +0.000 A 
ENDROOT
BRANCH   3  11
ATOM     11  C   UNL     1       1.296   8.491  20.374  0.00  0.00    +0.000 C 
ATOM     12  O   UNL     1       1.351   8.565  21.602  0.00  0.00    +0.000 OA
ATOM     13  N   UNL     1       0.509   9.323  19.610  0.00  0.00    +0.000 N 
ATOM     14  H   UNL     1       0.537   9.209  18.599  0.00  0.00    +0.000 HD
BRANCH  13  15
ATOM     15  C   UNL     1      -0.340  10.325  20.226  0.00  0.00    +0.000 C 
BRANCH  15  16
ATOM     16  C   UNL     1       0.351  11.677  20.318  0.00  0.00    +0.000 C 
BRANCH  16  17
ATOM     17  C   UNL     1       0.729  12.184  18.953  0.00  0.00    +0.000 C 
ATOM     18  O   UNL     1       1.680  11.808  18.274  0.00  0.00    +0.000 OA
BRANCH  17  19
ATOM     19  C   UNL     1      -0.156  13.278  18.364  0.00  0.00    +0.000 C 
ATOM     20  O   UNL     1      -0.043  14.453  18.650  0.00  0.00    +0.000 OA
BRANCH  19  21
ATOM     21  O   UNL     1      -1.044  12.755  17.497  0.00  0.00    +0.000 OA
ATOM     22  H   UNL     1      -1.898  13.242  17.572  0.00  0.00    +0.000 HD
ENDBRANCH  19  21
ENDBRANCH  17  19
ENDBRANCH  16  17
ENDBRANCH  15  16
ENDBRANCH  13  15
ENDBRANCH   3  11
BRANCH   1  24
ATOM     23  N   UNL     1       2.899   2.928  20.651  0.00  0.00    +0.000 NA
ATOM     24  C   UNL     1       2.914   3.980  20.155  0.00  0.00    +0.000 C 
ENDBRANCH   1  24
BRANCH   4  25
ATOM     25  O   UNL     1       2.723   9.082  17.951  0.00  0.00    +0.000 OA
ATOM     26  H   UNL     1       3.332   9.131  17.178  0.00  0.00    +0.000 HD
ENDBRANCH   4  25
BRANCH   8  27
ATOM     27  O   UNL     1       6.079   4.040  16.013  0.00  0.00    +0.000 OA
BRANCH  27  28
ATOM     28  C   UNL     1       6.503   4.195  14.707  0.00  0.00    +0.000 A 
ATOM     29  C   UNL     1       7.556   5.037  14.332  0.00  0.00    +0.000 A 
ATOM     30  C   UNL     1       7.847   5.241  12.983  0.00  0.00    +0.000 A 
ATOM     31  C   UNL     1       7.141   4.541  12.008  0.00  0.00    +0.000 A 
ATOM     32  C   UNL     1       6.157   3.625  12.382  0.00  0.00    +0.000 A 
ATOM     33  C   UNL     1       5.835   3.453  13.731  0.00  0.00    +0.000 A 
ENDBRANCH  27  28
ENDBRANCH   8  27
TORSDOF 10
ENDMDL
MODEL 7
REMARK VINA RESULT:      -7.3      1.024      1.217
REMARK  Name = 
REMARK  10 active torsions:
REMARK  status: ('A' for Active; 'I' for Inactive)
REMARK    1  A    between atoms: C_2  and  C_3
REMARK    2  A    between atoms: C_5  and  C_6
REMARK    3  A    between atoms: N_8  and  C_9
REMARK    4  A    between atoms: C_9  and  C_10
REMARK    5  A    between atoms: C_10  and  C_11
REMARK    6  A    between atoms: C_11  and  C_13
REMARK    7  A    between atoms: C_13  and  O_15
REMARK    8  A    between atoms: C_16  and  O_17
REMARK    9  A    between atoms: C_21  and  O_22
REMARK   10  A    between atoms: O_22  and  C_23
REMARK                            x       y       z     vdW  Elec       q    Type
REMARK                         _______ _______ _______ _____ _____    ______ ____
ROOT
ATOM      1  C   UNL     1      -0.114  10.361  21.546  0.00  0.00    +0.000 A 
ATOM      2  N   UNL     1      -0.926  11.462  21.530  0.00  0.00    +0.000 NA
ATOM      3  C   UNL     1      -1.211  11.980  20.306  0.00  0.00    +0.000 A 
ATOM      4  C   UNL     1      -0.736  11.447  19.108  0.00  0.00    +0.000 A 
ATOM      5  C   UNL     1       0.095  10.320  19.146  0.00  0.00    +0.000 A 
ATOM      6  C   UNL     1       0.584   9.750  17.962  0.00  0.00    +0.000 A 
ATOM      7  C   UNL     1       1.426   8.645  17.984  0.00  0.00    +0.000 A 
ATOM      8  C   UNL     1       1.856   8.122  19.201  0.00  0.00    +0.000 A 
ATOM      9  C   UNL     1       1.329   8.630  20.393  0.00  0.00    +0.000 A 
ATOM     10  C   UNL     1       0.444   9.747  20.396  0.00  0.00    +0.000 A 
ENDROOT
BRANCH   3  11
ATOM     11  C   UNL     1      -2.069  13.207  20.263  0.00  0.00    +0.000 C 
ATOM     12  O   UNL     1      -1.556  14.308  20.065  0.00  0.00    +0.000 OA
ATOM     13  N   UNL     1      -3.421  13.037  20.466  0.00  0.00    +0.000 N 
ATOM     14  H   UNL     1      -3.766  12.089  20.603  0.00  0.00    +0.000 HD
BRANCH  13  15
ATOM     15  C   UNL     1      -4.323  14.173  20.491  0.00  0.00    +0.000 C 
BRANCH  15  16
ATOM     16  C   UNL     1      -4.840  14.457  21.894  0.00  0.00    +0.000 C 
BRANCH  16  17
ATOM     17  C   UNL     1      -5.661  13.307  22.409  0.00  0.00    +0.000 C 
ATOM     18  O   UNL     1      -5.793  12.209  21.875  0.00  0.00    +0.000 OA
BRANCH  17  19
ATOM     19  C   UNL     1      -6.408  13.538  23.720  0.00  0.00    +0.000 C 
ATOM     20  O   UNL     1      -7.409  12.927  24.033  0.00  0.00    +0.000 OA
BRANCH  19  21
ATOM     21  O   UNL     1      -5.794  14.484  24.455  0.00  0.00    +0.000 OA
ATOM     22  H   UNL     1      -6.365  15.287  24.495  0.00  0.00    +0.000 HD
ENDBRANCH  19  21
ENDBRANCH  17  19
ENDBRANCH  16  17
ENDBRANCH  15  16
ENDBRANCH  13  15
ENDBRANCH   3  11
BRANCH   1  24
ATOM     23  N   UNL     1       0.385   9.424  23.929  0.00  0.00    +0.000 NA
ATOM     24  C   UNL     1       0.156   9.851  22.871  0.00  0.00    +0.000 C 
ENDBRANCH   1  24
BRANCH   4  25
ATOM     25  O   UNL     1      -1.032  11.988  17.877  0.00  0.00    +0.000 OA
ATOM     26  H   UNL     1      -1.552  12.815  18.004  0.00  0.00    +0.000 HD
ENDBRANCH   4  25
BRANCH   8  27
ATOM     27  O   UNL     1       2.782   7.103  19.304  0.00  0.00    +0.000 OA
BRANCH  27  28
ATOM     28  C   UNL     1       2.329   5.798  19.286  0.00  0.00    +0.000 A 
ATOM     29  C   UNL     1       2.180   5.047  18.114  0.00  0.00    +0.000 A 
ATOM     30  C   UNL     1       1.598   3.780  18.160  0.00  0.00    +0.000 A 
ATOM     31  C   UNL     1       1.241   3.225  19.386  0.00  0.00    +0.000 A 
ATOM     32  C   UNL     1       1.479   3.929  20.566  0.00  0.00    +0.000 A 
ATOM     33  C   UNL     1       2.021   5.217  20.518  0.00  0.00    +0.000 A 
ENDBRANCH  27  28
ENDBRANCH   8  27
TORSDOF 10
ENDMDL
MODEL 8
REMARK VINA RESULT:      -7.3      4.591      7.117
REMARK  Name = 
REMARK  10 active torsions:
REMARK  status: ('A' for Active; 'I' for Inactive)
REMARK    1  A    between atoms: C_2  and  C_3
REMARK    2  A    between atoms: C_5  and  C_6
REMARK    3  A    between atoms: N_8  and  C_9
REMARK    4  A    between atoms: C_9  and  C_10
REMARK    5  A    between atoms: C_10  and  C_11
REMARK    6  A    between atoms: C_11  and  C_13
REMARK    7  A    between atoms: C_13  and  O_15
REMARK    8  A    between atoms: C_16  and  O_17
REMARK    9  A    between atoms: C_21  and  O_22
REMARK   10  A    between atoms: O_22  and  C_23
REMARK                            x       y       z     vdW  Elec       q    Type
REMARK                         _______ _______ _______ _____ _____    ______ ____
ROOT
ATOM      1  C   UNL     1       4.063   4.531  19.295  0.00  0.00    +0.000 A 
ATOM      2  N   UNL     1       3.085   5.069  20.086  0.00  0.00    +0.000 NA
ATOM      3  C   UNL     1       2.603   6.281  19.704  0.00  0.00    +0.000 A 
ATOM      4  C   UNL     1       3.041   6.969  18.573  0.00  0.00    +0.000 A 
ATOM      5  C   UNL     1       4.045   6.402  17.777  0.00  0.00    +0.000 A 
ATOM      6  C   UNL     1       4.504   7.059  16.626  0.00  0.00    +0.000 A 
ATOM      7  C   UNL     1       5.512   6.519  15.838  0.00  0.00    +0.000 A 
ATOM      8  C   UNL     1       6.137   5.336  16.221  0.00  0.00    +0.000 A 
ATOM      9  C   UNL     1       5.651   4.627  17.326  0.00  0.00    +0.000 A 
ATOM     10  C   UNL     1       4.600   5.147  18.136  0.00  0.00    +0.000 A 
ENDROOT
BRANCH   3  11
ATOM     11  C   UNL     1       1.557   6.908  20.573  0.00  0.00    +0.000 C 
ATOM     12  O   UNL     1       0.605   6.236  20.969  0.00  0.00    +0.000 OA
ATOM     13  N   UNL     1       1.713   8.241  20.884  0.00  0.00    +0.000 N 
ATOM     14  H   UNL     1       2.540   8.718  20.533  0.00  0.00    +0.000 HD
BRANCH  13  15
ATOM     15  C   UNL     1       0.725   8.945  21.680  0.00  0.00    +0.000 C 
BRANCH  15  16
ATOM     16  C   UNL     1      -0.355   9.578  20.816  0.00  0.00    +0.000 C 
BRANCH  16  17
ATOM     17  C   UNL     1       0.251  10.399  19.711  0.00  0.00    +0.000 C 
ATOM     18  O   UNL     1       1.420  10.762  19.631  0.00  0.00    +0.000 OA
BRANCH  17  19
ATOM     19  C   UNL     1      -0.690  10.827  18.587  0.00  0.00    +0.000 C 
ATOM     20  O   UNL     1      -1.378  11.826  18.638  0.00  0.00    +0.000 OA
BRANCH  19  21
ATOM     21  O   UNL     1      -0.627   9.959  17.560  0.00  0.00    +0.000 OA
ATOM     22  H   UNL     1       0.318   9.794  17.330  0.00  0.00    +0.000 HD
ENDBRANCH  19  21
ENDBRANCH  17  19
ENDBRANCH  16  17
ENDBRANCH  15  16
ENDBRANCH  13  15
ENDBRANCH   3  11
BRANCH   1  24
ATOM     23  N   UNL     1       4.910   2.207  20.125  0.00  0.00    +0.000 NA
ATOM     24  C   UNL     1       4.538   3.242  19.745  0.00  0.00    +0.000 C 
ENDBRANCH   1  24
BRANCH   4  25
ATOM     25  O   UNL     1       2.545   8.199  18.204  0.00  0.00    +0.000 OA
ATOM     26  H   UNL     1       3.276   8.859  18.215  0.00  0.00    +0.000 HD
ENDBRANCH   4  25
BRANCH   8  27
ATOM     27  O   UNL     1       7.222   4.800  15.556  0.00  0.00    +0.000 OA
BRANCH  27  28
ATOM     28  C   UNL     1       7.105   4.549  14.202  0.00  0.00    +0.000 A 
ATOM     29  C   UNL     1       7.862   5.209  13.226  0.00  0.00    +0.000 A 
ATOM     30  C   UNL     1       7.603   4.995  11.872  0.00  0.00    +0.000 A 
ATOM     31  C   UNL     1       6.645   4.061  11.489  0.00  0.00    +0.000 A 
ATOM     32  C   UNL     1       5.958   3.329  12.457  0.00  0.00    +0.000 A 
ATOM     33  C   UNL     1       6.185   3.573  13.815  0.00  0.00    +0.000 A 
ENDBRANCH  27  28
ENDBRANCH   8  27
TORSDOF 10
ENDMDL
MODEL 9
REMARK VINA RESULT:      -7.2      2.298      8.698
REMARK  Name = 
REMARK  10 active torsions:
REMARK  status: ('A' for Active; 'I' for Inactive)
REMARK    1  A    between atoms: C_2  and  C_3
REMARK    2  A    between atoms: C_5  and  C_6
REMARK    3  A    between atoms: N_8  and  C_9
REMARK    4  A    between atoms: C_9  and  C_10
REMARK    5  A    between atoms: C_10  and  C_11
REMARK    6  A    between atoms: C_11  and  C_13
REMARK    7  A    between atoms: C_13  and  O_15
REMARK    8  A    between atoms: C_16  and  O_17
REMARK    9  A    between atoms: C_21  and  O_22
REMARK   10  A    between atoms: O_22  and  C_23
REMARK                            x       y       z     vdW  Elec       q    Type
REMARK                         _______ _______ _______ _____ _____    ______ ____
ROOT
ATOM      1  C   UNL     1       0.181  11.206  19.286  0.00  0.00    +0.000 A 
ATOM      2  N   UNL     1       0.960  10.338  18.570  0.00  0.00    +0.000 NA
ATOM      3  C   UNL     1       1.337   9.201  19.211  0.00  0.00    +0.000 A 
ATOM      4  C   UNL     1       0.967   8.888  20.519  0.00  0.00    +0.000 A 
ATOM      5  C   UNL     1       0.171   9.791  21.235  0.00  0.00    +0.000 A 
ATOM      6  C   UNL     1      -0.230   9.506  22.549  0.00  0.00    +0.000 A 
ATOM      7  C   UNL     1      -1.002  10.400  23.280  0.00  0.00    +0.000 A 
ATOM      8  C   UNL     1      -1.337  11.637  22.736  0.00  0.00    +0.000 A 
ATOM      9  C   UNL     1      -1.008  11.916  21.405  0.00  0.00    +0.000 A 
ATOM     10  C   UNL     1      -0.238  11.004  20.626  0.00  0.00    +0.000 A 
ENDROOT
BRANCH   3  11
ATOM     11  C   UNL     1       2.219   8.252  18.461  0.00  0.00    +0.000 C 
ATOM     12  O   UNL     1       2.572   8.518  17.312  0.00  0.00    +0.000 OA
ATOM     13  N   UNL     1       2.591   7.094  19.108  0.00  0.00    +0.000 N 
ATOM     14  H   UNL     1       2.273   6.959  20.065  0.00  0.00    +0.000 HD
BRANCH  13  15
ATOM     15  C   UNL     1       3.404   6.092  18.442  0.00  0.00    +0.000 C 
BRANCH  15  16
ATOM     16  C   UNL     1       2.569   4.924  17.940  0.00  0.00    +0.000 C 
BRANCH  16  17
ATOM     17  C   UNL     1       2.437   3.861  18.996  0.00  0.00    +0.000 C 
ATOM     18  O   UNL     1       3.179   2.896  19.154  0.00  0.00    +0.000 OA
BRANCH  17  19
ATOM     19  C   UNL     1       1.259   3.999  19.956  0.00  0.00    +0.000 C 
ATOM     20  O   UNL     1       1.077   4.977  20.653  0.00  0.00    +0.000 OA
BRANCH  19  21
ATOM     21  O   UNL     1       0.473   2.907  19.901  0.00  0.00    +0.000 OA
ATOM     22  H   UNL     1      -0.117   2.890  20.691  0.00  0.00    +0.000 HD
ENDBRANCH  19  21
ENDBRANCH  17  19
ENDBRANCH  16  17
ENDBRANCH  15  16
ENDBRANCH  13  15
ENDBRANCH   3  11
BRANCH   1  24
ATOM     23  N   UNL     1      -0.504  13.363  17.988  0.00  0.00    +0.000 NA
ATOM     24  C   UNL     1      -0.192  12.397  18.557  0.00  0.00    +0.000 C 
ENDBRANCH   1  24
BRANCH   4  25
ATOM     25  O   UNL     1       1.363   7.733  21.154  0.00  0.00    +0.000 OA
ATOM     26  H   UNL     1       2.052   7.952  21.824  0.00  0.00    +0.000 HD
ENDBRANCH   4  25
BRANCH   8  27
ATOM     27  O   UNL     1      -2.000  12.622  23.442  0.00  0.00    +0.000 OA
BRANCH  27  28
ATOM     28  C   UNL     1      -3.380  12.657  23.384  0.00  0.00    +0.000 A 
ATOM     29  C   UNL     1      -4.097  12.945  22.217  0.00  0.00    +0.000 A 
ATOM     30  C   UNL     1      -5.484  13.087  22.262  0.00  0.00    +0.000 A 
ATOM     31  C   UNL     1      -6.167  12.860  23.453  0.00  0.00    +0.000 A 
ATOM     32  C   UNL     1      -5.465  12.476  24.597  0.00  0.00    +0.000 A 
ATOM     33  C   UNL     1      -4.071  12.376  24.564  0.00  0.00    +0.000 A 
ENDBRANCH  27  28
ENDBRANCH   8  27
TORSDOF 10
ENDMDL
