MODEL 1
REMARK VINA RESULT:      -8.9      0.000      0.000
REMARK  Name = 
REMARK  7 active torsions:
REMARK  status: ('A' for Active; 'I' for Inactive)
REMARK    1  A    between atoms: C_1  and  C_2
REMARK    2  A    between atoms: C_3  and  N_4
REMARK    3  A    between atoms: N_4  and  C_5
REMARK    4  A    between atoms: C_5  and  C_6
REMARK    5  A    between atoms: N_10  and  C_11
REMARK    6  A    between atoms: N_21  and  C_22
REMARK    7  A    between atoms: N_28  and  C_29
REMARK                            x       y       z     vdW  Elec       q    Type
REMARK                         _______ _______ _______ _____ _____    ______ ____
ROOT
ATOM      1  N   UNL     1       7.471   5.457  17.594  0.00  0.00    +0.000 N 
ATOM      2  H   UNL     1       7.766   5.680  16.641  0.00  0.00    +0.000 HD
ENDROOT
BRANCH   1   5
ATOM      3  C   UNL     1       5.815   3.820  15.276  0.00  0.00    +0.000 C 
ATOM      4  C   UNL     1       5.535   4.070  16.724  0.00  0.00    +0.000 A 
ATOM      5  C   UNL     1       6.273   4.783  17.598  0.00  0.00    +0.000 A 
ATOM      6  C   UNL     1       5.419   4.822  18.856  0.00  0.00    +0.000 A 
ATOM      7  O   UNL     1       5.794   5.341  19.898  0.00  0.00    +0.000 OA
ATOM      8  N   UNL     1       4.240   4.141  18.560  0.00  0.00    +0.000 N 
ATOM      9  N   UNL     1       4.351   3.561  17.282  0.00  0.00    +0.000 N 
ATOM     10  C   UNL     1       3.133   3.446  16.471  0.00  0.00    +0.000 C 
BRANCH   8  11
ATOM     11  C   UNL     1       3.249   3.773  19.489  0.00  0.00    +0.000 A 
ATOM     12  C   UNL     1       3.486   2.708  20.367  0.00  0.00    +0.000 A 
ATOM     13  C   UNL     1       2.575   2.421  21.387  0.00  0.00    +0.000 A 
ATOM     14  C   UNL     1       1.402   3.162  21.506  0.00  0.00    +0.000 A 
ATOM     15  C   UNL     1       1.131   4.189  20.604  0.00  0.00    +0.000 A 
ATOM     16  C   UNL     1       2.057   4.498  19.605  0.00  0.00    +0.000 A 
ENDBRANCH   8  11
ENDBRANCH   1   5
BRANCH   1  17
ATOM     17  C   UNL     1       8.051   6.288  18.630  0.00  0.00    +0.000 C 
BRANCH  17  18
ATOM     18  C   UNL     1       8.175   7.745  18.342  0.00  0.00    +0.000 A 
ATOM     19  N   UNL     1       7.651   8.426  17.346  0.00  0.00    +0.000 NA
ATOM     20  N   UNL     1       8.065   9.721  17.513  0.00  0.00    +0.000 NA
ATOM     21  C   UNL     1       8.838   9.748  18.581  0.00  0.00    +0.000 A 
ATOM     22  N   UNL     1       9.526  10.761  19.134  0.00  0.00    +0.000 N 
ATOM     23  O   UNL     1       8.935   8.523  19.182  0.00  0.00    +0.000 OA
ATOM     24  H   UNL     1       9.945  10.624  20.045  0.00  0.00    +0.000 HD
BRANCH  22  25
ATOM     25  C   UNL     1       9.867  11.952  18.466  0.00  0.00    +0.000 A 
ATOM     26  C   UNL     1      10.990  11.980  17.627  0.00  0.00    +0.000 A 
ATOM     27  C   UNL     1      11.405  13.178  17.034  0.00  0.00    +0.000 A 
ATOM     28  C   UNL     1      10.697  14.348  17.265  0.00  0.00    +0.000 A 
ATOM     29  F   UNL     1      11.102  15.494  16.703  0.00  0.00    +0.000 F 
ATOM     30  C   UNL     1       9.579  14.348  18.086  0.00  0.00    +0.000 A 
ATOM     31  C   UNL     1       9.176  13.157  18.687  0.00  0.00    +0.000 A 
ENDBRANCH  22  25
ENDBRANCH  17  18
ENDBRANCH   1  17
TORSDOF 5
ENDMDL
MODEL 2
REMARK VINA RESULT:      -8.9      1.237      1.416
REMARK  Name = 
REMARK  7 active torsions:
REMARK  status: ('A' for Active; 'I' for Inactive)
REMARK    1  A    between atoms: C_1  and  C_2
REMARK    2  A    between atoms: C_3  and  N_4
REMARK    3  A    between atoms: N_4  and  C_5
REMARK    4  A    between atoms: C_5  and  C_6
REMARK    5  A    between atoms: N_10  and  C_11
REMARK    6  A    between atoms: N_21  and  C_22
REMARK    7  A    between atoms: N_28  and  C_29
REMARK                            x       y       z     vdW  Elec       q    Type
REMARK                         _______ _______ _______ _____ _____    ______ ____
ROOT
ATOM      1  N   UNL     1       7.131   5.438  17.802  0.00  0.00    +0.000 N 
ATOM      2  H   UNL     1       7.496   5.198  16.878  0.00  0.00    +0.000 HD
ENDROOT
BRANCH   1   5
ATOM      3  C   UNL     1       4.844   7.210  16.244  0.00  0.00    +0.000 C 
ATOM      4  C   UNL     1       4.747   6.066  17.204  0.00  0.00    +0.000 A 
ATOM      5  C   UNL     1       5.756   5.412  17.814  0.00  0.00    +0.000 A 
ATOM      6  C   UNL     1       5.053   4.472  18.782  0.00  0.00    +0.000 A 
ATOM      7  O   UNL     1       5.654   3.666  19.479  0.00  0.00    +0.000 OA
ATOM      8  N   UNL     1       3.687   4.709  18.649  0.00  0.00    +0.000 N 
ATOM      9  N   UNL     1       3.476   5.606  17.583  0.00  0.00    +0.000 N 
ATOM     10  C   UNL     1       2.344   6.535  17.680  0.00  0.00    +0.000 C 
BRANCH   8  11
ATOM     11  C   UNL     1       2.659   3.933  19.216  0.00  0.00    +0.000 A 
ATOM     12  C   UNL     1       2.371   4.059  20.580  0.00  0.00    +0.000 A 
ATOM     13  C   UNL     1       1.265   3.405  21.129  0.00  0.00    +0.000 A 
ATOM     14  C   UNL     1       0.471   2.584  20.331  0.00  0.00    +0.000 A 
ATOM     15  C   UNL     1       0.782   2.409  18.984  0.00  0.00    +0.000 A 
ATOM     16  C   UNL     1       1.867   3.089  18.428  0.00  0.00    +0.000 A 
ENDBRANCH   8  11
ENDBRANCH   1   5
BRANCH   1  17
ATOM     17  C   UNL     1       8.034   6.194  18.646  0.00  0.00    +0.000 C 
BRANCH  17  18
ATOM     18  C   UNL     1       8.175   7.649  18.358  0.00  0.00    +0.000 A 
ATOM     19  N   UNL     1       7.700   8.327  17.335  0.00  0.00    +0.000 NA
ATOM     20  N   UNL     1       8.109   9.621  17.515  0.00  0.00    +0.000 NA
ATOM     21  C   UNL     1       8.832   9.651  18.617  0.00  0.00    +0.000 A 
ATOM     22  N   UNL     1       9.497  10.665  19.197  0.00  0.00    +0.000 N 
ATOM     23  O   UNL     1       8.898   8.429  19.228  0.00  0.00    +0.000 OA
ATOM     24  H   UNL     1       9.873  10.532  20.127  0.00  0.00    +0.000 HD
BRANCH  22  25
ATOM     25  C   UNL     1       9.872  11.851  18.540  0.00  0.00    +0.000 A 
ATOM     26  C   UNL     1      10.983  11.851  17.685  0.00  0.00    +0.000 A 
ATOM     27  C   UNL     1      11.434  13.040  17.101  0.00  0.00    +0.000 A 
ATOM     28  C   UNL     1      10.773  14.232  17.358  0.00  0.00    +0.000 A 
ATOM     29  F   UNL     1      11.211  15.370  16.806  0.00  0.00    +0.000 F 
ATOM     30  C   UNL     1       9.667  14.262  18.196  0.00  0.00    +0.000 A 
ATOM     31  C   UNL     1       9.229  13.078  18.787  0.00  0.00    +0.000 A 
ENDBRANCH  22  25
ENDBRANCH  17  18
ENDBRANCH   1  17
TORSDOF 5
ENDMDL
MODEL 3
REMARK VINA RESULT:      -8.8      2.442      3.278
REMARK  Name = 
REMARK  7 active torsions:
REMARK  status: ('A' for Active; 'I' for Inactive)
REMARK    1  A    between atoms: C_1  and  C_2
REMARK    2  A    between atoms: C_3  and  N_4
REMARK    3  A    between atoms: N_4  and  C_5
REMARK    4  A    between atoms: C_5  and  C_6
REMARK    5  A    between atoms: N_10  and  C_11
REMARK    6  A    between atoms: N_21  and  C_22
REMARK    7  A    between atoms: N_28  and  C_29
REMARK                            x       y       z     vdW  Elec       q    Type
REMARK                         _______ _______ _______ _____ _____    ______ ____
ROOT
ATOM      1  N   UNL     1       6.066   4.762  17.679  0.00  0.00    +0.000 N 
ATOM      2  H   UNL     1       5.857   4.535  16.705  0.00  0.00    +0.000 HD
ENDROOT
BRANCH   1   5
ATOM      3  C   UNL     1       4.269   3.113  19.881  0.00  0.00    +0.000 C 
ATOM      4  C   UNL     1       4.136   4.486  19.301  0.00  0.00    +0.000 A 
ATOM      5  C   UNL     1       4.921   5.072  18.374  0.00  0.00    +0.000 A 
ATOM      6  C   UNL     1       4.210   6.381  18.064  0.00  0.00    +0.000 A 
ATOM      7  O   UNL     1       4.666   7.217  17.297  0.00  0.00    +0.000 OA
ATOM      8  N   UNL     1       3.051   6.399  18.836  0.00  0.00    +0.000 N 
ATOM      9  N   UNL     1       3.055   5.289  19.702  0.00  0.00    +0.000 N 
ATOM     10  C   UNL     1       1.764   4.683  20.050  0.00  0.00    +0.000 C 
BRANCH   8  11
ATOM     11  C   UNL     1       2.194   7.503  19.005  0.00  0.00    +0.000 A 
ATOM     12  C   UNL     1       1.764   7.853  20.290  0.00  0.00    +0.000 A 
ATOM     13  C   UNL     1       1.031   9.026  20.492  0.00  0.00    +0.000 A 
ATOM     14  C   UNL     1       0.684   9.829  19.407  0.00  0.00    +0.000 A 
ATOM     15  C   UNL     1       1.062   9.461  18.117  0.00  0.00    +0.000 A 
ATOM     16  C   UNL     1       1.822   8.306  17.920  0.00  0.00    +0.000 A 
ENDBRANCH   8  11
ENDBRANCH   1   5
BRANCH   1  17
ATOM     17  C   UNL     1       7.429   5.184  17.937  0.00  0.00    +0.000 C 
BRANCH  17  18
ATOM     18  C   UNL     1       7.718   6.642  17.835  0.00  0.00    +0.000 A 
ATOM     19  N   UNL     1       7.522   7.443  16.810  0.00  0.00    +0.000 NA
ATOM     20  N   UNL     1       7.960   8.679  17.205  0.00  0.00    +0.000 NA
ATOM     21  C   UNL     1       8.423   8.554  18.433  0.00  0.00    +0.000 A 
ATOM     22  N   UNL     1       9.004   9.456  19.242  0.00  0.00    +0.000 N 
ATOM     23  O   UNL     1       8.278   7.282  18.915  0.00  0.00    +0.000 OA
ATOM     24  H   UNL     1       9.158   9.212  20.212  0.00  0.00    +0.000 HD
BRANCH  22  25
ATOM     25  C   UNL     1       9.586  10.660  18.804  0.00  0.00    +0.000 A 
ATOM     26  C   UNL     1      10.864  11.018  19.256  0.00  0.00    +0.000 A 
ATOM     27  C   UNL     1      11.419  12.257  18.914  0.00  0.00    +0.000 A 
ATOM     28  C   UNL     1      10.708  13.139  18.114  0.00  0.00    +0.000 A 
ATOM     29  F   UNL     1      11.238  14.327  17.796  0.00  0.00    +0.000 F 
ATOM     30  C   UNL     1       9.443  12.809  17.649  0.00  0.00    +0.000 A 
ATOM     31  C   UNL     1       8.887  11.581  18.002  0.00  0.00    +0.000 A 
ENDBRANCH  22  25
ENDBRANCH  17  18
ENDBRANCH   1  17
TORSDOF 5
ENDMDL
MODEL 4
REMARK VINA RESULT:      -8.8      1.200      1.654
REMARK  Name = 
REMARK  7 active torsions:
REMARK  status: ('A' for Active; 'I' for Inactive)
REMARK    1  A    between atoms: C_1  and  C_2
REMARK    2  A    between atoms: C_3  and  N_4
REMARK    3  A    between atoms: N_4  and  C_5
REMARK    4  A    between atoms: C_5  and  C_6
REMARK    5  A    between atoms: N_10  and  C_11
REMARK    6  A    between atoms: N_21  and  C_22
REMARK    7  A    between atoms: N_28  and  C_29
REMARK                            x       y       z     vdW  Elec       q    Type
REMARK                         _______ _______ _______ _____ _____    ______ ____
ROOT
ATOM      1  N   UNL     1       7.122   5.698  17.716  0.00  0.00    +0.000 N 
ATOM      2  H   UNL     1       7.431   5.560  16.752  0.00  0.00    +0.000 HD
ENDROOT
BRANCH   1   5
ATOM      3  C   UNL     1       4.682   7.266  16.172  0.00  0.00    +0.000 C 
ATOM      4  C   UNL     1       4.686   6.197  17.219  0.00  0.00    +0.000 A 
ATOM      5  C   UNL     1       5.753   5.627  17.814  0.00  0.00    +0.000 A 
ATOM      6  C   UNL     1       5.144   4.742  18.891  0.00  0.00    +0.000 A 
ATOM      7  O   UNL     1       5.815   4.013  19.609  0.00  0.00    +0.000 OA
ATOM      8  N   UNL     1       3.764   4.921  18.824  0.00  0.00    +0.000 N 
ATOM      9  N   UNL     1       3.457   5.725  17.709  0.00  0.00    +0.000 N 
ATOM     10  C   UNL     1       2.298   6.620  17.804  0.00  0.00    +0.000 C 
BRANCH   8  11
ATOM     11  C   UNL     1       2.802   4.157  19.509  0.00  0.00    +0.000 A 
ATOM     12  C   UNL     1       2.146   3.115  18.843  0.00  0.00    +0.000 A 
ATOM     13  C   UNL     1       1.295   2.256  19.545  0.00  0.00    +0.000 A 
ATOM     14  C   UNL     1       1.057   2.464  20.902  0.00  0.00    +0.000 A 
ATOM     15  C   UNL     1       1.663   3.531  21.562  0.00  0.00    +0.000 A 
ATOM     16  C   UNL     1       2.539   4.368  20.868  0.00  0.00    +0.000 A 
ENDBRANCH   8  11
ENDBRANCH   1   5
BRANCH   1  17
ATOM     17  C   UNL     1       8.060   6.398  18.571  0.00  0.00    +0.000 C 
BRANCH  17  18
ATOM     18  C   UNL     1       8.223   7.862  18.345  0.00  0.00    +0.000 A 
ATOM     19  N   UNL     1       7.727   8.596  17.372  0.00  0.00    +0.000 NA
ATOM     20  N   UNL     1       8.172   9.872  17.597  0.00  0.00    +0.000 NA
ATOM     21  C   UNL     1       8.934   9.836  18.672  0.00  0.00    +0.000 A 
ATOM     22  N   UNL     1       9.641  10.807  19.273  0.00  0.00    +0.000 N 
ATOM     23  O   UNL     1       8.994   8.585  19.223  0.00  0.00    +0.000 OA
ATOM     24  H   UNL     1      10.047  10.623  20.182  0.00  0.00    +0.000 HD
BRANCH  22  25
ATOM     25  C   UNL     1      10.019  12.015  18.657  0.00  0.00    +0.000 A 
ATOM     26  C   UNL     1       9.358  13.204  18.996  0.00  0.00    +0.000 A 
ATOM     27  C   UNL     1       9.648  14.397  18.325  0.00  0.00    +0.000 A 
ATOM     28  C   UNL     1      10.605  14.413  17.321  0.00  0.00    +0.000 A 
ATOM     29  F   UNL     1      10.875  15.553  16.674  0.00  0.00    +0.000 F 
ATOM     30  C   UNL     1      11.279  13.252  16.968  0.00  0.00    +0.000 A 
ATOM     31  C   UNL     1      10.978  12.062  17.629  0.00  0.00    +0.000 A 
ENDBRANCH  22  25
ENDBRANCH  17  18
ENDBRANCH   1  17
TORSDOF 5
ENDMDL
MODEL 5
REMARK VINA RESULT:      -8.7      6.693      8.990
REMARK  Name = 
REMARK  7 active torsions:
REMARK  status: ('A' for Active; 'I' for Inactive)
REMARK    1  A    between atoms: C_1  and  C_2
REMARK    2  A    between atoms: C_3  and  N_4
REMARK    3  A    between atoms: N_4  and  C_5
REMARK    4  A    between atoms: C_5  and  C_6
REMARK    5  A    between atoms: N_10  and  C_11
REMARK    6  A    between atoms: N_21  and  C_22
REMARK    7  A    between atoms: N_28  and  C_29
REMARK                            x       y       z     vdW  Elec       q    Type
REMARK                         _______ _______ _______ _____ _____    ______ ____
ROOT
ATOM      1  N   UNL     1       1.809   6.630  20.736  0.00  0.00    +0.000 N 
ATOM      2  H   UNL     1       1.786   6.575  21.756  0.00  0.00    +0.000 HD
ENDROOT
BRANCH   1   5
ATOM      3  C   UNL     1       1.901   3.412  21.392  0.00  0.00    +0.000 C 
ATOM      4  C   UNL     1       2.609   4.251  20.376  0.00  0.00    +0.000 A 
ATOM      5  C   UNL     1       2.521   5.584  20.198  0.00  0.00    +0.000 A 
ATOM      6  C   UNL     1       3.575   5.885  19.144  0.00  0.00    +0.000 A 
ATOM      7  O   UNL     1       3.749   7.004  18.679  0.00  0.00    +0.000 OA
ATOM      8  N   UNL     1       4.195   4.675  18.840  0.00  0.00    +0.000 N 
ATOM      9  N   UNL     1       3.521   3.632  19.505  0.00  0.00    +0.000 N 
ATOM     10  C   UNL     1       4.309   2.476  19.947  0.00  0.00    +0.000 C 
BRANCH   8  11
ATOM     11  C   UNL     1       5.098   4.457  17.783  0.00  0.00    +0.000 A 
ATOM     12  C   UNL     1       4.610   4.095  16.522  0.00  0.00    +0.000 A 
ATOM     13  C   UNL     1       5.476   4.014  15.428  0.00  0.00    +0.000 A 
ATOM     14  C   UNL     1       6.840   4.246  15.598  0.00  0.00    +0.000 A 
ATOM     15  C   UNL     1       7.343   4.554  16.861  0.00  0.00    +0.000 A 
ATOM     16  C   UNL     1       6.472   4.667  17.946  0.00  0.00    +0.000 A 
ENDBRANCH   8  11
ENDBRANCH   1   5
BRANCH   1  17
ATOM     17  C   UNL     1       1.571   7.949  20.183  0.00  0.00    +0.000 C 
BRANCH  17  18
ATOM     18  C   UNL     1       1.063   8.994  21.115  0.00  0.00    +0.000 A 
ATOM     19  N   UNL     1       1.015   8.961  22.430  0.00  0.00    +0.000 NA
ATOM     20  N   UNL     1       0.453  10.147  22.819  0.00  0.00    +0.000 NA
ATOM     21  C   UNL     1       0.164  10.819  21.723  0.00  0.00    +0.000 A 
ATOM     22  N   UNL     1      -0.441  12.008  21.562  0.00  0.00    +0.000 N 
ATOM     23  O   UNL     1       0.550  10.155  20.590  0.00  0.00    +0.000 OA
ATOM     24  H   UNL     1      -0.440  12.436  20.644  0.00  0.00    +0.000 HD
BRANCH  22  25
ATOM     25  C   UNL     1      -1.241  12.634  22.537  0.00  0.00    +0.000 A 
ATOM     26  C   UNL     1      -2.471  12.066  22.895  0.00  0.00    +0.000 A 
ATOM     27  C   UNL     1      -3.327  12.723  23.786  0.00  0.00    +0.000 A 
ATOM     28  C   UNL     1      -2.955  13.943  24.333  0.00  0.00    +0.000 A 
ATOM     29  F   UNL     1      -3.779  14.574  25.178  0.00  0.00    +0.000 F 
ATOM     30  C   UNL     1      -1.741  14.526  24.000  0.00  0.00    +0.000 A 
ATOM     31  C   UNL     1      -0.896  13.876  23.101  0.00  0.00    +0.000 A 
ENDBRANCH  22  25
ENDBRANCH  17  18
ENDBRANCH   1  17
TORSDOF 5
ENDMDL
MODEL 6
REMARK VINA RESULT:      -8.6      6.754      9.305
REMARK  Name = 
REMARK  7 active torsions:
REMARK  status: ('A' for Active; 'I' for Inactive)
REMARK    1  A    between atoms: C_1  and  C_2
REMARK    2  A    between atoms: C_3  and  N_4
REMARK    3  A    between atoms: N_4  and  C_5
REMARK    4  A    between atoms: C_5  and  C_6
REMARK    5  A    between atoms: N_10  and  C_11
REMARK    6  A    between atoms: N_21  and  C_22
REMARK    7  A    between atoms: N_28  and  C_29
REMARK                            x       y       z     vdW  Elec       q    Type
REMARK                         _______ _______ _______ _____ _____    ______ ____
ROOT
ATOM      1  N   UNL     1       1.324   8.520  21.378  0.00  0.00    +0.000 N 
ATOM      2  H   UNL     1       1.765   8.523  22.300  0.00  0.00    +0.000 HD
ENDROOT
BRANCH   1   5
ATOM      3  C   UNL     1       0.004  10.008  18.764  0.00  0.00    +0.000 C 
ATOM      4  C   UNL     1      -0.163  10.226  20.234  0.00  0.00    +0.000 A 
ATOM      5  C   UNL     1       0.448   9.570  21.242  0.00  0.00    +0.000 A 
ATOM      6  C   UNL     1       0.015  10.326  22.489  0.00  0.00    +0.000 A 
ATOM      7  O   UNL     1       0.331   9.979  23.619  0.00  0.00    +0.000 OA
ATOM      8  N   UNL     1      -0.791  11.378  22.060  0.00  0.00    +0.000 N 
ATOM      9  N   UNL     1      -1.013  11.254  20.674  0.00  0.00    +0.000 N 
ATOM     10  C   UNL     1      -1.164  12.485  19.890  0.00  0.00    +0.000 C 
BRANCH   8  11
ATOM     11  C   UNL     1      -1.558  12.217  22.890  0.00  0.00    +0.000 A 
ATOM     12  C   UNL     1      -1.057  13.471  23.256  0.00  0.00    +0.000 A 
ATOM     13  C   UNL     1      -1.861  14.373  23.959  0.00  0.00    +0.000 A 
ATOM     14  C   UNL     1      -3.150  14.008  24.342  0.00  0.00    +0.000 A 
ATOM     15  C   UNL     1      -3.639  12.741  24.028  0.00  0.00    +0.000 A 
ATOM     16  C   UNL     1      -2.847  11.853  23.297  0.00  0.00    +0.000 A 
ENDBRANCH   8  11
ENDBRANCH   1   5
BRANCH   1  17
ATOM     17  C   UNL     1       1.321   7.239  20.700  0.00  0.00    +0.000 C 
BRANCH  17  18
ATOM     18  C   UNL     1       2.371   7.016  19.667  0.00  0.00    +0.000 A 
ATOM     19  N   UNL     1       2.647   7.753  18.612  0.00  0.00    +0.000 NA
ATOM     20  N   UNL     1       3.680   7.124  17.970  0.00  0.00    +0.000 NA
ATOM     21  C   UNL     1       3.953   6.028  18.650  0.00  0.00    +0.000 A 
ATOM     22  N   UNL     1       4.841   5.050  18.409  0.00  0.00    +0.000 N 
ATOM     23  O   UNL     1       3.172   5.903  19.767  0.00  0.00    +0.000 OA
ATOM     24  H   UNL     1       5.014   4.360  19.130  0.00  0.00    +0.000 HD
BRANCH  22  25
ATOM     25  C   UNL     1       5.429   4.798  17.156  0.00  0.00    +0.000 A 
ATOM     26  C   UNL     1       6.744   5.217  16.909  0.00  0.00    +0.000 A 
ATOM     27  C   UNL     1       7.313   5.067  15.638  0.00  0.00    +0.000 A 
ATOM     28  C   UNL     1       6.577   4.491  14.613  0.00  0.00    +0.000 A 
ATOM     29  F   UNL     1       7.120   4.357  13.397  0.00  0.00    +0.000 F 
ATOM     30  C   UNL     1       5.275   4.063  14.830  0.00  0.00    +0.000 A 
ATOM     31  C   UNL     1       4.707   4.226  16.093  0.00  0.00    +0.000 A 
ENDBRANCH  22  25
ENDBRANCH  17  18
ENDBRANCH   1  17
TORSDOF 5
ENDMDL
MODEL 7
REMARK VINA RESULT:      -8.5      6.755      9.149
REMARK  Name = 
REMARK  7 active torsions:
REMARK  status: ('A' for Active; 'I' for Inactive)
REMARK    1  A    between atoms: C_1  and  C_2
REMARK    2  A    between atoms: C_3  and  N_4
REMARK    3  A    between atoms: N_4  and  C_5
REMARK    4  A    between atoms: C_5  and  C_6
REMARK    5  A    between atoms: N_10  and  C_11
REMARK    6  A    between atoms: N_21  and  C_22
REMARK    7  A    between atoms: N_28  and  C_29
REMARK                            x       y       z     vdW  Elec       q    Type
REMARK                         _______ _______ _______ _____ _____    ______ ____
ROOT
ATOM      1  N   UNL     1       2.165   7.328  20.280  0.00  0.00    +0.000 N 
ATOM      2  H   UNL     1       2.485   8.174  19.805  0.00  0.00    +0.000 HD
ENDROOT
BRANCH   1   5
ATOM      3  C   UNL     1       2.168   4.171  21.189  0.00  0.00    +0.000 C 
ATOM      4  C   UNL     1       2.837   4.892  20.062  0.00  0.00    +0.000 A 
ATOM      5  C   UNL     1       2.792   6.210  19.782  0.00  0.00    +0.000 A 
ATOM      6  C   UNL     1       3.780   6.377  18.637  0.00  0.00    +0.000 A 
ATOM      7  O   UNL     1       3.967   7.446  18.072  0.00  0.00    +0.000 OA
ATOM      8  N   UNL     1       4.324   5.119  18.392  0.00  0.00    +0.000 N 
ATOM      9  N   UNL     1       3.656   4.164  19.184  0.00  0.00    +0.000 N 
ATOM     10  C   UNL     1       4.425   3.011  19.664  0.00  0.00    +0.000 C 
BRANCH   8  11
ATOM     11  C   UNL     1       5.139   4.775  17.297  0.00  0.00    +0.000 A 
ATOM     12  C   UNL     1       4.546   4.387  16.090  0.00  0.00    +0.000 A 
ATOM     13  C   UNL     1       5.333   4.181  14.953  0.00  0.00    +0.000 A 
ATOM     14  C   UNL     1       6.718   4.314  15.029  0.00  0.00    +0.000 A 
ATOM     15  C   UNL     1       7.322   4.647  16.239  0.00  0.00    +0.000 A 
ATOM     16  C   UNL     1       6.533   4.885  17.366  0.00  0.00    +0.000 A 
ENDBRANCH   8  11
ENDBRANCH   1   5
BRANCH   1  17
ATOM     17  C   UNL     1       0.871   7.434  20.924  0.00  0.00    +0.000 C 
BRANCH  17  18
ATOM     18  C   UNL     1       0.533   8.739  21.558  0.00  0.00    +0.000 A 
ATOM     19  N   UNL     1       0.999   9.245  22.680  0.00  0.00    +0.000 NA
ATOM     20  N   UNL     1       0.374  10.453  22.839  0.00  0.00    +0.000 NA
ATOM     21  C   UNL     1      -0.455  10.600  21.825  0.00  0.00    +0.000 A 
ATOM     22  N   UNL     1      -1.328  11.582  21.547  0.00  0.00    +0.000 N 
ATOM     23  O   UNL     1      -0.390   9.552  20.947  0.00  0.00    +0.000 OA
ATOM     24  H   UNL     1      -1.774  11.595  20.638  0.00  0.00    +0.000 HD
BRANCH  22  25
ATOM     25  C   UNL     1      -1.815  12.506  22.490  0.00  0.00    +0.000 A 
ATOM     26  C   UNL     1      -1.009  13.582  22.889  0.00  0.00    +0.000 A 
ATOM     27  C   UNL     1      -1.433  14.454  23.898  0.00  0.00    +0.000 A 
ATOM     28  C   UNL     1      -2.665  14.264  24.506  0.00  0.00    +0.000 A 
ATOM     29  F   UNL     1      -3.064  15.095  25.477  0.00  0.00    +0.000 F 
ATOM     30  C   UNL     1      -3.485  13.211  24.128  0.00  0.00    +0.000 A 
ATOM     31  C   UNL     1      -3.055  12.336  23.132  0.00  0.00    +0.000 A 
ENDBRANCH  22  25
ENDBRANCH  17  18
ENDBRANCH   1  17
TORSDOF 5
ENDMDL
MODEL 8
REMARK VINA RESULT:      -8.4      6.846      9.250
REMARK  Name = 
REMARK  7 active torsions:
REMARK  status: ('A' for Active; 'I' for Inactive)
REMARK    1  A    between atoms: C_1  and  C_2
REMARK    2  A    between atoms: C_3  and  N_4
REMARK    3  A    between atoms: N_4  and  C_5
REMARK    4  A    between atoms: C_5  and  C_6
REMARK    5  A    between atoms: N_10  and  C_11
REMARK    6  A    between atoms: N_21  and  C_22
REMARK    7  A    between atoms: N_28  and  C_29
REMARK                            x       y       z     vdW  Elec       q    Type
REMARK                         _______ _______ _______ _____ _____    ______ ____
ROOT
ATOM      1  N   UNL     1       2.177   7.456  20.245  0.00  0.00    +0.000 N 
ATOM      2  H   UNL     1       2.498   8.326  19.816  0.00  0.00    +0.000 HD
ENDROOT
BRANCH   1   5
ATOM      3  C   UNL     1       2.320   4.285  21.094  0.00  0.00    +0.000 C 
ATOM      4  C   UNL     1       2.910   5.046  19.949  0.00  0.00    +0.000 A 
ATOM      5  C   UNL     1       2.812   6.367  19.696  0.00  0.00    +0.000 A 
ATOM      6  C   UNL     1       3.737   6.584  18.508  0.00  0.00    +0.000 A 
ATOM      7  O   UNL     1       3.864   7.667  17.955  0.00  0.00    +0.000 OA
ATOM      8  N   UNL     1       4.306   5.347  18.213  0.00  0.00    +0.000 N 
ATOM      9  N   UNL     1       3.707   4.359  19.019  0.00  0.00    +0.000 N 
ATOM     10  C   UNL     1       4.532   3.221  19.440  0.00  0.00    +0.000 C 
BRANCH   8  11
ATOM     11  C   UNL     1       5.076   5.048  17.074  0.00  0.00    +0.000 A 
ATOM     12  C   UNL     1       6.437   5.373  17.055  0.00  0.00    +0.000 A 
ATOM     13  C   UNL     1       7.246   4.957  15.994  0.00  0.00    +0.000 A 
ATOM     14  C   UNL     1       6.691   4.257  14.925  0.00  0.00    +0.000 A 
ATOM     15  C   UNL     1       5.326   3.975  14.909  0.00  0.00    +0.000 A 
ATOM     16  C   UNL     1       4.525   4.362  15.984  0.00  0.00    +0.000 A 
ENDBRANCH   8  11
ENDBRANCH   1   5
BRANCH   1  17
ATOM     17  C   UNL     1       0.878   7.525  20.884  0.00  0.00    +0.000 C 
BRANCH  17  18
ATOM     18  C   UNL     1       0.537   8.790  21.594  0.00  0.00    +0.000 A 
ATOM     19  N   UNL     1       1.002   9.230  22.744  0.00  0.00    +0.000 NA
ATOM     20  N   UNL     1       0.374  10.425  22.973  0.00  0.00    +0.000 NA
ATOM     21  C   UNL     1      -0.455  10.629  21.970  0.00  0.00    +0.000 A 
ATOM     22  N   UNL     1      -1.331  11.625  21.749  0.00  0.00    +0.000 N 
ATOM     23  O   UNL     1      -0.388   9.636  21.031  0.00  0.00    +0.000 OA
ATOM     24  H   UNL     1      -1.776  11.690  20.842  0.00  0.00    +0.000 HD
BRANCH  22  25
ATOM     25  C   UNL     1      -1.820  12.491  22.745  0.00  0.00    +0.000 A 
ATOM     26  C   UNL     1      -3.070  12.242  23.328  0.00  0.00    +0.000 A 
ATOM     27  C   UNL     1      -3.620  13.145  24.246  0.00  0.00    +0.000 A 
ATOM     28  C   UNL     1      -2.922  14.292  24.594  0.00  0.00    +0.000 A 
ATOM     29  F   UNL     1      -3.454  15.158  25.465  0.00  0.00    +0.000 F 
ATOM     30  C   UNL     1      -1.680  14.560  24.036  0.00  0.00    +0.000 A 
ATOM     31  C   UNL     1      -1.141  13.667  23.112  0.00  0.00    +0.000 A 
ENDBRANCH  22  25
ENDBRANCH  17  18
ENDBRANCH   1  17
TORSDOF 5
ENDMDL
MODEL 9
REMARK VINA RESULT:      -8.4      6.682      9.070
REMARK  Name = 
REMARK  7 active torsions:
REMARK  status: ('A' for Active; 'I' for Inactive)
REMARK    1  A    between atoms: C_1  and  C_2
REMARK    2  A    between atoms: C_3  and  N_4
REMARK    3  A    between atoms: N_4  and  C_5
REMARK    4  A    between atoms: C_5  and  C_6
REMARK    5  A    between atoms: N_10  and  C_11
REMARK    6  A    between atoms: N_21  and  C_22
REMARK    7  A    between atoms: N_28  and  C_29
REMARK                            x       y       z     vdW  Elec       q    Type
REMARK                         _______ _______ _______ _____ _____    ______ ____
ROOT
ATOM      1  N   UNL     1       1.486   6.817  20.178  0.00  0.00    +0.000 N 
ATOM      2  H   UNL     1       0.501   6.594  20.023  0.00  0.00    +0.000 HD
ENDROOT
BRANCH   1   5
ATOM      3  C   UNL     1       1.714   3.695  21.177  0.00  0.00    +0.000 C 
ATOM      4  C   UNL     1       2.449   4.471  20.130  0.00  0.00    +0.000 A 
ATOM      5  C   UNL     1       2.297   5.771  19.805  0.00  0.00    +0.000 A 
ATOM      6  C   UNL     1       3.411   6.032  18.802  0.00  0.00    +0.000 A 
ATOM      7  O   UNL     1       3.554   7.107  18.235  0.00  0.00    +0.000 OA
ATOM      8  N   UNL     1       4.120   4.841  18.673  0.00  0.00    +0.000 N 
ATOM      9  N   UNL     1       3.459   3.828  19.395  0.00  0.00    +0.000 N 
ATOM     10  C   UNL     1       4.276   2.777  20.012  0.00  0.00    +0.000 C 
BRANCH   8  11
ATOM     11  C   UNL     1       5.113   4.576  17.711  0.00  0.00    +0.000 A 
ATOM     12  C   UNL     1       4.739   4.144  16.434  0.00  0.00    +0.000 A 
ATOM     13  C   UNL     1       5.698   4.014  15.425  0.00  0.00    +0.000 A 
ATOM     14  C   UNL     1       7.040   4.268  15.700  0.00  0.00    +0.000 A 
ATOM     15  C   UNL     1       7.430   4.647  16.984  0.00  0.00    +0.000 A 
ATOM     16  C   UNL     1       6.467   4.808  17.982  0.00  0.00    +0.000 A 
ENDBRANCH   8  11
ENDBRANCH   1   5
BRANCH   1  17
ATOM     17  C   UNL     1       1.738   7.860  21.153  0.00  0.00    +0.000 C 
BRANCH  17  18
ATOM     18  C   UNL     1       0.726   8.948  21.257  0.00  0.00    +0.000 A 
ATOM     19  N   UNL     1       0.250   9.714  20.299  0.00  0.00    +0.000 NA
ATOM     20  N   UNL     1      -0.639  10.565  20.900  0.00  0.00    +0.000 NA
ATOM     21  C   UNL     1      -0.631  10.291  22.189  0.00  0.00    +0.000 A 
ATOM     22  N   UNL     1      -1.285  10.871  23.209  0.00  0.00    +0.000 N 
ATOM     23  O   UNL     1       0.201   9.247  22.492  0.00  0.00    +0.000 OA
ATOM     24  H   UNL     1      -1.269  10.423  24.117  0.00  0.00    +0.000 HD
BRANCH  22  25
ATOM     25  C   UNL     1      -1.849  12.160  23.164  0.00  0.00    +0.000 A 
ATOM     26  C   UNL     1      -1.012  13.285  23.157  0.00  0.00    +0.000 A 
ATOM     27  C   UNL     1      -1.553  14.574  23.214  0.00  0.00    +0.000 A 
ATOM     28  C   UNL     1      -2.928  14.748  23.267  0.00  0.00    +0.000 A 
ATOM     29  F   UNL     1      -3.442  15.983  23.330  0.00  0.00    +0.000 F 
ATOM     30  C   UNL     1      -3.780  13.653  23.270  0.00  0.00    +0.000 A 
ATOM     31  C   UNL     1      -3.239  12.369  23.227  0.00  0.00    +0.000 A 
ENDBRANCH  22  25
ENDBRANCH  17  18
ENDBRANCH   1  17
TORSDOF 5
ENDMDL
