MODEL 1
REMARK VINA RESULT:      -6.8      0.000      0.000
REMARK  Name = 
REMARK  3 active torsions:
REMARK  status: ('A' for Active; 'I' for Inactive)
REMARK    1  A    between atoms: C_1  and  O_2
REMARK    2  A    between atoms: O_2  and  C_3
REMARK    3  A    between atoms: N_9  and  C_10
REMARK                            x       y       z     vdW  Elec       q    Type
REMARK                         _______ _______ _______ _____ _____    ______ ____
ROOT
ATOM      1  C   UNL     1       4.063   5.363  18.394  0.00  0.00    +0.000 A 
ATOM      2  C   UNL     1       4.137   6.263  17.328  0.00  0.00    +0.000 A 
ATOM      3  C   UNL     1       3.412   7.459  17.366  0.00  0.00    +0.000 A 
ATOM      4  C   UNL     1       2.616   7.759  18.474  0.00  0.00    +0.000 A 
ATOM      5  C   UNL     1       1.878   9.024  18.562  0.00  0.00    +0.000 A 
ATOM      6  O   UNL     1       1.930   9.789  17.602  0.00  0.00    +0.000 OA
ATOM      7  N   UNL     1       1.158   9.246  19.735  0.00  0.00    +0.000 N 
ATOM      8  C   UNL     1       1.095   8.342  20.802  0.00  0.00    +0.000 A 
ATOM      9  O   UNL     1       0.581   8.578  21.895  0.00  0.00    +0.000 OA
ATOM     10  O   UNL     1       1.745   7.111  20.638  0.00  0.00    +0.000 OA
ATOM     11  C   UNL     1       2.532   6.859  19.516  0.00  0.00    +0.000 A 
ATOM     12  C   UNL     1       3.250   5.663  19.489  0.00  0.00    +0.000 A 
ENDROOT
BRANCH   7  13
ATOM     13  C   UNL     1       0.501  10.507  19.898  0.00  0.00    +0.000 A 
ATOM     14  C   UNL     1       1.149  11.573  20.537  0.00  0.00    +0.000 A 
ATOM     15  C   UNL     1       0.467  12.770  20.781  0.00  0.00    +0.000 A 
ATOM     16  C   UNL     1      -0.855  12.917  20.359  0.00  0.00    +0.000 A 
ATOM     17  I   UNL     1      -1.875  14.682  20.756  0.00  0.00    +0.000 I 
ATOM     18  C   UNL     1      -1.496  11.883  19.679  0.00  0.00    +0.000 A 
ATOM     19  C   UNL     1      -0.818  10.690  19.460  0.00  0.00    +0.000 A 
ATOM     20  F   UNL     1      -1.433   9.728  18.756  0.00  0.00    +0.000 F 
ENDBRANCH   7  13
BRANCH   1  22
ATOM     21  C   UNL     1       4.160   3.180  19.327  0.00  0.00    +0.000 C 
ATOM     22  O   UNL     1       4.731   4.173  18.484  0.00  0.00    +0.000 OA
ENDBRANCH   1  22
TORSDOF 2
ENDMDL
MODEL 2
REMARK VINA RESULT:      -6.7      0.856      2.198
REMARK  Name = 
REMARK  3 active torsions:
REMARK  status: ('A' for Active; 'I' for Inactive)
REMARK    1  A    between atoms: C_1  and  O_2
REMARK    2  A    between atoms: O_2  and  C_3
REMARK    3  A    between atoms: N_9  and  C_10
REMARK                            x       y       z     vdW  Elec       q    Type
REMARK                         _______ _______ _______ _____ _____    ______ ____
ROOT
ATOM      1  C   UNL     1       3.184   4.591  19.203  0.00  0.00    +0.000 A 
ATOM      2  C   UNL     1       2.489   4.633  20.415  0.00  0.00    +0.000 A 
ATOM      3  C   UNL     1       1.857   5.813  20.822  0.00  0.00    +0.000 A 
ATOM      4  C   UNL     1       1.914   6.951  20.015  0.00  0.00    +0.000 A 
ATOM      5  C   UNL     1       1.225   8.190  20.394  0.00  0.00    +0.000 A 
ATOM      6  O   UNL     1       0.646   8.219  21.478  0.00  0.00    +0.000 OA
ATOM      7  N   UNL     1       1.302   9.248  19.491  0.00  0.00    +0.000 N 
ATOM      8  C   UNL     1       1.994   9.196  18.274  0.00  0.00    +0.000 A 
ATOM      9  O   UNL     1       1.957  10.067  17.406  0.00  0.00    +0.000 OA
ATOM     10  O   UNL     1       2.707   8.023  17.994  0.00  0.00    +0.000 OA
ATOM     11  C   UNL     1       2.615   6.910  18.828  0.00  0.00    +0.000 A 
ATOM     12  C   UNL     1       3.251   5.740  18.412  0.00  0.00    +0.000 A 
ENDROOT
BRANCH   7  13
ATOM     13  C   UNL     1       0.566  10.441  19.781  0.00  0.00    +0.000 A 
ATOM     14  C   UNL     1       1.128  11.451  20.574  0.00  0.00    +0.000 A 
ATOM     15  C   UNL     1       0.368  12.570  20.935  0.00  0.00    +0.000 A 
ATOM     16  C   UNL     1      -0.944  12.698  20.478  0.00  0.00    +0.000 A 
ATOM     17  I   UNL     1      -2.080  14.341  21.048  0.00  0.00    +0.000 I 
ATOM     18  C   UNL     1      -1.499  11.724  19.649  0.00  0.00    +0.000 A 
ATOM     19  C   UNL     1      -0.745  10.607  19.313  0.00  0.00    +0.000 A 
ATOM     20  F   UNL     1      -1.276   9.709  18.470  0.00  0.00    +0.000 F 
ENDBRANCH   7  13
BRANCH   1  22
ATOM     21  C   UNL     1       4.195   2.479  19.608  0.00  0.00    +0.000 C 
ATOM     22  O   UNL     1       3.828   3.501  18.689  0.00  0.00    +0.000 OA
ENDBRANCH   1  22
TORSDOF 2
ENDMDL
MODEL 3
REMARK VINA RESULT:      -6.6      2.531      3.325
REMARK  Name = 
REMARK  3 active torsions:
REMARK  status: ('A' for Active; 'I' for Inactive)
REMARK    1  A    between atoms: C_1  and  O_2
REMARK    2  A    between atoms: O_2  and  C_3
REMARK    3  A    between atoms: N_9  and  C_10
REMARK                            x       y       z     vdW  Elec       q    Type
REMARK                         _______ _______ _______ _____ _____    ______ ____
ROOT
ATOM      1  C   UNL     1       2.338   7.593  18.746  0.00  0.00    +0.000 A 
ATOM      2  C   UNL     1       1.806   8.571  17.900  0.00  0.00    +0.000 A 
ATOM      3  C   UNL     1       0.999   9.587  18.421  0.00  0.00    +0.000 A 
ATOM      4  C   UNL     1       0.726   9.632  19.791  0.00  0.00    +0.000 A 
ATOM      5  C   UNL     1      -0.081  10.710  20.373  0.00  0.00    +0.000 A 
ATOM      6  O   UNL     1      -0.566  11.542  19.610  0.00  0.00    +0.000 OA
ATOM      7  N   UNL     1      -0.246  10.688  21.756  0.00  0.00    +0.000 N 
ATOM      8  C   UNL     1       0.296   9.709  22.599  0.00  0.00    +0.000 A 
ATOM      9  O   UNL     1       0.277   9.750  23.828  0.00  0.00    +0.000 OA
ATOM     10  O   UNL     1       0.987   8.653  21.990  0.00  0.00    +0.000 OA
ATOM     11  C   UNL     1       1.239   8.655  20.619  0.00  0.00    +0.000 A 
ATOM     12  C   UNL     1       2.044   7.636  20.111  0.00  0.00    +0.000 A 
ENDROOT
BRANCH   7  13
ATOM     13  C   UNL     1      -0.949  11.772  22.372  0.00  0.00    +0.000 A 
ATOM     14  C   UNL     1      -2.184  11.559  22.998  0.00  0.00    +0.000 A 
ATOM     15  C   UNL     1      -2.911  12.639  23.511  0.00  0.00    +0.000 A 
ATOM     16  C   UNL     1      -2.392  13.932  23.428  0.00  0.00    +0.000 A 
ATOM     17  I   UNL     1      -3.492  15.536  24.157  0.00  0.00    +0.000 I 
ATOM     18  C   UNL     1      -1.142  14.152  22.851  0.00  0.00    +0.000 A 
ATOM     19  C   UNL     1      -0.436  13.076  22.325  0.00  0.00    +0.000 A 
ATOM     20  F   UNL     1       0.787  13.301  21.824  0.00  0.00    +0.000 F 
ENDBRANCH   7  13
BRANCH   1  22
ATOM     21  C   UNL     1       3.552   5.653  19.383  0.00  0.00    +0.000 C 
ATOM     22  O   UNL     1       3.148   6.561  18.365  0.00  0.00    +0.000 OA
ENDBRANCH   1  22
TORSDOF 2
ENDMDL
MODEL 4
REMARK VINA RESULT:      -6.6      1.385      1.443
REMARK  Name = 
REMARK  3 active torsions:
REMARK  status: ('A' for Active; 'I' for Inactive)
REMARK    1  A    between atoms: C_1  and  O_2
REMARK    2  A    between atoms: O_2  and  C_3
REMARK    3  A    between atoms: N_9  and  C_10
REMARK                            x       y       z     vdW  Elec       q    Type
REMARK                         _______ _______ _______ _____ _____    ______ ____
ROOT
ATOM      1  C   UNL     1       2.935   5.096  19.523  0.00  0.00    +0.000 A 
ATOM      2  C   UNL     1       3.238   5.615  18.261  0.00  0.00    +0.000 A 
ATOM      3  C   UNL     1       2.860   6.920  17.929  0.00  0.00    +0.000 A 
ATOM      4  C   UNL     1       2.184   7.711  18.861  0.00  0.00    +0.000 A 
ATOM      5  C   UNL     1       1.813   9.098  18.558  0.00  0.00    +0.000 A 
ATOM      6  O   UNL     1       2.058   9.527  17.433  0.00  0.00    +0.000 OA
ATOM      7  N   UNL     1       1.189   9.814  19.578  0.00  0.00    +0.000 N 
ATOM      8  C   UNL     1       0.896   9.289  20.843  0.00  0.00    +0.000 A 
ATOM      9  O   UNL     1       0.474   9.944  21.796  0.00  0.00    +0.000 OA
ATOM     10  O   UNL     1       1.191   7.936  21.058  0.00  0.00    +0.000 OA
ATOM     11  C   UNL     1       1.872   7.188  20.099  0.00  0.00    +0.000 A 
ATOM     12  C   UNL     1       2.242   5.888  20.441  0.00  0.00    +0.000 A 
ENDROOT
BRANCH   7  13
ATOM     13  C   UNL     1       0.895  11.197  19.353  0.00  0.00    +0.000 A 
ATOM     14  C   UNL     1       1.828  12.188  19.686  0.00  0.00    +0.000 A 
ATOM     15  C   UNL     1       1.497  13.541  19.555  0.00  0.00    +0.000 A 
ATOM     16  C   UNL     1       0.244  13.908  19.063  0.00  0.00    +0.000 A 
ATOM     17  I   UNL     1      -0.257  15.918  18.906  0.00  0.00    +0.000 I 
ATOM     18  C   UNL     1      -0.676  12.932  18.682  0.00  0.00    +0.000 A 
ATOM     19  C   UNL     1      -0.347  11.590  18.835  0.00  0.00    +0.000 A 
ATOM     20  F   UNL     1      -1.223  10.667  18.413  0.00  0.00    +0.000 F 
ENDBRANCH   7  13
BRANCH   1  22
ATOM     21  C   UNL     1       2.418   3.286  20.972  0.00  0.00    +0.000 C 
ATOM     22  O   UNL     1       3.261   3.847  19.972  0.00  0.00    +0.000 OA
ENDBRANCH   1  22
TORSDOF 2
ENDMDL
MODEL 5
REMARK VINA RESULT:      -6.3      3.679      6.888
REMARK  Name = 
REMARK  3 active torsions:
REMARK  status: ('A' for Active; 'I' for Inactive)
REMARK    1  A    between atoms: C_1  and  O_2
REMARK    2  A    between atoms: O_2  and  C_3
REMARK    3  A    between atoms: N_9  and  C_10
REMARK                            x       y       z     vdW  Elec       q    Type
REMARK                         _______ _______ _______ _____ _____    ______ ____
ROOT
ATOM      1  C   UNL     1      -0.709  10.876  20.842  0.00  0.00    +0.000 A 
ATOM      2  C   UNL     1      -0.406  11.318  19.551  0.00  0.00    +0.000 A 
ATOM      3  C   UNL     1       0.493  10.599  18.755  0.00  0.00    +0.000 A 
ATOM      4  C   UNL     1       1.086   9.434  19.247  0.00  0.00    +0.000 A 
ATOM      5  C   UNL     1       1.998   8.635  18.422  0.00  0.00    +0.000 A 
ATOM      6  O   UNL     1       2.278   9.055  17.301  0.00  0.00    +0.000 OA
ATOM      7  N   UNL     1       2.492   7.463  18.992  0.00  0.00    +0.000 N 
ATOM      8  C   UNL     1       2.178   7.023  20.284  0.00  0.00    +0.000 A 
ATOM      9  O   UNL     1       2.491   5.929  20.750  0.00  0.00    +0.000 OA
ATOM     10  O   UNL     1       1.371   7.861  21.066  0.00  0.00    +0.000 OA
ATOM     11  C   UNL     1       0.797   9.012  20.528  0.00  0.00    +0.000 A 
ATOM     12  C   UNL     1      -0.096   9.721  21.332  0.00  0.00    +0.000 A 
ENDROOT
BRANCH   7  13
ATOM     13  C   UNL     1       3.311   6.610  18.185  0.00  0.00    +0.000 A 
ATOM     14  C   UNL     1       4.605   7.001  17.818  0.00  0.00    +0.000 A 
ATOM     15  C   UNL     1       5.363   6.208  16.950  0.00  0.00    +0.000 A 
ATOM     16  C   UNL     1       4.841   5.006  16.470  0.00  0.00    +0.000 A 
ATOM     17  I   UNL     1       5.955   3.850  15.151  0.00  0.00    +0.000 I 
ATOM     18  C   UNL     1       3.574   4.581  16.866  0.00  0.00    +0.000 A 
ATOM     19  C   UNL     1       2.820   5.385  17.712  0.00  0.00    +0.000 A 
ATOM     20  F   UNL     1       1.627   4.933  18.124  0.00  0.00    +0.000 F 
ENDBRANCH   7  13
BRANCH   1  22
ATOM     21  C   UNL     1      -1.396  11.201  23.092  0.00  0.00    +0.000 C 
ATOM     22  O   UNL     1      -1.577  11.478  21.709  0.00  0.00    +0.000 OA
ENDBRANCH   1  22
TORSDOF 2
ENDMDL
MODEL 6
REMARK VINA RESULT:      -6.2      3.688      7.116
REMARK  Name = 
REMARK  3 active torsions:
REMARK  status: ('A' for Active; 'I' for Inactive)
REMARK    1  A    between atoms: C_1  and  O_2
REMARK    2  A    between atoms: O_2  and  C_3
REMARK    3  A    between atoms: N_9  and  C_10
REMARK                            x       y       z     vdW  Elec       q    Type
REMARK                         _______ _______ _______ _____ _____    ______ ____
ROOT
ATOM      1  C   UNL     1      -0.614  10.500  22.114  0.00  0.00    +0.000 A 
ATOM      2  C   UNL     1      -0.160   9.398  22.844  0.00  0.00    +0.000 A 
ATOM      3  C   UNL     1       0.632   8.424  22.227  0.00  0.00    +0.000 A 
ATOM      4  C   UNL     1       0.976   8.553  20.879  0.00  0.00    +0.000 A 
ATOM      5  C   UNL     1       1.841   7.571  20.216  0.00  0.00    +0.000 A 
ATOM      6  O   UNL     1       2.205   6.592  20.864  0.00  0.00    +0.000 OA
ATOM      7  N   UNL     1       2.165   7.824  18.884  0.00  0.00    +0.000 N 
ATOM      8  C   UNL     1       1.713   8.934  18.161  0.00  0.00    +0.000 A 
ATOM      9  O   UNL     1       2.098   9.245  17.035  0.00  0.00    +0.000 OA
ATOM     10  O   UNL     1       0.821   9.799  18.810  0.00  0.00    +0.000 OA
ATOM     11  C   UNL     1       0.511   9.633  20.158  0.00  0.00    +0.000 A 
ATOM     12  C   UNL     1      -0.280  10.610  20.762  0.00  0.00    +0.000 A 
ENDROOT
BRANCH   7  13
ATOM     13  C   UNL     1       3.081   6.939  18.230  0.00  0.00    +0.000 A 
ATOM     14  C   UNL     1       4.369   7.370  17.885  0.00  0.00    +0.000 A 
ATOM     15  C   UNL     1       5.223   6.534  17.159  0.00  0.00    +0.000 A 
ATOM     16  C   UNL     1       4.804   5.251  16.802  0.00  0.00    +0.000 A 
ATOM     17  I   UNL     1       6.062   4.026  15.692  0.00  0.00    +0.000 I 
ATOM     18  C   UNL     1       3.544   4.791  17.181  0.00  0.00    +0.000 A 
ATOM     19  C   UNL     1       2.694   5.636  17.884  0.00  0.00    +0.000 A 
ATOM     20  F   UNL     1       1.508   5.157  18.286  0.00  0.00    +0.000 F 
ENDBRANCH   7  13
BRANCH   1  22
ATOM     21  C   UNL     1      -0.846  12.836  22.478  0.00  0.00    +0.000 C 
ATOM     22  O   UNL     1      -1.378  11.522  22.602  0.00  0.00    +0.000 OA
ENDBRANCH   1  22
TORSDOF 2
ENDMDL
MODEL 7
REMARK VINA RESULT:      -6.1      1.442      2.668
REMARK  Name = 
REMARK  3 active torsions:
REMARK  status: ('A' for Active; 'I' for Inactive)
REMARK    1  A    between atoms: C_1  and  O_2
REMARK    2  A    between atoms: O_2  and  C_3
REMARK    3  A    between atoms: N_9  and  C_10
REMARK                            x       y       z     vdW  Elec       q    Type
REMARK                         _______ _______ _______ _____ _____    ______ ____
ROOT
ATOM      1  C   UNL     1       4.242   4.800  18.396  0.00  0.00    +0.000 A 
ATOM      2  C   UNL     1       3.506   4.493  19.544  0.00  0.00    +0.000 A 
ATOM      3  C   UNL     1       2.635   5.439  20.094  0.00  0.00    +0.000 A 
ATOM      4  C   UNL     1       2.495   6.693  19.494  0.00  0.00    +0.000 A 
ATOM      5  C   UNL     1       1.558   7.691  20.023  0.00  0.00    +0.000 A 
ATOM      6  O   UNL     1       0.942   7.416  21.050  0.00  0.00    +0.000 OA
ATOM      7  N   UNL     1       1.458   8.888  19.317  0.00  0.00    +0.000 N 
ATOM      8  C   UNL     1       2.193   9.185  18.163  0.00  0.00    +0.000 A 
ATOM      9  O   UNL     1       2.018  10.174  17.452  0.00  0.00    +0.000 OA
ATOM     10  O   UNL     1       3.137   8.238  17.744  0.00  0.00    +0.000 OA
ATOM     11  C   UNL     1       3.237   6.997  18.372  0.00  0.00    +0.000 A 
ATOM     12  C   UNL     1       4.109   6.063  17.815  0.00  0.00    +0.000 A 
ENDROOT
BRANCH   7  13
ATOM     13  C   UNL     1       0.488   9.849  19.747  0.00  0.00    +0.000 A 
ATOM     14  C   UNL     1      -0.670  10.083  18.992  0.00  0.00    +0.000 A 
ATOM     15  C   UNL     1      -1.564  11.091  19.365  0.00  0.00    +0.000 A 
ATOM     16  C   UNL     1      -1.321  11.849  20.512  0.00  0.00    +0.000 A 
ATOM     17  I   UNL     1      -2.633  13.371  21.041  0.00  0.00    +0.000 I 
ATOM     18  C   UNL     1      -0.199  11.595  21.299  0.00  0.00    +0.000 A 
ATOM     19  C   UNL     1       0.695  10.605  20.909  0.00  0.00    +0.000 A 
ATOM     20  F   UNL     1       1.738  10.339  21.708  0.00  0.00    +0.000 F 
ENDBRANCH   7  13
BRANCH   1  22
ATOM     21  C   UNL     1       5.107   3.999  16.334  0.00  0.00    +0.000 C 
ATOM     22  O   UNL     1       5.111   3.961  17.756  0.00  0.00    +0.000 OA
ENDBRANCH   1  22
TORSDOF 2
ENDMDL
MODEL 8
REMARK VINA RESULT:      -6.0      1.930      2.365
REMARK  Name = 
REMARK  3 active torsions:
REMARK  status: ('A' for Active; 'I' for Inactive)
REMARK    1  A    between atoms: C_1  and  O_2
REMARK    2  A    between atoms: O_2  and  C_3
REMARK    3  A    between atoms: N_9  and  C_10
REMARK                            x       y       z     vdW  Elec       q    Type
REMARK                         _______ _______ _______ _____ _____    ______ ____
ROOT
ATOM      1  C   UNL     1       2.699   5.905  19.483  0.00  0.00    +0.000 A 
ATOM      2  C   UNL     1       2.962   6.457  18.226  0.00  0.00    +0.000 A 
ATOM      3  C   UNL     1       2.585   7.774  17.944  0.00  0.00    +0.000 A 
ATOM      4  C   UNL     1       1.950   8.545  18.920  0.00  0.00    +0.000 A 
ATOM      5  C   UNL     1       1.583   9.943  18.669  0.00  0.00    +0.000 A 
ATOM      6  O   UNL     1       1.793  10.401  17.548  0.00  0.00    +0.000 OA
ATOM      7  N   UNL     1       1.002  10.636  19.729  0.00  0.00    +0.000 N 
ATOM      8  C   UNL     1       0.749  10.079  20.989  0.00  0.00    +0.000 A 
ATOM      9  O   UNL     1       0.367  10.710  21.974  0.00  0.00    +0.000 OA
ATOM     10  O   UNL     1       1.038   8.718  21.156  0.00  0.00    +0.000 OA
ATOM     11  C   UNL     1       1.677   7.991  20.153  0.00  0.00    +0.000 A 
ATOM     12  C   UNL     1       2.046   6.678  20.446  0.00  0.00    +0.000 A 
ENDROOT
BRANCH   7  13
ATOM     13  C   UNL     1       0.715  12.027  19.553  0.00  0.00    +0.000 A 
ATOM     14  C   UNL     1      -0.463  12.438  18.914  0.00  0.00    +0.000 A 
ATOM     15  C   UNL     1      -0.691  13.794  18.657  0.00  0.00    +0.000 A 
ATOM     16  C   UNL     1       0.243  14.747  19.067  0.00  0.00    +0.000 A 
ATOM     17  I   UNL     1      -0.082  16.756  18.650  0.00  0.00    +0.000 I 
ATOM     18  C   UNL     1       1.395  14.357  19.747  0.00  0.00    +0.000 A 
ATOM     19  C   UNL     1       1.624  13.006  19.978  0.00  0.00    +0.000 A 
ATOM     20  F   UNL     1       2.710  12.655  20.682  0.00  0.00    +0.000 F 
ENDBRANCH   7  13
BRANCH   1  22
ATOM     21  C   UNL     1       4.134   4.029  19.236  0.00  0.00    +0.000 C 
ATOM     22  O   UNL     1       3.027   4.642  19.886  0.00  0.00    +0.000 OA
ENDBRANCH   1  22
TORSDOF 2
ENDMDL
MODEL 9
REMARK VINA RESULT:      -6.0      2.360      3.401
REMARK  Name = 
REMARK  3 active torsions:
REMARK  status: ('A' for Active; 'I' for Inactive)
REMARK    1  A    between atoms: C_1  and  O_2
REMARK    2  A    between atoms: O_2  and  C_3
REMARK    3  A    between atoms: N_9  and  C_10
REMARK                            x       y       z     vdW  Elec       q    Type
REMARK                         _______ _______ _______ _____ _____    ______ ____
ROOT
ATOM      1  C   UNL     1       2.226   7.712  19.063  0.00  0.00    +0.000 A 
ATOM      2  C   UNL     1       1.873   8.579  18.025  0.00  0.00    +0.000 A 
ATOM      3  C   UNL     1       1.057   9.686  18.281  0.00  0.00    +0.000 A 
ATOM      4  C   UNL     1       0.596   9.931  19.577  0.00  0.00    +0.000 A 
ATOM      5  C   UNL     1      -0.225  11.106  19.885  0.00  0.00    +0.000 A 
ATOM      6  O   UNL     1      -0.552  11.840  18.955  0.00  0.00    +0.000 OA
ATOM      7  N   UNL     1      -0.586  11.284  21.219  0.00  0.00    +0.000 N 
ATOM      8  C   UNL     1      -0.222  10.414  22.255  0.00  0.00    +0.000 A 
ATOM      9  O   UNL     1      -0.412  10.627  23.452  0.00  0.00    +0.000 OA
ATOM     10  O   UNL     1       0.490   9.260  21.901  0.00  0.00    +0.000 OA
ATOM     11  C   UNL     1       0.933   9.062  20.594  0.00  0.00    +0.000 A 
ATOM     12  C   UNL     1       1.745   7.955  20.351  0.00  0.00    +0.000 A 
ENDROOT
BRANCH   7  13
ATOM     13  C   UNL     1      -1.308  12.467  21.574  0.00  0.00    +0.000 A 
ATOM     14  C   UNL     1      -2.709  12.468  21.602  0.00  0.00    +0.000 A 
ATOM     15  C   UNL     1      -3.410  13.652  21.853  0.00  0.00    +0.000 A 
ATOM     16  C   UNL     1      -2.713  14.833  22.109  0.00  0.00    +0.000 A 
ATOM     17  I   UNL     1      -3.758  16.597  22.445  0.00  0.00    +0.000 I 
ATOM     18  C   UNL     1      -1.319  14.837  22.133  0.00  0.00    +0.000 A 
ATOM     19  C   UNL     1      -0.631  13.661  21.862  0.00  0.00    +0.000 A 
ATOM     20  F   UNL     1       0.707  13.672  21.943  0.00  0.00    +0.000 F 
ENDBRANCH   7  13
BRANCH   1  22
ATOM     21  C   UNL     1       2.634   5.453  19.677  0.00  0.00    +0.000 C 
ATOM     22  O   UNL     1       3.025   6.609  18.947  0.00  0.00    +0.000 OA
ENDBRANCH   1  22
TORSDOF 2
ENDMDL
