MODEL 1
REMARK VINA RESULT:      -6.5      0.000      0.000
REMARK  Name = 
REMARK  9 active torsions:
REMARK  status: ('A' for Active; 'I' for Inactive)
REMARK    1  A    between atoms: C_1  and  C_2
REMARK    2  A    between atoms: C_2  and  O_3
REMARK    3  A    between atoms: O_3  and  C_4
REMARK    4  A    between atoms: C_7  and  C_8
REMARK    5  A    between atoms: N_10  and  C_11
REMARK    6  A    between atoms: C_11  and  C_12
REMARK    7  A    between atoms: C_11  and  C_13
REMARK    8  A    between atoms: C_11  and  C_14
REMARK    9  A    between atoms: C_14  and  C_15
REMARK                            x       y       z     vdW  Elec       q    Type
REMARK                         _______ _______ _______ _____ _____    ______ ____
ROOT
ATOM      1  C   UNL     1       7.099   7.059  17.679  0.00  0.00    +0.000 A 
ATOM      2  C   UNL     1       7.533   6.207  18.691  0.00  0.00    +0.000 A 
ATOM      3  C   UNL     1       6.668   5.249  19.224  0.00  0.00    +0.000 A 
ATOM      4  C   UNL     1       5.349   5.134  18.760  0.00  0.00    +0.000 A 
ATOM      5  C   UNL     1       4.910   6.014  17.762  0.00  0.00    +0.000 A 
ATOM      6  C   UNL     1       5.780   6.981  17.234  0.00  0.00    +0.000 A 
ENDROOT
BRANCH   4   7
ATOM      7  C   UNL     1       4.508   4.052  19.356  0.00  0.00    +0.000 C 
ATOM      8  O   UNL     1       5.032   2.969  19.609  0.00  0.00    +0.000 OA
ATOM      9  N   UNL     1       3.172   4.316  19.599  0.00  0.00    +0.000 N 
ATOM     10  H   UNL     1       2.838   5.261  19.500  0.00  0.00    +0.000 HD
BRANCH   9  11
ATOM     11  C   UNL     1       2.241   3.349  20.215  0.00  0.00    +0.000 C 
ATOM     12  C   UNL     1       2.795   2.810  21.548  0.00  0.00    +0.000 C 
ATOM     13  C   UNL     1       0.876   4.022  20.462  0.00  0.00    +0.000 C 
BRANCH  11  14
ATOM     14  C   UNL     1       2.002   2.168  19.230  0.00  0.00    +0.000 C 
ATOM     15  C   UNL     1       0.647   2.160  18.528  0.00  0.00    +0.000 C 
ENDBRANCH  11  14
ENDBRANCH   9  11
ENDBRANCH   4   7
BRANCH   1  16
ATOM     16  O   UNL     1       8.042   7.931  17.216  0.00  0.00    +0.000 OA
BRANCH  16  18
ATOM     17  C   UNL     1       8.942   9.529  18.732  0.00  0.00    +0.000 C 
ATOM     18  C   UNL     1       7.912   9.288  17.642  0.00  0.00    +0.000 C 
ENDBRANCH  16  18
ENDBRANCH   1  16
TORSDOF 5
ENDMDL
MODEL 2
REMARK VINA RESULT:      -6.4      0.924      2.036
REMARK  Name = 
REMARK  9 active torsions:
REMARK  status: ('A' for Active; 'I' for Inactive)
REMARK    1  A    between atoms: C_1  and  C_2
REMARK    2  A    between atoms: C_2  and  O_3
REMARK    3  A    between atoms: O_3  and  C_4
REMARK    4  A    between atoms: C_7  and  C_8
REMARK    5  A    between atoms: N_10  and  C_11
REMARK    6  A    between atoms: C_11  and  C_12
REMARK    7  A    between atoms: C_11  and  C_13
REMARK    8  A    between atoms: C_11  and  C_14
REMARK    9  A    between atoms: C_14  and  C_15
REMARK                            x       y       z     vdW  Elec       q    Type
REMARK                         _______ _______ _______ _____ _____    ______ ____
ROOT
ATOM      1  C   UNL     1       7.441   7.444  17.808  0.00  0.00    +0.000 A 
ATOM      2  C   UNL     1       6.209   7.218  17.201  0.00  0.00    +0.000 A 
ATOM      3  C   UNL     1       5.429   6.122  17.576  0.00  0.00    +0.000 A 
ATOM      4  C   UNL     1       5.875   5.226  18.560  0.00  0.00    +0.000 A 
ATOM      5  C   UNL     1       7.129   5.443  19.146  0.00  0.00    +0.000 A 
ATOM      6  C   UNL     1       7.914   6.542  18.761  0.00  0.00    +0.000 A 
ENDROOT
BRANCH   4   7
ATOM      7  C   UNL     1       4.957   4.106  18.930  0.00  0.00    +0.000 C 
ATOM      8  O   UNL     1       5.400   3.180  19.606  0.00  0.00    +0.000 OA
ATOM      9  N   UNL     1       3.645   4.160  18.497  0.00  0.00    +0.000 N 
ATOM     10  H   UNL     1       3.309   5.007  18.067  0.00  0.00    +0.000 HD
BRANCH   9  11
ATOM     11  C   UNL     1       2.629   3.139  18.820  0.00  0.00    +0.000 C 
ATOM     12  C   UNL     1       1.237   3.552  18.305  0.00  0.00    +0.000 C 
ATOM     13  C   UNL     1       3.027   1.788  18.194  0.00  0.00    +0.000 C 
BRANCH  11  14
ATOM     14  C   UNL     1       2.578   2.935  20.362  0.00  0.00    +0.000 C 
ATOM     15  C   UNL     1       1.187   2.982  20.987  0.00  0.00    +0.000 C 
ENDBRANCH  11  14
ENDBRANCH   9  11
ENDBRANCH   4   7
BRANCH   1  16
ATOM     16  O   UNL     1       8.097   8.563  17.383  0.00  0.00    +0.000 OA
BRANCH  16  18
ATOM     17  C   UNL     1       8.705  10.797  17.929  0.00  0.00    +0.000 C 
ATOM     18  C   UNL     1       8.722   9.353  18.395  0.00  0.00    +0.000 C 
ENDBRANCH  16  18
ENDBRANCH   1  16
TORSDOF 5
ENDMDL
MODEL 3
REMARK VINA RESULT:      -6.3      2.542      3.184
REMARK  Name = 
REMARK  9 active torsions:
REMARK  status: ('A' for Active; 'I' for Inactive)
REMARK    1  A    between atoms: C_1  and  C_2
REMARK    2  A    between atoms: C_2  and  O_3
REMARK    3  A    between atoms: O_3  and  C_4
REMARK    4  A    between atoms: C_7  and  C_8
REMARK    5  A    between atoms: N_10  and  C_11
REMARK    6  A    between atoms: C_11  and  C_12
REMARK    7  A    between atoms: C_11  and  C_13
REMARK    8  A    between atoms: C_11  and  C_14
REMARK    9  A    between atoms: C_14  and  C_15
REMARK                            x       y       z     vdW  Elec       q    Type
REMARK                         _______ _______ _______ _____ _____    ______ ____
ROOT
ATOM      1  C   UNL     1       6.621   5.314  15.783  0.00  0.00    +0.000 A 
ATOM      2  C   UNL     1       5.700   4.272  15.724  0.00  0.00    +0.000 A 
ATOM      3  C   UNL     1       4.616   4.239  16.603  0.00  0.00    +0.000 A 
ATOM      4  C   UNL     1       4.441   5.244  17.566  0.00  0.00    +0.000 A 
ATOM      5  C   UNL     1       5.388   6.275  17.641  0.00  0.00    +0.000 A 
ATOM      6  C   UNL     1       6.480   6.301  16.759  0.00  0.00    +0.000 A 
ENDROOT
BRANCH   4   7
ATOM      7  C   UNL     1       3.229   5.152  18.437  0.00  0.00    +0.000 C 
ATOM      8  O   UNL     1       2.305   5.940  18.246  0.00  0.00    +0.000 OA
ATOM      9  N   UNL     1       3.198   4.182  19.421  0.00  0.00    +0.000 N 
ATOM     10  H   UNL     1       3.923   3.482  19.437  0.00  0.00    +0.000 HD
BRANCH   9  11
ATOM     11  C   UNL     1       2.051   3.962  20.324  0.00  0.00    +0.000 C 
ATOM     12  C   UNL     1       2.453   3.106  21.541  0.00  0.00    +0.000 C 
ATOM     13  C   UNL     1       1.501   5.317  20.810  0.00  0.00    +0.000 C 
BRANCH  11  14
ATOM     14  C   UNL     1       0.909   3.254  19.540  0.00  0.00    +0.000 C 
ATOM     15  C   UNL     1       1.352   2.162  18.572  0.00  0.00    +0.000 C 
ENDBRANCH  11  14
ENDBRANCH   9  11
ENDBRANCH   4   7
BRANCH   1  16
ATOM     16  O   UNL     1       7.619   5.256  14.853  0.00  0.00    +0.000 OA
BRANCH  16  18
ATOM     17  C   UNL     1       8.030   5.518  12.525  0.00  0.00    +0.000 C 
ATOM     18  C   UNL     1       7.259   4.736  13.573  0.00  0.00    +0.000 C 
ENDBRANCH  16  18
ENDBRANCH   1  16
TORSDOF 5
ENDMDL
MODEL 4
REMARK VINA RESULT:      -6.3      0.999      1.527
REMARK  Name = 
REMARK  9 active torsions:
REMARK  status: ('A' for Active; 'I' for Inactive)
REMARK    1  A    between atoms: C_1  and  C_2
REMARK    2  A    between atoms: C_2  and  O_3
REMARK    3  A    between atoms: O_3  and  C_4
REMARK    4  A    between atoms: C_7  and  C_8
REMARK    5  A    between atoms: N_10  and  C_11
REMARK    6  A    between atoms: C_11  and  C_12
REMARK    7  A    between atoms: C_11  and  C_13
REMARK    8  A    between atoms: C_11  and  C_14
REMARK    9  A    between atoms: C_14  and  C_15
REMARK                            x       y       z     vdW  Elec       q    Type
REMARK                         _______ _______ _______ _____ _____    ______ ____
ROOT
ATOM      1  C   UNL     1       6.959   6.952  17.611  0.00  0.00    +0.000 A 
ATOM      2  C   UNL     1       5.742   7.153  16.966  0.00  0.00    +0.000 A 
ATOM      3  C   UNL     1       4.621   6.402  17.325  0.00  0.00    +0.000 A 
ATOM      4  C   UNL     1       4.701   5.428  18.331  0.00  0.00    +0.000 A 
ATOM      5  C   UNL     1       5.936   5.209  18.956  0.00  0.00    +0.000 A 
ATOM      6  C   UNL     1       7.062   5.961  18.587  0.00  0.00    +0.000 A 
ENDROOT
BRANCH   4   7
ATOM      7  C   UNL     1       3.442   4.702  18.680  0.00  0.00    +0.000 C 
ATOM      8  O   UNL     1       2.513   4.712  17.874  0.00  0.00    +0.000 OA
ATOM      9  N   UNL     1       3.374   4.049  19.897  0.00  0.00    +0.000 N 
ATOM     10  H   UNL     1       4.212   3.963  20.449  0.00  0.00    +0.000 HD
BRANCH   9  11
ATOM     11  C   UNL     1       2.205   3.269  20.349  0.00  0.00    +0.000 C 
ATOM     12  C   UNL     1       2.428   2.693  21.760  0.00  0.00    +0.000 C 
ATOM     13  C   UNL     1       0.949   4.163  20.353  0.00  0.00    +0.000 C 
BRANCH  11  14
ATOM     14  C   UNL     1       1.942   2.109  19.345  0.00  0.00    +0.000 C 
ATOM     15  C   UNL     1       0.592   2.146  18.634  0.00  0.00    +0.000 C 
ENDBRANCH  11  14
ENDBRANCH   9  11
ENDBRANCH   4   7
BRANCH   1  16
ATOM     16  O   UNL     1       7.973   7.766  17.197  0.00  0.00    +0.000 OA
BRANCH  16  18
ATOM     17  C   UNL     1       8.862   9.266  18.816  0.00  0.00    +0.000 C 
ATOM     18  C   UNL     1       7.914   9.123  17.639  0.00  0.00    +0.000 C 
ENDBRANCH  16  18
ENDBRANCH   1  16
TORSDOF 5
ENDMDL
MODEL 5
REMARK VINA RESULT:      -6.3      2.563      3.180
REMARK  Name = 
REMARK  9 active torsions:
REMARK  status: ('A' for Active; 'I' for Inactive)
REMARK    1  A    between atoms: C_1  and  C_2
REMARK    2  A    between atoms: C_2  and  O_3
REMARK    3  A    between atoms: O_3  and  C_4
REMARK    4  A    between atoms: C_7  and  C_8
REMARK    5  A    between atoms: N_10  and  C_11
REMARK    6  A    between atoms: C_11  and  C_12
REMARK    7  A    between atoms: C_11  and  C_13
REMARK    8  A    between atoms: C_11  and  C_14
REMARK    9  A    between atoms: C_14  and  C_15
REMARK                            x       y       z     vdW  Elec       q    Type
REMARK                         _______ _______ _______ _____ _____    ______ ____
ROOT
ATOM      1  C   UNL     1       6.417   5.245  15.649  0.00  0.00    +0.000 A 
ATOM      2  C   UNL     1       6.060   6.327  16.449  0.00  0.00    +0.000 A 
ATOM      3  C   UNL     1       4.962   6.239  17.306  0.00  0.00    +0.000 A 
ATOM      4  C   UNL     1       4.193   5.067  17.370  0.00  0.00    +0.000 A 
ATOM      5  C   UNL     1       4.539   3.991  16.541  0.00  0.00    +0.000 A 
ATOM      6  C   UNL     1       5.640   4.087  15.675  0.00  0.00    +0.000 A 
ENDROOT
BRANCH   4   7
ATOM      7  C   UNL     1       3.062   5.045  18.347  0.00  0.00    +0.000 C 
ATOM      8  O   UNL     1       2.140   5.844  18.198  0.00  0.00    +0.000 OA
ATOM      9  N   UNL     1       3.100   4.124  19.378  0.00  0.00    +0.000 N 
ATOM     10  H   UNL     1       3.809   3.409  19.364  0.00  0.00    +0.000 HD
BRANCH   9  11
ATOM     11  C   UNL     1       2.033   3.974  20.387  0.00  0.00    +0.000 C 
ATOM     12  C   UNL     1       2.491   3.083  21.558  0.00  0.00    +0.000 C 
ATOM     13  C   UNL     1       1.626   5.360  20.927  0.00  0.00    +0.000 C 
BRANCH  11  14
ATOM     14  C   UNL     1       0.774   3.352  19.716  0.00  0.00    +0.000 C 
ATOM     15  C   UNL     1       1.045   2.216  18.735  0.00  0.00    +0.000 C 
ENDBRANCH  11  14
ENDBRANCH   9  11
ENDBRANCH   4   7
BRANCH   1  16
ATOM     16  O   UNL     1       7.526   5.438  14.878  0.00  0.00    +0.000 OA
BRANCH  16  18
ATOM     17  C   UNL     1       8.232   5.787  12.633  0.00  0.00    +0.000 C 
ATOM     18  C   UNL     1       7.502   4.849  13.577  0.00  0.00    +0.000 C 
ENDBRANCH  16  18
ENDBRANCH   1  16
TORSDOF 5
ENDMDL
MODEL 6
REMARK VINA RESULT:      -6.3      0.572      1.342
REMARK  Name = 
REMARK  9 active torsions:
REMARK  status: ('A' for Active; 'I' for Inactive)
REMARK    1  A    between atoms: C_1  and  C_2
REMARK    2  A    between atoms: C_2  and  O_3
REMARK    3  A    between atoms: O_3  and  C_4
REMARK    4  A    between atoms: C_7  and  C_8
REMARK    5  A    between atoms: N_10  and  C_11
REMARK    6  A    between atoms: C_11  and  C_12
REMARK    7  A    between atoms: C_11  and  C_13
REMARK    8  A    between atoms: C_11  and  C_14
REMARK    9  A    between atoms: C_14  and  C_15
REMARK                            x       y       z     vdW  Elec       q    Type
REMARK                         _______ _______ _______ _____ _____    ______ ____
ROOT
ATOM      1  C   UNL     1       7.140   7.039  17.812  0.00  0.00    +0.000 A 
ATOM      2  C   UNL     1       5.861   6.805  17.317  0.00  0.00    +0.000 A 
ATOM      3  C   UNL     1       5.074   5.783  17.851  0.00  0.00    +0.000 A 
ATOM      4  C   UNL     1       5.559   4.969  18.885  0.00  0.00    +0.000 A 
ATOM      5  C   UNL     1       6.859   5.190  19.360  0.00  0.00    +0.000 A 
ATOM      6  C   UNL     1       7.650   6.214  18.815  0.00  0.00    +0.000 A 
ENDROOT
BRANCH   4   7
ATOM      7  C   UNL     1       4.633   3.927  19.426  0.00  0.00    +0.000 C 
ATOM      8  O   UNL     1       5.104   2.849  19.782  0.00  0.00    +0.000 OA
ATOM      9  N   UNL     1       3.285   4.221  19.503  0.00  0.00    +0.000 N 
ATOM     10  H   UNL     1       2.983   5.166  19.326  0.00  0.00    +0.000 HD
BRANCH   9  11
ATOM     11  C   UNL     1       2.270   3.297  20.048  0.00  0.00    +0.000 C 
ATOM     12  C   UNL     1       2.688   2.760  21.430  0.00  0.00    +0.000 C 
ATOM     13  C   UNL     1       0.914   4.020  20.167  0.00  0.00    +0.000 C 
BRANCH  11  14
ATOM     14  C   UNL     1       2.075   2.110  19.061  0.00  0.00    +0.000 C 
ATOM     15  C   UNL     1       2.341   2.423  17.592  0.00  0.00    +0.000 C 
ENDBRANCH  11  14
ENDBRANCH   9  11
ENDBRANCH   4   7
BRANCH   1  16
ATOM     16  O   UNL     1       7.801   8.085  17.235  0.00  0.00    +0.000 OA
BRANCH  16  18
ATOM     17  C   UNL     1       8.165  10.372  17.777  0.00  0.00    +0.000 C 
ATOM     18  C   UNL     1       8.529   8.938  18.119  0.00  0.00    +0.000 C 
ENDBRANCH  16  18
ENDBRANCH   1  16
TORSDOF 5
ENDMDL
MODEL 7
REMARK VINA RESULT:      -6.2      1.370      2.312
REMARK  Name = 
REMARK  9 active torsions:
REMARK  status: ('A' for Active; 'I' for Inactive)
REMARK    1  A    between atoms: C_1  and  C_2
REMARK    2  A    between atoms: C_2  and  O_3
REMARK    3  A    between atoms: O_3  and  C_4
REMARK    4  A    between atoms: C_7  and  C_8
REMARK    5  A    between atoms: N_10  and  C_11
REMARK    6  A    between atoms: C_11  and  C_12
REMARK    7  A    between atoms: C_11  and  C_13
REMARK    8  A    between atoms: C_11  and  C_14
REMARK    9  A    between atoms: C_14  and  C_15
REMARK                            x       y       z     vdW  Elec       q    Type
REMARK                         _______ _______ _______ _____ _____    ______ ____
ROOT
ATOM      1  C   UNL     1       7.788   7.215  18.332  0.00  0.00    +0.000 A 
ATOM      2  C   UNL     1       6.738   7.552  17.482  0.00  0.00    +0.000 A 
ATOM      3  C   UNL     1       5.701   6.648  17.249  0.00  0.00    +0.000 A 
ATOM      4  C   UNL     1       5.701   5.383  17.856  0.00  0.00    +0.000 A 
ATOM      5  C   UNL     1       6.775   5.037  18.687  0.00  0.00    +0.000 A 
ATOM      6  C   UNL     1       7.820   5.947  18.913  0.00  0.00    +0.000 A 
ENDROOT
BRANCH   4   7
ATOM      7  C   UNL     1       4.529   4.495  17.584  0.00  0.00    +0.000 C 
ATOM      8  O   UNL     1       4.340   4.105  16.434  0.00  0.00    +0.000 OA
ATOM      9  N   UNL     1       3.707   4.149  18.640  0.00  0.00    +0.000 N 
ATOM     10  H   UNL     1       3.993   4.386  19.577  0.00  0.00    +0.000 HD
BRANCH   9  11
ATOM     11  C   UNL     1       2.539   3.255  18.516  0.00  0.00    +0.000 C 
ATOM     12  C   UNL     1       1.413   3.914  17.696  0.00  0.00    +0.000 C 
ATOM     13  C   UNL     1       2.961   1.936  17.838  0.00  0.00    +0.000 C 
BRANCH  11  14
ATOM     14  C   UNL     1       2.013   2.895  19.936  0.00  0.00    +0.000 C 
ATOM     15  C   UNL     1       1.041   3.898  20.551  0.00  0.00    +0.000 C 
ENDBRANCH  11  14
ENDBRANCH   9  11
ENDBRANCH   4   7
BRANCH   1  16
ATOM     16  O   UNL     1       8.726   8.191  18.508  0.00  0.00    +0.000 OA
BRANCH  16  18
ATOM     17  C   UNL     1       9.277  10.489  18.777  0.00  0.00    +0.000 C 
ATOM     18  C   UNL     1       8.360   9.503  18.077  0.00  0.00    +0.000 C 
ENDBRANCH  16  18
ENDBRANCH   1  16
TORSDOF 5
ENDMDL
MODEL 8
REMARK VINA RESULT:      -6.1      2.487      3.014
REMARK  Name = 
REMARK  9 active torsions:
REMARK  status: ('A' for Active; 'I' for Inactive)
REMARK    1  A    between atoms: C_1  and  C_2
REMARK    2  A    between atoms: C_2  and  O_3
REMARK    3  A    between atoms: O_3  and  C_4
REMARK    4  A    between atoms: C_7  and  C_8
REMARK    5  A    between atoms: N_10  and  C_11
REMARK    6  A    between atoms: C_11  and  C_12
REMARK    7  A    between atoms: C_11  and  C_13
REMARK    8  A    between atoms: C_11  and  C_14
REMARK    9  A    between atoms: C_14  and  C_15
REMARK                            x       y       z     vdW  Elec       q    Type
REMARK                         _______ _______ _______ _____ _____    ______ ____
ROOT
ATOM      1  C   UNL     1       6.720   4.873  15.561  0.00  0.00    +0.000 A 
ATOM      2  C   UNL     1       7.220   5.049  16.849  0.00  0.00    +0.000 A 
ATOM      3  C   UNL     1       6.451   4.695  17.959  0.00  0.00    +0.000 A 
ATOM      4  C   UNL     1       5.161   4.167  17.800  0.00  0.00    +0.000 A 
ATOM      5  C   UNL     1       4.651   4.019  16.502  0.00  0.00    +0.000 A 
ATOM      6  C   UNL     1       5.425   4.383  15.389  0.00  0.00    +0.000 A 
ENDROOT
BRANCH   4   7
ATOM      7  C   UNL     1       4.426   3.775  19.041  0.00  0.00    +0.000 C 
ATOM      8  O   UNL     1       5.059   3.267  19.965  0.00  0.00    +0.000 OA
ATOM      9  N   UNL     1       3.063   4.000  19.098  0.00  0.00    +0.000 N 
ATOM     10  H   UNL     1       2.630   4.543  18.368  0.00  0.00    +0.000 HD
BRANCH   9  11
ATOM     11  C   UNL     1       2.226   3.692  20.275  0.00  0.00    +0.000 C 
ATOM     12  C   UNL     1       2.803   2.510  21.077  0.00  0.00    +0.000 C 
ATOM     13  C   UNL     1       2.129   4.932  21.186  0.00  0.00    +0.000 C 
BRANCH  11  14
ATOM     14  C   UNL     1       0.783   3.352  19.803  0.00  0.00    +0.000 C 
ATOM     15  C   UNL     1       0.671   2.217  18.791  0.00  0.00    +0.000 C 
ENDBRANCH  11  14
ENDBRANCH   9  11
ENDBRANCH   4   7
BRANCH   1  16
ATOM     16  O   UNL     1       7.574   5.224  14.557  0.00  0.00    +0.000 OA
BRANCH  16  18
ATOM     17  C   UNL     1       7.993   5.621  12.249  0.00  0.00    +0.000 C 
ATOM     18  C   UNL     1       7.233   4.767  13.248  0.00  0.00    +0.000 C 
ENDBRANCH  16  18
ENDBRANCH   1  16
TORSDOF 5
ENDMDL
MODEL 9
REMARK VINA RESULT:      -6.1      2.937      3.840
REMARK  Name = 
REMARK  9 active torsions:
REMARK  status: ('A' for Active; 'I' for Inactive)
REMARK    1  A    between atoms: C_1  and  C_2
REMARK    2  A    between atoms: C_2  and  O_3
REMARK    3  A    between atoms: O_3  and  C_4
REMARK    4  A    between atoms: C_7  and  C_8
REMARK    5  A    between atoms: N_10  and  C_11
REMARK    6  A    between atoms: C_11  and  C_12
REMARK    7  A    between atoms: C_11  and  C_13
REMARK    8  A    between atoms: C_11  and  C_14
REMARK    9  A    between atoms: C_14  and  C_15
REMARK                            x       y       z     vdW  Elec       q    Type
REMARK                         _______ _______ _______ _____ _____    ______ ____
ROOT
ATOM      1  C   UNL     1       5.898   4.801  15.028  0.00  0.00    +0.000 A 
ATOM      2  C   UNL     1       5.523   3.661  15.732  0.00  0.00    +0.000 A 
ATOM      3  C   UNL     1       4.639   3.756  16.808  0.00  0.00    +0.000 A 
ATOM      4  C   UNL     1       4.122   4.998  17.206  0.00  0.00    +0.000 A 
ATOM      5  C   UNL     1       4.526   6.146  16.512  0.00  0.00    +0.000 A 
ATOM      6  C   UNL     1       5.421   6.047  15.434  0.00  0.00    +0.000 A 
ENDROOT
BRANCH   4   7
ATOM      7  C   UNL     1       3.149   5.001  18.340  0.00  0.00    +0.000 C 
ATOM      8  O   UNL     1       2.376   5.951  18.451  0.00  0.00    +0.000 OA
ATOM      9  N   UNL     1       3.158   3.933  19.219  0.00  0.00    +0.000 N 
ATOM     10  H   UNL     1       3.717   3.126  18.996  0.00  0.00    +0.000 HD
BRANCH   9  11
ATOM     11  C   UNL     1       2.229   3.797  20.358  0.00  0.00    +0.000 C 
ATOM     12  C   UNL     1       2.709   2.715  21.345  0.00  0.00    +0.000 C 
ATOM     13  C   UNL     1       2.103   5.145  21.095  0.00  0.00    +0.000 C 
BRANCH  11  14
ATOM     14  C   UNL     1       0.814   3.429  19.825  0.00  0.00    +0.000 C 
ATOM     15  C   UNL     1       0.765   2.278  18.825  0.00  0.00    +0.000 C 
ENDBRANCH  11  14
ENDBRANCH   9  11
ENDBRANCH   4   7
BRANCH   1  16
ATOM     16  O   UNL     1       6.740   4.580  13.976  0.00  0.00    +0.000 OA
BRANCH  16  18
ATOM     17  C   UNL     1       5.194   3.798  12.346  0.00  0.00    +0.000 C 
ATOM     18  C   UNL     1       6.436   3.456  13.149  0.00  0.00    +0.000 C 
ENDBRANCH  16  18
ENDBRANCH   1  16
TORSDOF 5
ENDMDL
