MODEL 1
REMARK VINA RESULT:      -9.2      0.000      0.000
REMARK  Name = 
REMARK  6 active torsions:
REMARK  status: ('A' for Active; 'I' for Inactive)
REMARK    1  A    between atoms: C_1  and  O_2
REMARK    2  A    between atoms: O_2  and  C_3
REMARK    3  A    between atoms: C_9  and  C_10
REMARK    4  A    between atoms: C_12  and  C_13
REMARK    5  A    between atoms: N_18  and  C_19
REMARK    6  A    between atoms: C_19  and  C_20
REMARK                            x       y       z     vdW  Elec       q    Type
REMARK                         _______ _______ _______ _____ _____    ______ ____
ROOT
ATOM      1  C   UNL     1       2.573   6.484  19.518  0.00  0.00    +0.000 A 
ATOM      2  C   UNL     1       2.079   5.442  20.340  0.00  0.00    +0.000 A 
ATOM      3  C   UNL     1       2.702   4.190  20.405  0.00  0.00    +0.000 A 
ATOM      4  C   UNL     1       2.151   3.089  21.262  0.00  0.00    +0.000 C 
ATOM      5  C   UNL     1       3.860   3.983  19.660  0.00  0.00    +0.000 A 
ATOM      6  C   UNL     1       4.368   5.010  18.853  0.00  0.00    +0.000 A 
ATOM      7  C   UNL     1       5.621   4.798  18.099  0.00  0.00    +0.000 A 
ATOM      8  O   UNL     1       6.311   3.808  18.332  0.00  0.00    +0.000 OA
ATOM      9  N   UNL     1       5.948   5.776  17.175  0.00  0.00    +0.000 N 
ATOM     10  C   UNL     1       5.253   6.954  17.138  0.00  0.00    +0.000 A 
ATOM     11  N   UNL     1       4.238   7.239  17.875  0.00  0.00    +0.000 NA
ATOM     12  C   UNL     1       3.728   6.252  18.743  0.00  0.00    +0.000 A 
ENDROOT
BRANCH   1  19
ATOM     13  C   UNL     1      -0.425  11.947  19.774  0.00  0.00    +0.000 A 
ATOM     14  C   UNL     1      -0.517  11.498  21.087  0.00  0.00    +0.000 A 
ATOM     15  C   UNL     1       0.047  10.271  21.434  0.00  0.00    +0.000 A 
ATOM     16 CL   UNL     1      -0.038   9.672  23.034  0.00  0.00    +0.000 Cl
ATOM     17  C   UNL     1       0.712   9.459  20.494  0.00  0.00    +0.000 A 
ATOM     18  N   UNL     1       1.311   8.224  20.697  0.00  0.00    +0.000 NA
ATOM     19  C   UNL     1       1.864   7.777  19.587  0.00  0.00    +0.000 A 
ATOM     20  S   UNL     1       1.596   8.771  18.210  0.00  0.00    +0.000 S 
ATOM     21  C   UNL     1       0.782   9.930  19.182  0.00  0.00    +0.000 A 
ATOM     22  C   UNL     1       0.230  11.171  18.808  0.00  0.00    +0.000 A 
BRANCH  13  24
ATOM     23  C   UNL     1      -0.046  13.957  18.562  0.00  0.00    +0.000 C 
ATOM     24  O   UNL     1      -0.935  13.127  19.301  0.00  0.00    +0.000 OA
ENDBRANCH  13  24
ENDBRANCH   1  19
BRANCH   9  25
ATOM     25  C   UNL     1       7.088   5.565  16.290  0.00  0.00    +0.000 C 
BRANCH  25  26
ATOM     26  C   UNL     1       6.653   4.977  14.964  0.00  0.00    +0.000 A 
ATOM     27  C   UNL     1       5.444   4.277  14.846  0.00  0.00    +0.000 A 
ATOM     28  C   UNL     1       5.111   3.638  13.649  0.00  0.00    +0.000 A 
ATOM     29  C   UNL     1       5.979   3.695  12.558  0.00  0.00    +0.000 A 
ATOM     30  C   UNL     1       7.166   4.417  12.652  0.00  0.00    +0.000 A 
ATOM     31  C   UNL     1       7.498   5.057  13.847  0.00  0.00    +0.000 A 
ENDBRANCH  25  26
ENDBRANCH   9  25
TORSDOF 4
ENDMDL
MODEL 2
REMARK VINA RESULT:      -8.5      3.455      5.677
REMARK  Name = 
REMARK  6 active torsions:
REMARK  status: ('A' for Active; 'I' for Inactive)
REMARK    1  A    between atoms: C_1  and  O_2
REMARK    2  A    between atoms: O_2  and  C_3
REMARK    3  A    between atoms: C_9  and  C_10
REMARK    4  A    between atoms: C_12  and  C_13
REMARK    5  A    between atoms: N_18  and  C_19
REMARK    6  A    between atoms: C_19  and  C_20
REMARK                            x       y       z     vdW  Elec       q    Type
REMARK                         _______ _______ _______ _____ _____    ______ ____
ROOT
ATOM      1  C   UNL     1       0.894  11.390  20.170  0.00  0.00    +0.000 A 
ATOM      2  C   UNL     1       0.177  11.334  21.390  0.00  0.00    +0.000 A 
ATOM      3  C   UNL     1      -0.071  10.124  22.049  0.00  0.00    +0.000 A 
ATOM      4  C   UNL     1      -0.855  10.080  23.328  0.00  0.00    +0.000 C 
ATOM      5  C   UNL     1       0.435   8.950  21.499  0.00  0.00    +0.000 A 
ATOM      6  C   UNL     1       1.160   8.992  20.299  0.00  0.00    +0.000 A 
ATOM      7  C   UNL     1       1.730   7.748  19.744  0.00  0.00    +0.000 A 
ATOM      8  O   UNL     1       1.740   6.725  20.426  0.00  0.00    +0.000 OA
ATOM      9  N   UNL     1       2.253   7.837  18.465  0.00  0.00    +0.000 N 
ATOM     10  C   UNL     1       2.413   9.056  17.864  0.00  0.00    +0.000 A 
ATOM     11  N   UNL     1       2.056  10.183  18.371  0.00  0.00    +0.000 NA
ATOM     12  C   UNL     1       1.375  10.191  19.605  0.00  0.00    +0.000 A 
ENDROOT
BRANCH   1  19
ATOM     13  C   UNL     1       1.918  17.073  17.814  0.00  0.00    +0.000 A 
ATOM     14  C   UNL     1       3.161  16.465  17.668  0.00  0.00    +0.000 A 
ATOM     15  C   UNL     1       3.336  15.150  18.098  0.00  0.00    +0.000 A 
ATOM     16 CL   UNL     1       4.843  14.355  17.943  0.00  0.00    +0.000 Cl
ATOM     17  C   UNL     1       2.291  14.408  18.683  0.00  0.00    +0.000 A 
ATOM     18  N   UNL     1       2.325  13.103  19.156  0.00  0.00    +0.000 NA
ATOM     19  C   UNL     1       1.144  12.732  19.608  0.00  0.00    +0.000 A 
ATOM     20  S   UNL     1      -0.046  13.973  19.588  0.00  0.00    +0.000 S 
ATOM     21  C   UNL     1       1.058  15.045  18.825  0.00  0.00    +0.000 A 
ATOM     22  C   UNL     1       0.852  16.369  18.389  0.00  0.00    +0.000 A 
BRANCH  13  24
ATOM     23  C   UNL     1       0.767  18.502  16.302  0.00  0.00    +0.000 C 
ATOM     24  O   UNL     1       1.613  18.354  17.437  0.00  0.00    +0.000 OA
ENDBRANCH  13  24
ENDBRANCH   1  19
BRANCH   9  25
ATOM     25  C   UNL     1       2.699   6.621  17.793  0.00  0.00    +0.000 C 
BRANCH  25  26
ATOM     26  C   UNL     1       4.182   6.393  17.995  0.00  0.00    +0.000 A 
ATOM     27  C   UNL     1       5.124   6.930  17.106  0.00  0.00    +0.000 A 
ATOM     28  C   UNL     1       6.478   6.613  17.234  0.00  0.00    +0.000 A 
ATOM     29  C   UNL     1       6.906   5.763  18.254  0.00  0.00    +0.000 A 
ATOM     30  C   UNL     1       5.985   5.251  19.164  0.00  0.00    +0.000 A 
ATOM     31  C   UNL     1       4.632   5.568  19.038  0.00  0.00    +0.000 A 
ENDBRANCH  25  26
ENDBRANCH   9  25
TORSDOF 4
ENDMDL
MODEL 3
REMARK VINA RESULT:      -8.3      0.626      1.068
REMARK  Name = 
REMARK  6 active torsions:
REMARK  status: ('A' for Active; 'I' for Inactive)
REMARK    1  A    between atoms: C_1  and  O_2
REMARK    2  A    between atoms: O_2  and  C_3
REMARK    3  A    between atoms: C_9  and  C_10
REMARK    4  A    between atoms: C_12  and  C_13
REMARK    5  A    between atoms: N_18  and  C_19
REMARK    6  A    between atoms: C_19  and  C_20
REMARK                            x       y       z     vdW  Elec       q    Type
REMARK                         _______ _______ _______ _____ _____    ______ ____
ROOT
ATOM      1  C   UNL     1       2.672   6.433  19.135  0.00  0.00    +0.000 A 
ATOM      2  C   UNL     1       2.121   5.338  19.845  0.00  0.00    +0.000 A 
ATOM      3  C   UNL     1       2.672   4.054  19.769  0.00  0.00    +0.000 A 
ATOM      4  C   UNL     1       2.060   2.899  20.507  0.00  0.00    +0.000 C 
ATOM      5  C   UNL     1       3.815   3.863  18.998  0.00  0.00    +0.000 A 
ATOM      6  C   UNL     1       4.379   4.941  18.301  0.00  0.00    +0.000 A 
ATOM      7  C   UNL     1       5.616   4.741  17.519  0.00  0.00    +0.000 A 
ATOM      8  O   UNL     1       6.250   3.694  17.639  0.00  0.00    +0.000 OA
ATOM      9  N   UNL     1       5.997   5.793  16.704  0.00  0.00    +0.000 N 
ATOM     10  C   UNL     1       5.370   7.005  16.798  0.00  0.00    +0.000 A 
ATOM     11  N   UNL     1       4.374   7.265  17.570  0.00  0.00    +0.000 NA
ATOM     12  C   UNL     1       3.811   6.222  18.331  0.00  0.00    +0.000 A 
ENDROOT
BRANCH   1  19
ATOM     13  C   UNL     1      -0.011  11.996  20.001  0.00  0.00    +0.000 A 
ATOM     14  C   UNL     1      -0.075  11.436  21.273  0.00  0.00    +0.000 A 
ATOM     15  C   UNL     1       0.434  10.156  21.486  0.00  0.00    +0.000 A 
ATOM     16 CL   UNL     1       0.379   9.420  23.030  0.00  0.00    +0.000 Cl
ATOM     17  C   UNL     1       1.016   9.399  20.449  0.00  0.00    +0.000 A 
ATOM     18  N   UNL     1       1.554   8.122  20.517  0.00  0.00    +0.000 NA
ATOM     19  C   UNL     1       2.038   7.749  19.349  0.00  0.00    +0.000 A 
ATOM     20  S   UNL     1       1.771   8.875  18.078  0.00  0.00    +0.000 S 
ATOM     21  C   UNL     1       1.060   9.982  19.182  0.00  0.00    +0.000 A 
ATOM     22  C   UNL     1       0.562  11.278  18.943  0.00  0.00    +0.000 A 
BRANCH  13  24
ATOM     23  C   UNL     1      -1.832  13.524  19.974  0.00  0.00    +0.000 C 
ATOM     24  O   UNL     1      -0.474  13.238  19.657  0.00  0.00    +0.000 OA
ENDBRANCH  13  24
ENDBRANCH   1  19
BRANCH   9  25
ATOM     25  C   UNL     1       7.121   5.614  15.791  0.00  0.00    +0.000 C 
BRANCH  25  26
ATOM     26  C   UNL     1       6.708   4.848  14.552  0.00  0.00    +0.000 A 
ATOM     27  C   UNL     1       7.524   4.825  13.412  0.00  0.00    +0.000 A 
ATOM     28  C   UNL     1       7.079   4.216  12.237  0.00  0.00    +0.000 A 
ATOM     29  C   UNL     1       5.819   3.620  12.190  0.00  0.00    +0.000 A 
ATOM     30  C   UNL     1       5.014   3.605  13.325  0.00  0.00    +0.000 A 
ATOM     31  C   UNL     1       5.458   4.212  14.501  0.00  0.00    +0.000 A 
ENDBRANCH  25  26
ENDBRANCH   9  25
TORSDOF 4
ENDMDL
MODEL 4
REMARK VINA RESULT:      -8.2      1.243      1.339
REMARK  Name = 
REMARK  6 active torsions:
REMARK  status: ('A' for Active; 'I' for Inactive)
REMARK    1  A    between atoms: C_1  and  O_2
REMARK    2  A    between atoms: O_2  and  C_3
REMARK    3  A    between atoms: C_9  and  C_10
REMARK    4  A    between atoms: C_12  and  C_13
REMARK    5  A    between atoms: N_18  and  C_19
REMARK    6  A    between atoms: C_19  and  C_20
REMARK                            x       y       z     vdW  Elec       q    Type
REMARK                         _______ _______ _______ _____ _____    ______ ____
ROOT
ATOM      1  C   UNL     1       2.566   6.143  18.426  0.00  0.00    +0.000 A 
ATOM      2  C   UNL     1       1.862   5.072  19.028  0.00  0.00    +0.000 A 
ATOM      3  C   UNL     1       2.220   3.736  18.816  0.00  0.00    +0.000 A 
ATOM      4  C   UNL     1       1.446   2.612  19.441  0.00  0.00    +0.000 C 
ATOM      5  C   UNL     1       3.325   3.462  18.014  0.00  0.00    +0.000 A 
ATOM      6  C   UNL     1       4.041   4.513  17.423  0.00  0.00    +0.000 A 
ATOM      7  C   UNL     1       5.237   4.217  16.608  0.00  0.00    +0.000 A 
ATOM      8  O   UNL     1       5.712   3.083  16.614  0.00  0.00    +0.000 OA
ATOM      9  N   UNL     1       5.767   5.280  15.899  0.00  0.00    +0.000 N 
ATOM     10  C   UNL     1       5.323   6.554  16.124  0.00  0.00    +0.000 A 
ATOM     11  N   UNL     1       4.374   6.876  16.931  0.00  0.00    +0.000 NA
ATOM     12  C   UNL     1       3.664   5.852  17.590  0.00  0.00    +0.000 A 
ENDROOT
BRANCH   1  19
ATOM     13  C   UNL     1       0.717  11.917  19.886  0.00  0.00    +0.000 A 
ATOM     14  C   UNL     1       0.593  11.252  21.102  0.00  0.00    +0.000 A 
ATOM     15  C   UNL     1       0.918   9.898  21.179  0.00  0.00    +0.000 A 
ATOM     16 CL   UNL     1       0.784   9.032  22.648  0.00  0.00    +0.000 Cl
ATOM     17  C   UNL     1       1.370   9.171  20.060  0.00  0.00    +0.000 A 
ATOM     18  N   UNL     1       1.722   7.830  19.991  0.00  0.00    +0.000 NA
ATOM     19  C   UNL     1       2.129   7.508  18.780  0.00  0.00    +0.000 A 
ATOM     20  S   UNL     1       2.005   8.778  17.628  0.00  0.00    +0.000 S 
ATOM     21  C   UNL     1       1.477   9.862  18.851  0.00  0.00    +0.000 A 
ATOM     22  C   UNL     1       1.164  11.231  18.749  0.00  0.00    +0.000 A 
BRANCH  13  24
ATOM     23  C   UNL     1      -0.439  13.538  18.586  0.00  0.00    +0.000 C 
ATOM     24  O   UNL     1       0.429  13.239  19.673  0.00  0.00    +0.000 OA
ENDBRANCH  13  24
ENDBRANCH   1  19
BRANCH   9  25
ATOM     25  C   UNL     1       6.855   5.036  14.958  0.00  0.00    +0.000 C 
BRANCH  25  26
ATOM     26  C   UNL     1       6.358   4.335  13.711  0.00  0.00    +0.000 A 
ATOM     27  C   UNL     1       4.986   4.162  13.478  0.00  0.00    +0.000 A 
ATOM     28  C   UNL     1       4.544   3.411  12.386  0.00  0.00    +0.000 A 
ATOM     29  C   UNL     1       5.465   2.831  11.515  0.00  0.00    +0.000 A 
ATOM     30  C   UNL     1       6.829   3.024  11.716  0.00  0.00    +0.000 A 
ATOM     31  C   UNL     1       7.272   3.776  12.805  0.00  0.00    +0.000 A 
ENDBRANCH  25  26
ENDBRANCH   9  25
TORSDOF 4
ENDMDL
MODEL 5
REMARK VINA RESULT:      -8.1      3.878     10.202
REMARK  Name = 
REMARK  6 active torsions:
REMARK  status: ('A' for Active; 'I' for Inactive)
REMARK    1  A    between atoms: C_1  and  O_2
REMARK    2  A    between atoms: O_2  and  C_3
REMARK    3  A    between atoms: C_9  and  C_10
REMARK    4  A    between atoms: C_12  and  C_13
REMARK    5  A    between atoms: N_18  and  C_19
REMARK    6  A    between atoms: C_19  and  C_20
REMARK                            x       y       z     vdW  Elec       q    Type
REMARK                         _______ _______ _______ _____ _____    ______ ____
ROOT
ATOM      1  C   UNL     1       0.099  10.931  19.551  0.00  0.00    +0.000 A 
ATOM      2  C   UNL     1       0.661  11.891  20.427  0.00  0.00    +0.000 A 
ATOM      3  C   UNL     1      -0.086  12.963  20.929  0.00  0.00    +0.000 A 
ATOM      4  C   UNL     1       0.533  13.987  21.836  0.00  0.00    +0.000 C 
ATOM      5  C   UNL     1      -1.429  13.062  20.579  0.00  0.00    +0.000 A 
ATOM      6  C   UNL     1      -2.003  12.110  19.723  0.00  0.00    +0.000 A 
ATOM      7  C   UNL     1      -3.439  12.196  19.389  0.00  0.00    +0.000 A 
ATOM      8  O   UNL     1      -4.163  12.973  20.010  0.00  0.00    +0.000 OA
ATOM      9  N   UNL     1      -3.883  11.349  18.389  0.00  0.00    +0.000 N 
ATOM     10  C   UNL     1      -3.071  10.358  17.910  0.00  0.00    +0.000 A 
ATOM     11  N   UNL     1      -1.853  10.157  18.274  0.00  0.00    +0.000 NA
ATOM     12  C   UNL     1      -1.255  11.059  19.177  0.00  0.00    +0.000 A 
ENDROOT
BRANCH   1  19
ATOM     13  C   UNL     1       3.808   6.231  17.804  0.00  0.00    +0.000 A 
ATOM     14  C   UNL     1       3.235   5.736  18.971  0.00  0.00    +0.000 A 
ATOM     15  C   UNL     1       2.326   6.524  19.677  0.00  0.00    +0.000 A 
ATOM     16 CL   UNL     1       1.593   5.965  21.118  0.00  0.00    +0.000 Cl
ATOM     17  C   UNL     1       1.965   7.817  19.249  0.00  0.00    +0.000 A 
ATOM     18  N   UNL     1       1.085   8.706  19.849  0.00  0.00    +0.000 NA
ATOM     19  C   UNL     1       0.973   9.813  19.143  0.00  0.00    +0.000 A 
ATOM     20  S   UNL     1       2.007   9.888  17.772  0.00  0.00    +0.000 S 
ATOM     21  C   UNL     1       2.562   8.292  18.079  0.00  0.00    +0.000 A 
ATOM     22  C   UNL     1       3.474   7.512  17.342  0.00  0.00    +0.000 A 
BRANCH  13  24
ATOM     23  C   UNL     1       5.254   6.283  15.917  0.00  0.00    +0.000 C 
ATOM     24  O   UNL     1       4.712   5.565  17.020  0.00  0.00    +0.000 OA
ENDBRANCH  13  24
ENDBRANCH   1  19
BRANCH   9  25
ATOM     25  C   UNL     1      -5.251  11.479  17.902  0.00  0.00    +0.000 C 
BRANCH  25  26
ATOM     26  C   UNL     1      -6.241  10.863  18.869  0.00  0.00    +0.000 A 
ATOM     27  C   UNL     1      -6.981  11.663  19.752  0.00  0.00    +0.000 A 
ATOM     28  C   UNL     1      -7.801  11.075  20.718  0.00  0.00    +0.000 A 
ATOM     29  C   UNL     1      -7.893   9.687  20.810  0.00  0.00    +0.000 A 
ATOM     30  C   UNL     1      -7.191   8.883  19.916  0.00  0.00    +0.000 A 
ATOM     31  C   UNL     1      -6.373   9.469  18.949  0.00  0.00    +0.000 A 
ENDBRANCH  25  26
ENDBRANCH   9  25
TORSDOF 4
ENDMDL
MODEL 6
REMARK VINA RESULT:      -7.9      1.466      1.712
REMARK  Name = 
REMARK  6 active torsions:
REMARK  status: ('A' for Active; 'I' for Inactive)
REMARK    1  A    between atoms: C_1  and  O_2
REMARK    2  A    between atoms: O_2  and  C_3
REMARK    3  A    between atoms: C_9  and  C_10
REMARK    4  A    between atoms: C_12  and  C_13
REMARK    5  A    between atoms: N_18  and  C_19
REMARK    6  A    between atoms: C_19  and  C_20
REMARK                            x       y       z     vdW  Elec       q    Type
REMARK                         _______ _______ _______ _____ _____    ______ ____
ROOT
ATOM      1  C   UNL     1       2.352   6.459  19.825  0.00  0.00    +0.000 A 
ATOM      2  C   UNL     1       1.820   5.400  20.600  0.00  0.00    +0.000 A 
ATOM      3  C   UNL     1       2.419   4.135  20.638  0.00  0.00    +0.000 A 
ATOM      4  C   UNL     1       1.827   3.016  21.444  0.00  0.00    +0.000 C 
ATOM      5  C   UNL     1       3.591   3.931  19.916  0.00  0.00    +0.000 A 
ATOM      6  C   UNL     1       4.138   4.975  19.155  0.00  0.00    +0.000 A 
ATOM      7  C   UNL     1       5.404   4.765  18.426  0.00  0.00    +0.000 A 
ATOM      8  O   UNL     1       6.072   3.755  18.643  0.00  0.00    +0.000 OA
ATOM      9  N   UNL     1       5.772   5.766  17.544  0.00  0.00    +0.000 N 
ATOM     10  C   UNL     1       5.099   6.958  17.528  0.00  0.00    +0.000 A 
ATOM     11  N   UNL     1       4.071   7.237  18.250  0.00  0.00    +0.000 NA
ATOM     12  C   UNL     1       3.522   6.232  19.072  0.00  0.00    +0.000 A 
ENDROOT
BRANCH   1  19
ATOM     13  C   UNL     1      -0.567  11.953  20.264  0.00  0.00    +0.000 A 
ATOM     14  C   UNL     1       0.356  12.189  19.250  0.00  0.00    +0.000 A 
ATOM     15  C   UNL     1       1.222  11.169  18.859  0.00  0.00    +0.000 A 
ATOM     16 CL   UNL     1       2.377  11.406  17.619  0.00  0.00    +0.000 Cl
ATOM     17  C   UNL     1       1.198   9.895  19.459  0.00  0.00    +0.000 A 
ATOM     18  N   UNL     1       1.997   8.796  19.175  0.00  0.00    +0.000 NA
ATOM     19  C   UNL     1       1.665   7.762  19.921  0.00  0.00    +0.000 A 
ATOM     20  S   UNL     1       0.442   8.090  21.084  0.00  0.00    +0.000 S 
ATOM     21  C   UNL     1       0.268   9.688  20.479  0.00  0.00    +0.000 A 
ATOM     22  C   UNL     1      -0.625  10.698  20.886  0.00  0.00    +0.000 A 
BRANCH  13  24
ATOM     23  C   UNL     1      -2.792  12.789  20.224  0.00  0.00    +0.000 C 
ATOM     24  O   UNL     1      -1.469  12.865  20.743  0.00  0.00    +0.000 OA
ENDBRANCH  13  24
ENDBRANCH   1  19
BRANCH   9  25
ATOM     25  C   UNL     1       6.929   5.564  16.680  0.00  0.00    +0.000 C 
BRANCH  25  26
ATOM     26  C   UNL     1       6.520   5.004  15.333  0.00  0.00    +0.000 A 
ATOM     27  C   UNL     1       5.318   4.298  15.179  0.00  0.00    +0.000 A 
ATOM     28  C   UNL     1       5.010   3.685  13.963  0.00  0.00    +0.000 A 
ATOM     29  C   UNL     1       5.894   3.776  12.887  0.00  0.00    +0.000 A 
ATOM     30  C   UNL     1       7.073   4.504  13.017  0.00  0.00    +0.000 A 
ATOM     31  C   UNL     1       7.382   5.118  14.231  0.00  0.00    +0.000 A 
ENDBRANCH  25  26
ENDBRANCH   9  25
TORSDOF 4
ENDMDL
MODEL 7
REMARK VINA RESULT:      -7.8      2.858      8.504
REMARK  Name = 
REMARK  6 active torsions:
REMARK  status: ('A' for Active; 'I' for Inactive)
REMARK    1  A    between atoms: C_1  and  O_2
REMARK    2  A    between atoms: O_2  and  C_3
REMARK    3  A    between atoms: C_9  and  C_10
REMARK    4  A    between atoms: C_12  and  C_13
REMARK    5  A    between atoms: N_18  and  C_19
REMARK    6  A    between atoms: C_19  and  C_20
REMARK                            x       y       z     vdW  Elec       q    Type
REMARK                         _______ _______ _______ _____ _____    ______ ____
ROOT
ATOM      1  C   UNL     1       3.134   5.358  19.000  0.00  0.00    +0.000 A 
ATOM      2  C   UNL     1       2.927   4.269  19.882  0.00  0.00    +0.000 A 
ATOM      3  C   UNL     1       2.111   4.376  21.013  0.00  0.00    +0.000 A 
ATOM      4  C   UNL     1       1.924   3.220  21.952  0.00  0.00    +0.000 C 
ATOM      5  C   UNL     1       1.459   5.583  21.253  0.00  0.00    +0.000 A 
ATOM      6  C   UNL     1       1.642   6.665  20.380  0.00  0.00    +0.000 A 
ATOM      7  C   UNL     1       0.915   7.928  20.616  0.00  0.00    +0.000 A 
ATOM      8  O   UNL     1       0.011   7.964  21.450  0.00  0.00    +0.000 OA
ATOM      9  N   UNL     1       1.298   9.006  19.837  0.00  0.00    +0.000 N 
ATOM     10  C   UNL     1       2.147   8.829  18.779  0.00  0.00    +0.000 A 
ATOM     11  N   UNL     1       2.698   7.714  18.451  0.00  0.00    +0.000 NA
ATOM     12  C   UNL     1       2.494   6.585  19.270  0.00  0.00    +0.000 A 
ENDROOT
BRANCH   1  19
ATOM     13  C   UNL     1       6.616   4.244  13.948  0.00  0.00    +0.000 A 
ATOM     14  C   UNL     1       7.350   5.230  14.600  0.00  0.00    +0.000 A 
ATOM     15  C   UNL     1       6.876   5.756  15.801  0.00  0.00    +0.000 A 
ATOM     16 CL   UNL     1       7.737   6.971  16.643  0.00  0.00    +0.000 Cl
ATOM     17  C   UNL     1       5.668   5.323  16.384  0.00  0.00    +0.000 A 
ATOM     18  N   UNL     1       5.080   5.757  17.563  0.00  0.00    +0.000 NA
ATOM     19  C   UNL     1       3.965   5.099  17.808  0.00  0.00    +0.000 A 
ATOM     20  S   UNL     1       3.508   3.994  16.572  0.00  0.00    +0.000 S 
ATOM     21  C   UNL     1       4.950   4.338  15.705  0.00  0.00    +0.000 A 
ATOM     22  C   UNL     1       5.411   3.783  14.495  0.00  0.00    +0.000 A 
BRANCH  13  24
ATOM     23  C   UNL     1       5.914   3.048  12.017  0.00  0.00    +0.000 C 
ATOM     24  O   UNL     1       6.966   3.647  12.765  0.00  0.00    +0.000 OA
ENDBRANCH  13  24
ENDBRANCH   1  19
BRANCH   9  25
ATOM     25  C   UNL     1       0.731  10.321  20.114  0.00  0.00    +0.000 C 
BRANCH  25  26
ATOM     26  C   UNL     1      -0.525  10.561  19.302  0.00  0.00    +0.000 A 
ATOM     27  C   UNL     1      -0.725   9.915  18.073  0.00  0.00    +0.000 A 
ATOM     28  C   UNL     1      -1.829  10.234  17.279  0.00  0.00    +0.000 A 
ATOM     29  C   UNL     1      -2.744  11.196  17.704  0.00  0.00    +0.000 A 
ATOM     30  C   UNL     1      -2.575  11.819  18.937  0.00  0.00    +0.000 A 
ATOM     31  C   UNL     1      -1.474  11.500  19.733  0.00  0.00    +0.000 A 
ENDBRANCH  25  26
ENDBRANCH   9  25
TORSDOF 4
ENDMDL
MODEL 8
REMARK VINA RESULT:      -7.7      3.244      5.150
REMARK  Name = 
REMARK  6 active torsions:
REMARK  status: ('A' for Active; 'I' for Inactive)
REMARK    1  A    between atoms: C_1  and  O_2
REMARK    2  A    between atoms: O_2  and  C_3
REMARK    3  A    between atoms: C_9  and  C_10
REMARK    4  A    between atoms: C_12  and  C_13
REMARK    5  A    between atoms: N_18  and  C_19
REMARK    6  A    between atoms: C_19  and  C_20
REMARK                            x       y       z     vdW  Elec       q    Type
REMARK                         _______ _______ _______ _____ _____    ______ ____
ROOT
ATOM      1  C   UNL     1       0.912  10.918  20.258  0.00  0.00    +0.000 A 
ATOM      2  C   UNL     1       0.250  10.759  21.499  0.00  0.00    +0.000 A 
ATOM      3  C   UNL     1       0.124   9.510  22.118  0.00  0.00    +0.000 A 
ATOM      4  C   UNL     1      -0.604   9.355  23.420  0.00  0.00    +0.000 C 
ATOM      5  C   UNL     1       0.700   8.401  21.504  0.00  0.00    +0.000 A 
ATOM      6  C   UNL     1       1.372   8.546  20.281  0.00  0.00    +0.000 A 
ATOM      7  C   UNL     1       2.018   7.374  19.657  0.00  0.00    +0.000 A 
ATOM      8  O   UNL     1       2.135   6.330  20.297  0.00  0.00    +0.000 OA
ATOM      9  N   UNL     1       2.483   7.552  18.365  0.00  0.00    +0.000 N 
ATOM     10  C   UNL     1       2.522   8.801  17.809  0.00  0.00    +0.000 A 
ATOM     11  N   UNL     1       2.096   9.876  18.373  0.00  0.00    +0.000 NA
ATOM     12  C   UNL     1       1.464   9.783  19.629  0.00  0.00    +0.000 A 
ENDROOT
BRANCH   1  19
ATOM     13  C   UNL     1       1.453  16.727  18.054  0.00  0.00    +0.000 A 
ATOM     14  C   UNL     1       0.227  16.774  18.711  0.00  0.00    +0.000 A 
ATOM     15  C   UNL     1      -0.256  15.629  19.344  0.00  0.00    +0.000 A 
ATOM     16 CL   UNL     1      -1.757  15.631  20.164  0.00  0.00    +0.000 Cl
ATOM     17  C   UNL     1       0.458  14.414  19.342  0.00  0.00    +0.000 A 
ATOM     18  N   UNL     1       0.098  13.206  19.923  0.00  0.00    +0.000 NA
ATOM     19  C   UNL     1       1.033  12.296  19.742  0.00  0.00    +0.000 A 
ATOM     20  S   UNL     1       2.350  12.815  18.765  0.00  0.00    +0.000 S 
ATOM     21  C   UNL     1       1.680  14.394  18.669  0.00  0.00    +0.000 A 
ATOM     22  C   UNL     1       2.195  15.539  18.030  0.00  0.00    +0.000 A 
BRANCH  13  24
ATOM     23  C   UNL     1       1.221  18.484  16.469  0.00  0.00    +0.000 C 
ATOM     24  O   UNL     1       2.038  17.774  17.393  0.00  0.00    +0.000 OA
ENDBRANCH  13  24
ENDBRANCH   1  19
BRANCH   9  25
ATOM     25  C   UNL     1       2.997   6.402  17.630  0.00  0.00    +0.000 C 
BRANCH  25  26
ATOM     26  C   UNL     1       4.490   6.243  17.830  0.00  0.00    +0.000 A 
ATOM     27  C   UNL     1       4.999   5.429  18.853  0.00  0.00    +0.000 A 
ATOM     28  C   UNL     1       6.373   5.385  19.102  0.00  0.00    +0.000 A 
ATOM     29  C   UNL     1       7.250   6.148  18.332  0.00  0.00    +0.000 A 
ATOM     30  C   UNL     1       6.760   6.932  17.292  0.00  0.00    +0.000 A 
ATOM     31  C   UNL     1       5.389   6.976  17.040  0.00  0.00    +0.000 A 
ENDBRANCH  25  26
ENDBRANCH   9  25
TORSDOF 4
ENDMDL
MODEL 9
REMARK VINA RESULT:      -7.7      1.962      2.359
REMARK  Name = 
REMARK  6 active torsions:
REMARK  status: ('A' for Active; 'I' for Inactive)
REMARK    1  A    between atoms: C_1  and  O_2
REMARK    2  A    between atoms: O_2  and  C_3
REMARK    3  A    between atoms: C_9  and  C_10
REMARK    4  A    between atoms: C_12  and  C_13
REMARK    5  A    between atoms: N_18  and  C_19
REMARK    6  A    between atoms: C_19  and  C_20
REMARK                            x       y       z     vdW  Elec       q    Type
REMARK                         _______ _______ _______ _____ _____    ______ ____
ROOT
ATOM      1  C   UNL     1       2.535   5.522  18.721  0.00  0.00    +0.000 A 
ATOM      2  C   UNL     1       1.875   4.328  19.104  0.00  0.00    +0.000 A 
ATOM      3  C   UNL     1       2.282   3.074  18.636  0.00  0.00    +0.000 A 
ATOM      4  C   UNL     1       1.554   1.822  19.031  0.00  0.00    +0.000 C 
ATOM      5  C   UNL     1       3.390   3.002  17.797  0.00  0.00    +0.000 A 
ATOM      6  C   UNL     1       4.063   4.174  17.422  0.00  0.00    +0.000 A 
ATOM      7  C   UNL     1       5.263   4.088  16.566  0.00  0.00    +0.000 A 
ATOM      8  O   UNL     1       5.780   2.993  16.351  0.00  0.00    +0.000 OA
ATOM      9  N   UNL     1       5.749   5.288  16.077  0.00  0.00    +0.000 N 
ATOM     10  C   UNL     1       5.259   6.476  16.545  0.00  0.00    +0.000 A 
ATOM     11  N   UNL     1       4.304   6.599  17.398  0.00  0.00    +0.000 NA
ATOM     12  C   UNL     1       3.637   5.441  17.845  0.00  0.00    +0.000 A 
ENDROOT
BRANCH   1  19
ATOM     13  C   UNL     1       0.487  10.797  21.344  0.00  0.00    +0.000 A 
ATOM     14  C   UNL     1       0.910  11.234  20.092  0.00  0.00    +0.000 A 
ATOM     15  C   UNL     1       1.452  10.318  19.192  0.00  0.00    +0.000 A 
ATOM     16 CL   UNL     1       1.989  10.802  17.642  0.00  0.00    +0.000 Cl
ATOM     17  C   UNL     1       1.591   8.951  19.506  0.00  0.00    +0.000 A 
ATOM     18  N   UNL     1       2.111   7.936  18.716  0.00  0.00    +0.000 NA
ATOM     19  C   UNL     1       2.050   6.774  19.334  0.00  0.00    +0.000 A 
ATOM     20  S   UNL     1       1.461   6.858  20.947  0.00  0.00    +0.000 S 
ATOM     21  C   UNL     1       1.165   8.541  20.771  0.00  0.00    +0.000 A 
ATOM     22  C   UNL     1       0.605   9.445  21.695  0.00  0.00    +0.000 A 
BRANCH  13  24
ATOM     23  C   UNL     1      -1.183  11.063  23.015  0.00  0.00    +0.000 C 
ATOM     24  O   UNL     1      -0.059  11.589  22.318  0.00  0.00    +0.000 OA
ENDBRANCH  13  24
ENDBRANCH   1  19
BRANCH   9  25
ATOM     25  C   UNL     1       6.839   5.271  15.108  0.00  0.00    +0.000 C 
BRANCH  25  26
ATOM     26  C   UNL     1       6.427   4.577  13.827  0.00  0.00    +0.000 A 
ATOM     27  C   UNL     1       5.087   4.237  13.588  0.00  0.00    +0.000 A 
ATOM     28  C   UNL     1       4.738   3.493  12.459  0.00  0.00    +0.000 A 
ATOM     29  C   UNL     1       5.719   3.085  11.556  0.00  0.00    +0.000 A 
ATOM     30  C   UNL     1       7.047   3.446  11.764  0.00  0.00    +0.000 A 
ATOM     31  C   UNL     1       7.398   4.192  12.890  0.00  0.00    +0.000 A 
ENDBRANCH  25  26
ENDBRANCH   9  25
TORSDOF 4
ENDMDL
