MODEL 1
REMARK VINA RESULT:      -8.7      0.000      0.000
REMARK  Name = 
REMARK  6 active torsions:
REMARK  status: ('A' for Active; 'I' for Inactive)
REMARK    1  A    between atoms: C_2  and  C_10
REMARK    2  A    between atoms: N_3  and  C_4
REMARK    3  A    between atoms: C_4  and  C_5
REMARK    4  A    between atoms: N_14  and  S_15
REMARK    5  A    between atoms: S_15  and  C_18
REMARK    6  A    between atoms: C_21  and  N_22
REMARK                            x       y       z     vdW  Elec       q    Type
REMARK                         _______ _______ _______ _____ _____    ______ ____
ROOT
ATOM      1  C   UNL     1       7.164   5.700  18.233  0.00  0.00    +0.000 C 
ATOM      2  C   UNL     1       7.648   4.613  17.274  0.00  0.00    +0.000 C 
ATOM      3  C   UNL     1       6.606   4.348  16.194  0.00  0.00    +0.000 C 
ATOM      4  C   UNL     1       5.252   3.960  16.793  0.00  0.00    +0.000 C 
ATOM      5  N   UNL     1       4.791   4.940  17.817  0.00  0.00    +0.000 NA
ATOM      6  C   UNL     1       5.822   5.286  18.843  0.00  0.00    +0.000 C 
ENDROOT
BRANCH   1   8
ATOM      7  O   UNL     1       6.230   7.401  16.772  0.00  0.00    +0.000 OA
ATOM      8  C   UNL     1       7.076   7.094  17.605  0.00  0.00    +0.000 C 
ATOM      9  N   UNL     1       7.989   8.007  18.082  0.00  0.00    +0.000 N 
ATOM     10  H   UNL     1       8.677   7.749  18.777  0.00  0.00    +0.000 HD
BRANCH   9  11
ATOM     11  C   UNL     1       7.977   9.386  17.639  0.00  0.00    +0.000 C 
BRANCH  11  12
ATOM     12  C   UNL     1       8.962  10.149  18.438  0.00  0.00    +0.000 A 
ATOM     13  C   UNL     1       9.198  10.254  19.795  0.00  0.00    +0.000 A 
ATOM     14  C   UNL     1      10.298  11.132  19.940  0.00  0.00    +0.000 A 
ATOM     15  C   UNL     1      10.661  11.505  18.668  0.00  0.00    +0.000 A 
ATOM     16  O   UNL     1       9.852  10.919  17.748  0.00  0.00    +0.000 OA
ENDBRANCH  11  12
ENDBRANCH   9  11
ENDBRANCH   1   8
BRANCH   5  17
ATOM     17  S   UNL     1       3.269   4.556  18.529  0.00  0.00    +0.000 S 
ATOM     18  O   UNL     1       2.433   3.996  17.488  0.00  0.00    +0.000 OA
ATOM     19  O   UNL     1       3.491   3.833  19.769  0.00  0.00    +0.000 OA
BRANCH  17  20
ATOM     20  C   UNL     1       2.587   6.130  18.993  0.00  0.00    +0.000 A 
ATOM     21  C   UNL     1       2.078   6.310  20.282  0.00  0.00    +0.000 A 
ATOM     22  C   UNL     1       1.602   7.565  20.677  0.00  0.00    +0.000 A 
ATOM     23  C   UNL     1       1.643   8.647  19.784  0.00  0.00    +0.000 A 
ATOM     24  C   UNL     1       2.182   8.464  18.497  0.00  0.00    +0.000 A 
ATOM     25  C   UNL     1       2.655   7.205  18.102  0.00  0.00    +0.000 A 
BRANCH  23  26
ATOM     26  N   UNL     1       1.129   9.913  20.162  0.00  0.00    +0.000 N 
ATOM     27  C   UNL     1       0.660  10.934  19.373  0.00  0.00    +0.000 A 
ATOM     28  N   UNL     1       0.348  11.963  20.127  0.00  0.00    +0.000 NA
ATOM     29  N   UNL     1       0.603  11.568  21.413  0.00  0.00    +0.000 NA
ATOM     30  N   UNL     1       1.063  10.324  21.448  0.00  0.00    +0.000 NA
ENDBRANCH  23  26
ENDBRANCH  17  20
ENDBRANCH   5  17
TORSDOF 6
ENDMDL
MODEL 2
REMARK VINA RESULT:      -8.5      0.562      1.145
REMARK  Name = 
REMARK  6 active torsions:
REMARK  status: ('A' for Active; 'I' for Inactive)
REMARK    1  A    between atoms: C_2  and  C_10
REMARK    2  A    between atoms: N_3  and  C_4
REMARK    3  A    between atoms: C_4  and  C_5
REMARK    4  A    between atoms: N_14  and  S_15
REMARK    5  A    between atoms: S_15  and  C_18
REMARK    6  A    between atoms: C_21  and  N_22
REMARK                            x       y       z     vdW  Elec       q    Type
REMARK                         _______ _______ _______ _____ _____    ______ ____
ROOT
ATOM      1  C   UNL     1       7.130   5.766  18.274  0.00  0.00    +0.000 C 
ATOM      2  C   UNL     1       7.634   4.621  17.397  0.00  0.00    +0.000 C 
ATOM      3  C   UNL     1       6.618   4.293  16.309  0.00  0.00    +0.000 C 
ATOM      4  C   UNL     1       5.248   3.946  16.896  0.00  0.00    +0.000 C 
ATOM      5  N   UNL     1       4.766   4.988  17.846  0.00  0.00    +0.000 NA
ATOM      6  C   UNL     1       5.771   5.393  18.875  0.00  0.00    +0.000 C 
ENDROOT
BRANCH   1   8
ATOM      7  O   UNL     1       6.212   7.391  16.719  0.00  0.00    +0.000 OA
ATOM      8  C   UNL     1       7.062   7.120  17.560  0.00  0.00    +0.000 C 
ATOM      9  N   UNL     1       8.001   8.041  17.967  0.00  0.00    +0.000 N 
ATOM     10  H   UNL     1       8.692   7.812  18.669  0.00  0.00    +0.000 HD
BRANCH   9  11
ATOM     11  C   UNL     1       8.012   9.389  17.438  0.00  0.00    +0.000 C 
BRANCH  11  12
ATOM     12  C   UNL     1       8.786  10.253  18.357  0.00  0.00    +0.000 A 
ATOM     13  C   UNL     1       9.244  11.552  18.269  0.00  0.00    +0.000 A 
ATOM     14  C   UNL     1       9.910  11.823  19.488  0.00  0.00    +0.000 A 
ATOM     15  C   UNL     1       9.817  10.675  20.239  0.00  0.00    +0.000 A 
ATOM     16  O   UNL     1       9.142   9.713  19.559  0.00  0.00    +0.000 OA
ENDBRANCH  11  12
ENDBRANCH   9  11
ENDBRANCH   1   8
BRANCH   5  17
ATOM     17  S   UNL     1       3.224   4.650  18.542  0.00  0.00    +0.000 S 
ATOM     18  O   UNL     1       2.367   4.168  17.480  0.00  0.00    +0.000 OA
ATOM     19  O   UNL     1       3.408   3.876  19.756  0.00  0.00    +0.000 OA
BRANCH  17  20
ATOM     20  C   UNL     1       2.616   6.238  19.059  0.00  0.00    +0.000 A 
ATOM     21  C   UNL     1       2.589   7.298  18.148  0.00  0.00    +0.000 A 
ATOM     22  C   UNL     1       2.049   8.532  18.526  0.00  0.00    +0.000 A 
ATOM     23  C   UNL     1       1.526   8.706  19.818  0.00  0.00    +0.000 A 
ATOM     24  C   UNL     1       1.533   7.626  20.719  0.00  0.00    +0.000 A 
ATOM     25  C   UNL     1       2.077   6.392  20.340  0.00  0.00    +0.000 A 
BRANCH  23  26
ATOM     26  N   UNL     1       1.011   9.963  20.222  0.00  0.00    +0.000 N 
ATOM     27  C   UNL     1       0.430  10.951  19.465  0.00  0.00    +0.000 A 
ATOM     28  N   UNL     1       0.163  11.986  20.228  0.00  0.00    +0.000 NA
ATOM     29  N   UNL     1       0.561  11.629  21.488  0.00  0.00    +0.000 NA
ATOM     30  N   UNL     1       1.064  10.401  21.500  0.00  0.00    +0.000 NA
ENDBRANCH  23  26
ENDBRANCH  17  20
ENDBRANCH   5  17
TORSDOF 6
ENDMDL
MODEL 3
REMARK VINA RESULT:      -8.1      2.737      5.234
REMARK  Name = 
REMARK  6 active torsions:
REMARK  status: ('A' for Active; 'I' for Inactive)
REMARK    1  A    between atoms: C_2  and  C_10
REMARK    2  A    between atoms: N_3  and  C_4
REMARK    3  A    between atoms: C_4  and  C_5
REMARK    4  A    between atoms: N_14  and  S_15
REMARK    5  A    between atoms: S_15  and  C_18
REMARK    6  A    between atoms: C_21  and  N_22
REMARK                            x       y       z     vdW  Elec       q    Type
REMARK                         _______ _______ _______ _____ _____    ______ ____
ROOT
ATOM      1  C   UNL     1       6.343   6.358  16.603  0.00  0.00    +0.000 C 
ATOM      2  C   UNL     1       7.078   6.790  17.871  0.00  0.00    +0.000 C 
ATOM      3  C   UNL     1       7.039   5.683  18.917  0.00  0.00    +0.000 C 
ATOM      4  C   UNL     1       5.605   5.267  19.253  0.00  0.00    +0.000 C 
ATOM      5  N   UNL     1       4.815   4.941  18.031  0.00  0.00    +0.000 NA
ATOM      6  C   UNL     1       4.902   5.971  16.951  0.00  0.00    +0.000 C 
ENDROOT
BRANCH   1   8
ATOM      7  O   UNL     1       7.820   4.446  16.346  0.00  0.00    +0.000 OA
ATOM      8  C   UNL     1       7.041   5.237  15.826  0.00  0.00    +0.000 C 
ATOM      9  N   UNL     1       6.692   5.145  14.497  0.00  0.00    +0.000 N 
ATOM     10  H   UNL     1       6.040   5.795  14.078  0.00  0.00    +0.000 HD
BRANCH   9  11
ATOM     11  C   UNL     1       7.211   4.088  13.655  0.00  0.00    +0.000 C 
BRANCH  11  12
ATOM     12  C   UNL     1       6.123   3.607  12.773  0.00  0.00    +0.000 A 
ATOM     13  C   UNL     1       4.830   4.038  12.549  0.00  0.00    +0.000 A 
ATOM     14  C   UNL     1       4.288   3.174  11.568  0.00  0.00    +0.000 A 
ATOM     15  C   UNL     1       5.281   2.275  11.258  0.00  0.00    +0.000 A 
ATOM     16  O   UNL     1       6.397   2.525  11.989  0.00  0.00    +0.000 OA
ENDBRANCH  11  12
ENDBRANCH   9  11
ENDBRANCH   1   8
BRANCH   5  17
ATOM     17  S   UNL     1       3.188   4.467  18.347  0.00  0.00    +0.000 S 
ATOM     18  O   UNL     1       2.516   4.351  17.069  0.00  0.00    +0.000 OA
ATOM     19  O   UNL     1       3.187   3.362  19.288  0.00  0.00    +0.000 OA
BRANCH  17  20
ATOM     20  C   UNL     1       2.484   5.851  19.212  0.00  0.00    +0.000 A 
ATOM     21  C   UNL     1       2.058   5.695  20.535  0.00  0.00    +0.000 A 
ATOM     22  C   UNL     1       1.567   6.794  21.246  0.00  0.00    +0.000 A 
ATOM     23  C   UNL     1       1.508   8.058  20.636  0.00  0.00    +0.000 A 
ATOM     24  C   UNL     1       1.963   8.211  19.314  0.00  0.00    +0.000 A 
ATOM     25  C   UNL     1       2.452   7.108  18.602  0.00  0.00    +0.000 A 
BRANCH  23  26
ATOM     26  N   UNL     1       0.976   9.170  21.335  0.00  0.00    +0.000 N 
ATOM     27  C   UNL     1       0.412   9.224  22.586  0.00  0.00    +0.000 A 
ATOM     28  N   UNL     1      -0.021  10.442  22.820  0.00  0.00    +0.000 NA
ATOM     29  N   UNL     1       0.302  11.168  21.705  0.00  0.00    +0.000 NA
ATOM     30  N   UNL     1       0.918  10.412  20.804  0.00  0.00    +0.000 NA
ENDBRANCH  23  26
ENDBRANCH  17  20
ENDBRANCH   5  17
TORSDOF 6
ENDMDL
MODEL 4
REMARK VINA RESULT:      -7.9      2.641      5.356
REMARK  Name = 
REMARK  6 active torsions:
REMARK  status: ('A' for Active; 'I' for Inactive)
REMARK    1  A    between atoms: C_2  and  C_10
REMARK    2  A    between atoms: N_3  and  C_4
REMARK    3  A    between atoms: C_4  and  C_5
REMARK    4  A    between atoms: N_14  and  S_15
REMARK    5  A    between atoms: S_15  and  C_18
REMARK    6  A    between atoms: C_21  and  N_22
REMARK                            x       y       z     vdW  Elec       q    Type
REMARK                         _______ _______ _______ _____ _____    ______ ____
ROOT
ATOM      1  C   UNL     1       6.352   6.347  16.402  0.00  0.00    +0.000 C 
ATOM      2  C   UNL     1       7.179   6.842  17.588  0.00  0.00    +0.000 C 
ATOM      3  C   UNL     1       7.173   5.814  18.713  0.00  0.00    +0.000 C 
ATOM      4  C   UNL     1       5.752   5.475  19.165  0.00  0.00    +0.000 C 
ATOM      5  N   UNL     1       4.876   5.090  18.022  0.00  0.00    +0.000 NA
ATOM      6  C   UNL     1       4.926   6.036  16.866  0.00  0.00    +0.000 C 
ENDROOT
BRANCH   1   8
ATOM      7  O   UNL     1       7.820   4.426  16.165  0.00  0.00    +0.000 OA
ATOM      8  C   UNL     1       6.964   5.149  15.668  0.00  0.00    +0.000 C 
ATOM      9  N   UNL     1       6.445   4.907  14.416  0.00  0.00    +0.000 N 
ATOM     10  H   UNL     1       5.731   5.502  14.019  0.00  0.00    +0.000 HD
BRANCH   9  11
ATOM     11  C   UNL     1       6.870   3.764  13.634  0.00  0.00    +0.000 C 
BRANCH  11  12
ATOM     12  C   UNL     1       5.805   3.435  12.660  0.00  0.00    +0.000 A 
ATOM     13  C   UNL     1       4.617   4.048  12.317  0.00  0.00    +0.000 A 
ATOM     14  C   UNL     1       4.040   3.256  11.296  0.00  0.00    +0.000 A 
ATOM     15  C   UNL     1       4.911   2.214  11.082  0.00  0.00    +0.000 A 
ATOM     16  O   UNL     1       5.983   2.309  11.910  0.00  0.00    +0.000 OA
ENDBRANCH  11  12
ENDBRANCH   9  11
ENDBRANCH   1   8
BRANCH   5  17
ATOM     17  S   UNL     1       3.258   4.698  18.471  0.00  0.00    +0.000 S 
ATOM     18  O   UNL     1       2.539   4.376  17.256  0.00  0.00    +0.000 OA
ATOM     19  O   UNL     1       3.285   3.768  19.585  0.00  0.00    +0.000 OA
BRANCH  17  20
ATOM     20  C   UNL     1       2.597   6.217  19.114  0.00  0.00    +0.000 A 
ATOM     21  C   UNL     1       2.455   7.322  18.269  0.00  0.00    +0.000 A 
ATOM     22  C   UNL     1       1.873   8.499  18.749  0.00  0.00    +0.000 A 
ATOM     23  C   UNL     1       1.422   8.571  20.077  0.00  0.00    +0.000 A 
ATOM     24  C   UNL     1       1.545   7.446  20.913  0.00  0.00    +0.000 A 
ATOM     25  C   UNL     1       2.131   6.268  20.431  0.00  0.00    +0.000 A 
BRANCH  23  26
ATOM     26  N   UNL     1       0.865   9.773  20.584  0.00  0.00    +0.000 N 
ATOM     27  C   UNL     1       0.410  10.876  19.905  0.00  0.00    +0.000 A 
ATOM     28  N   UNL     1       0.043  11.799  20.764  0.00  0.00    +0.000 NA
ATOM     29  N   UNL     1       0.250  11.253  22.002  0.00  0.00    +0.000 NA
ATOM     30  N   UNL     1       0.735  10.021  21.907  0.00  0.00    +0.000 NA
ENDBRANCH  23  26
ENDBRANCH  17  20
ENDBRANCH   5  17
TORSDOF 6
ENDMDL
MODEL 5
REMARK VINA RESULT:      -7.6      3.595      4.531
REMARK  Name = 
REMARK  6 active torsions:
REMARK  status: ('A' for Active; 'I' for Inactive)
REMARK    1  A    between atoms: C_2  and  C_10
REMARK    2  A    between atoms: N_3  and  C_4
REMARK    3  A    between atoms: C_4  and  C_5
REMARK    4  A    between atoms: N_14  and  S_15
REMARK    5  A    between atoms: S_15  and  C_18
REMARK    6  A    between atoms: C_21  and  N_22
REMARK                            x       y       z     vdW  Elec       q    Type
REMARK                         _______ _______ _______ _____ _____    ______ ____
ROOT
ATOM      1  C   UNL     1       4.796   3.311  18.548  0.00  0.00    +0.000 C 
ATOM      2  C   UNL     1       3.950   2.455  17.605  0.00  0.00    +0.000 C 
ATOM      3  C   UNL     1       2.785   3.264  17.047  0.00  0.00    +0.000 C 
ATOM      4  C   UNL     1       1.911   3.845  18.160  0.00  0.00    +0.000 C 
ATOM      5  N   UNL     1       2.713   4.598  19.166  0.00  0.00    +0.000 NA
ATOM      6  C   UNL     1       3.913   3.863  19.671  0.00  0.00    +0.000 C 
ENDROOT
BRANCH   1   8
ATOM      7  O   UNL     1       5.607   5.584  18.279  0.00  0.00    +0.000 OA
ATOM      8  C   UNL     1       5.567   4.436  17.851  0.00  0.00    +0.000 C 
ATOM      9  N   UNL     1       6.261   4.056  16.725  0.00  0.00    +0.000 N 
ATOM     10  H   UNL     1       6.231   3.104  16.384  0.00  0.00    +0.000 HD
BRANCH   9  11
ATOM     11  C   UNL     1       7.098   4.993  16.004  0.00  0.00    +0.000 C 
BRANCH  11  12
ATOM     12  C   UNL     1       7.010   4.692  14.558  0.00  0.00    +0.000 A 
ATOM     13  C   UNL     1       6.223   3.830  13.819  0.00  0.00    +0.000 A 
ATOM     14  C   UNL     1       6.597   4.011  12.466  0.00  0.00    +0.000 A 
ATOM     15  C   UNL     1       7.585   4.967  12.466  0.00  0.00    +0.000 A 
ATOM     16  O   UNL     1       7.849   5.383  13.732  0.00  0.00    +0.000 OA
ENDBRANCH  11  12
ENDBRANCH   9  11
ENDBRANCH   1   8
BRANCH   5  17
ATOM     17  S   UNL     1       1.781   5.277  20.449  0.00  0.00    +0.000 S 
ATOM     18  O   UNL     1       0.480   4.641  20.421  0.00  0.00    +0.000 OA
ATOM     19  O   UNL     1       2.575   5.285  21.663  0.00  0.00    +0.000 OA
BRANCH  17  20
ATOM     20  C   UNL     1       1.569   6.980  19.988  0.00  0.00    +0.000 A 
ATOM     21  C   UNL     1       1.034   7.884  20.910  0.00  0.00    +0.000 A 
ATOM     22  C   UNL     1       0.927   9.240  20.580  0.00  0.00    +0.000 A 
ATOM     23  C   UNL     1       1.364   9.695  19.325  0.00  0.00    +0.000 A 
ATOM     24  C   UNL     1       1.925   8.783  18.413  0.00  0.00    +0.000 A 
ATOM     25  C   UNL     1       2.029   7.425  18.745  0.00  0.00    +0.000 A 
BRANCH  23  26
ATOM     26  N   UNL     1       1.225  11.060  18.967  0.00  0.00    +0.000 N 
ATOM     27  C   UNL     1       2.155  11.920  18.437  0.00  0.00    +0.000 A 
ATOM     28  N   UNL     1       1.630  13.119  18.327  0.00  0.00    +0.000 NA
ATOM     29  N   UNL     1       0.341  12.999  18.773  0.00  0.00    +0.000 NA
ATOM     30  N   UNL     1       0.080  11.754  19.151  0.00  0.00    +0.000 NA
ENDBRANCH  23  26
ENDBRANCH  17  20
ENDBRANCH   5  17
TORSDOF 6
ENDMDL
MODEL 6
REMARK VINA RESULT:      -7.5      3.637      4.782
REMARK  Name = 
REMARK  6 active torsions:
REMARK  status: ('A' for Active; 'I' for Inactive)
REMARK    1  A    between atoms: C_2  and  C_10
REMARK    2  A    between atoms: N_3  and  C_4
REMARK    3  A    between atoms: C_4  and  C_5
REMARK    4  A    between atoms: N_14  and  S_15
REMARK    5  A    between atoms: S_15  and  C_18
REMARK    6  A    between atoms: C_21  and  N_22
REMARK                            x       y       z     vdW  Elec       q    Type
REMARK                         _______ _______ _______ _____ _____    ______ ____
ROOT
ATOM      1  C   UNL     1       4.843   3.293  18.416  0.00  0.00    +0.000 C 
ATOM      2  C   UNL     1       3.986   2.400  17.521  0.00  0.00    +0.000 C 
ATOM      3  C   UNL     1       2.764   3.159  17.018  0.00  0.00    +0.000 C 
ATOM      4  C   UNL     1       1.924   3.712  18.172  0.00  0.00    +0.000 C 
ATOM      5  N   UNL     1       2.745   4.502  19.134  0.00  0.00    +0.000 NA
ATOM      6  C   UNL     1       3.996   3.817  19.580  0.00  0.00    +0.000 C 
ENDROOT
BRANCH   1   8
ATOM      7  O   UNL     1       5.653   5.568  18.152  0.00  0.00    +0.000 OA
ATOM      8  C   UNL     1       5.534   4.443  17.677  0.00  0.00    +0.000 C 
ATOM      9  N   UNL     1       6.062   4.114  16.450  0.00  0.00    +0.000 N 
ATOM     10  H   UNL     1       5.968   3.181  16.070  0.00  0.00    +0.000 HD
BRANCH   9  11
ATOM     11  C   UNL     1       6.811   5.076  15.669  0.00  0.00    +0.000 C 
BRANCH  11  12
ATOM     12  C   UNL     1       6.814   4.641  14.255  0.00  0.00    +0.000 A 
ATOM     13  C   UNL     1       7.606   4.962  13.170  0.00  0.00    +0.000 A 
ATOM     14  C   UNL     1       7.120   4.197  12.083  0.00  0.00    +0.000 A 
ATOM     15  C   UNL     1       6.067   3.461  12.572  0.00  0.00    +0.000 A 
ATOM     16  O   UNL     1       5.868   3.728  13.888  0.00  0.00    +0.000 OA
ENDBRANCH  11  12
ENDBRANCH   9  11
ENDBRANCH   1   8
BRANCH   5  17
ATOM     17  S   UNL     1       1.852   5.151  20.458  0.00  0.00    +0.000 S 
ATOM     18  O   UNL     1       0.522   4.581  20.404  0.00  0.00    +0.000 OA
ATOM     19  O   UNL     1       2.651   5.053  21.666  0.00  0.00    +0.000 OA
BRANCH  17  20
ATOM     20  C   UNL     1       1.720   6.886  20.095  0.00  0.00    +0.000 A 
ATOM     21  C   UNL     1       2.128   7.363  18.846  0.00  0.00    +0.000 A 
ATOM     22  C   UNL     1       1.965   8.715  18.526  0.00  0.00    +0.000 A 
ATOM     23  C   UNL     1       1.383   9.593  19.456  0.00  0.00    +0.000 A 
ATOM     24  C   UNL     1       0.951   9.099  20.700  0.00  0.00    +0.000 A 
ATOM     25  C   UNL     1       1.118   7.745  21.019  0.00  0.00    +0.000 A 
BRANCH  23  26
ATOM     26  N   UNL     1       1.248  10.972  19.155  0.00  0.00    +0.000 N 
ATOM     27  C   UNL     1       2.010  11.763  18.331  0.00  0.00    +0.000 A 
ATOM     28  N   UNL     1       1.584  13.003  18.398  0.00  0.00    +0.000 NA
ATOM     29  N   UNL     1       0.521  12.982  19.261  0.00  0.00    +0.000 NA
ATOM     30  N   UNL     1       0.299  11.756  19.716  0.00  0.00    +0.000 NA
ENDBRANCH  23  26
ENDBRANCH  17  20
ENDBRANCH   5  17
TORSDOF 6
ENDMDL
MODEL 7
REMARK VINA RESULT:      -7.5      1.483      2.309
REMARK  Name = 
REMARK  6 active torsions:
REMARK  status: ('A' for Active; 'I' for Inactive)
REMARK    1  A    between atoms: C_2  and  C_10
REMARK    2  A    between atoms: N_3  and  C_4
REMARK    3  A    between atoms: C_4  and  C_5
REMARK    4  A    between atoms: N_14  and  S_15
REMARK    5  A    between atoms: S_15  and  C_18
REMARK    6  A    between atoms: C_21  and  N_22
REMARK                            x       y       z     vdW  Elec       q    Type
REMARK                         _______ _______ _______ _____ _____    ______ ____
ROOT
ATOM      1  C   UNL     1       5.881   4.214  16.450  0.00  0.00    +0.000 C 
ATOM      2  C   UNL     1       5.522   5.158  15.303  0.00  0.00    +0.000 C 
ATOM      3  C   UNL     1       5.030   6.495  15.843  0.00  0.00    +0.000 C 
ATOM      4  C   UNL     1       3.833   6.324  16.780  0.00  0.00    +0.000 C 
ATOM      5  N   UNL     1       4.101   5.326  17.855  0.00  0.00    +0.000 NA
ATOM      6  C   UNL     1       4.666   4.032  17.364  0.00  0.00    +0.000 C 
ENDROOT
BRANCH   1   8
ATOM      7  O   UNL     1       8.231   4.175  17.065  0.00  0.00    +0.000 OA
ATOM      8  C   UNL     1       7.113   4.644  17.253  0.00  0.00    +0.000 C 
ATOM      9  N   UNL     1       6.889   5.640  18.176  0.00  0.00    +0.000 N 
ATOM     10  H   UNL     1       5.966   6.028  18.316  0.00  0.00    +0.000 HD
BRANCH   9  11
ATOM     11  C   UNL     1       7.973   6.202  18.954  0.00  0.00    +0.000 C 
BRANCH  11  12
ATOM     12  C   UNL     1       8.168   7.612  18.547  0.00  0.00    +0.000 A 
ATOM     13  C   UNL     1       7.706   8.358  17.481  0.00  0.00    +0.000 A 
ATOM     14  C   UNL     1       8.227   9.663  17.654  0.00  0.00    +0.000 A 
ATOM     15  C   UNL     1       8.970   9.629  18.810  0.00  0.00    +0.000 A 
ATOM     16  O   UNL     1       8.946   8.386  19.357  0.00  0.00    +0.000 OA
ENDBRANCH  11  12
ENDBRANCH   9  11
ENDBRANCH   1   8
BRANCH   5  17
ATOM     17  S   UNL     1       2.785   5.088  18.944  0.00  0.00    +0.000 S 
ATOM     18  O   UNL     1       1.720   4.448  18.201  0.00  0.00    +0.000 OA
ATOM     19  O   UNL     1       3.284   4.505  20.175  0.00  0.00    +0.000 OA
BRANCH  17  20
ATOM     20  C   UNL     1       2.252   6.733  19.359  0.00  0.00    +0.000 A 
ATOM     21  C   UNL     1       2.201   7.714  18.365  0.00  0.00    +0.000 A 
ATOM     22  C   UNL     1       1.719   8.992  18.668  0.00  0.00    +0.000 A 
ATOM     23  C   UNL     1       1.278   9.288  19.967  0.00  0.00    +0.000 A 
ATOM     24  C   UNL     1       1.308   8.287  20.955  0.00  0.00    +0.000 A 
ATOM     25  C   UNL     1       1.794   7.008  20.650  0.00  0.00    +0.000 A 
BRANCH  23  26
ATOM     26  N   UNL     1       0.823  10.591  20.293  0.00  0.00    +0.000 N 
ATOM     27  C   UNL     1       0.069  11.462  19.546  0.00  0.00    +0.000 A 
ATOM     28  N   UNL     1      -0.064  12.595  20.197  0.00  0.00    +0.000 NA
ATOM     29  N   UNL     1       0.599  12.420  21.382  0.00  0.00    +0.000 NA
ATOM     30  N   UNL     1       1.128  11.205  21.458  0.00  0.00    +0.000 NA
ENDBRANCH  23  26
ENDBRANCH  17  20
ENDBRANCH   5  17
TORSDOF 6
ENDMDL
MODEL 8
REMARK VINA RESULT:      -7.4      2.878      5.284
REMARK  Name = 
REMARK  6 active torsions:
REMARK  status: ('A' for Active; 'I' for Inactive)
REMARK    1  A    between atoms: C_2  and  C_10
REMARK    2  A    between atoms: N_3  and  C_4
REMARK    3  A    between atoms: C_4  and  C_5
REMARK    4  A    between atoms: N_14  and  S_15
REMARK    5  A    between atoms: S_15  and  C_18
REMARK    6  A    between atoms: C_21  and  N_22
REMARK                            x       y       z     vdW  Elec       q    Type
REMARK                         _______ _______ _______ _____ _____    ______ ____
ROOT
ATOM      1  C   UNL     1       6.115   6.172  16.097  0.00  0.00    +0.000 C 
ATOM      2  C   UNL     1       6.973   6.770  17.211  0.00  0.00    +0.000 C 
ATOM      3  C   UNL     1       7.162   5.765  18.340  0.00  0.00    +0.000 C 
ATOM      4  C   UNL     1       5.823   5.285  18.904  0.00  0.00    +0.000 C 
ATOM      5  N   UNL     1       4.908   4.793  17.835  0.00  0.00    +0.000 NA
ATOM      6  C   UNL     1       4.769   5.721  16.671  0.00  0.00    +0.000 C 
ENDROOT
BRANCH   1   8
ATOM      7  O   UNL     1       7.026   3.937  15.821  0.00  0.00    +0.000 OA
ATOM      8  C   UNL     1       6.793   5.035  15.326  0.00  0.00    +0.000 C 
ATOM      9  N   UNL     1       7.080   5.314  14.009  0.00  0.00    +0.000 N 
ATOM     10  H   UNL     1       6.875   6.218  13.606  0.00  0.00    +0.000 HD
BRANCH   9  11
ATOM     11  C   UNL     1       7.650   4.311  13.134  0.00  0.00    +0.000 C 
BRANCH  11  12
ATOM     12  C   UNL     1       6.549   3.594  12.453  0.00  0.00    +0.000 A 
ATOM     13  C   UNL     1       6.506   2.464  11.660  0.00  0.00    +0.000 A 
ATOM     14  C   UNL     1       5.146   2.268  11.321  0.00  0.00    +0.000 A 
ATOM     15  C   UNL     1       4.450   3.287  11.925  0.00  0.00    +0.000 A 
ATOM     16  O   UNL     1       5.292   4.102  12.610  0.00  0.00    +0.000 OA
ENDBRANCH  11  12
ENDBRANCH   9  11
ENDBRANCH   1   8
BRANCH   5  17
ATOM     17  S   UNL     1       3.380   4.239  18.410  0.00  0.00    +0.000 S 
ATOM     18  O   UNL     1       2.560   3.952  17.252  0.00  0.00    +0.000 OA
ATOM     19  O   UNL     1       3.593   3.233  19.435  0.00  0.00    +0.000 OA
BRANCH  17  20
ATOM     20  C   UNL     1       2.684   5.647  19.241  0.00  0.00    +0.000 A 
ATOM     21  C   UNL     1       2.619   6.877  18.580  0.00  0.00    +0.000 A 
ATOM     22  C   UNL     1       2.011   7.974  19.200  0.00  0.00    +0.000 A 
ATOM     23  C   UNL     1       1.458   7.839  20.484  0.00  0.00    +0.000 A 
ATOM     24  C   UNL     1       1.504   6.591  21.131  0.00  0.00    +0.000 A 
ATOM     25  C   UNL     1       2.116   5.494  20.509  0.00  0.00    +0.000 A 
BRANCH  23  26
ATOM     26  N   UNL     1       0.873   8.954  21.136  0.00  0.00    +0.000 N 
ATOM     27  C   UNL     1       0.223  10.036  20.597  0.00  0.00    +0.000 A 
ATOM     28  N   UNL     1      -0.096  10.877  21.554  0.00  0.00    +0.000 NA
ATOM     29  N   UNL     1       0.341  10.298  22.714  0.00  0.00    +0.000 NA
ATOM     30  N   UNL     1       0.918   9.126  22.476  0.00  0.00    +0.000 NA
ENDBRANCH  23  26
ENDBRANCH  17  20
ENDBRANCH   5  17
TORSDOF 6
ENDMDL
MODEL 9
REMARK VINA RESULT:      -7.3      2.226      3.395
REMARK  Name = 
REMARK  6 active torsions:
REMARK  status: ('A' for Active; 'I' for Inactive)
REMARK    1  A    between atoms: C_2  and  C_10
REMARK    2  A    between atoms: N_3  and  C_4
REMARK    3  A    between atoms: C_4  and  C_5
REMARK    4  A    between atoms: N_14  and  S_15
REMARK    5  A    between atoms: S_15  and  C_18
REMARK    6  A    between atoms: C_21  and  N_22
REMARK                            x       y       z     vdW  Elec       q    Type
REMARK                         _______ _______ _______ _____ _____    ______ ____
ROOT
ATOM      1  C   UNL     1       4.303   2.988  17.931  0.00  0.00    +0.000 C 
ATOM      2  C   UNL     1       3.183   2.209  17.244  0.00  0.00    +0.000 C 
ATOM      3  C   UNL     1       2.003   3.124  16.938  0.00  0.00    +0.000 C 
ATOM      4  C   UNL     1       1.473   3.809  18.199  0.00  0.00    +0.000 C 
ATOM      5  N   UNL     1       2.556   4.492  18.962  0.00  0.00    +0.000 NA
ATOM      6  C   UNL     1       3.765   3.646  19.205  0.00  0.00    +0.000 C 
ENDROOT
BRANCH   1   8
ATOM      7  O   UNL     1       5.577   3.715  15.995  0.00  0.00    +0.000 OA
ATOM      8  C   UNL     1       4.995   4.017  17.031  0.00  0.00    +0.000 C 
ATOM      9  N   UNL     1       4.874   5.325  17.441  0.00  0.00    +0.000 N 
ATOM     10  H   UNL     1       4.382   5.566  18.292  0.00  0.00    +0.000 HD
BRANCH   9  11
ATOM     11  C   UNL     1       5.408   6.414  16.652  0.00  0.00    +0.000 C 
BRANCH  11  12
ATOM     12  C   UNL     1       6.569   6.992  17.365  0.00  0.00    +0.000 A 
ATOM     13  C   UNL     1       7.427   6.498  18.328  0.00  0.00    +0.000 A 
ATOM     14  C   UNL     1       8.356   7.530  18.601  0.00  0.00    +0.000 A 
ATOM     15  C   UNL     1       8.006   8.584  17.791  0.00  0.00    +0.000 A 
ATOM     16  O   UNL     1       6.919   8.271  17.041  0.00  0.00    +0.000 OA
ENDBRANCH  11  12
ENDBRANCH   9  11
ENDBRANCH   1   8
BRANCH   5  17
ATOM     17  S   UNL     1       2.019   5.283  20.398  0.00  0.00    +0.000 S 
ATOM     18  O   UNL     1       0.695   4.782  20.698  0.00  0.00    +0.000 OA
ATOM     19  O   UNL     1       3.074   5.232  21.393  0.00  0.00    +0.000 OA
BRANCH  17  20
ATOM     20  C   UNL     1       1.867   6.991  19.930  0.00  0.00    +0.000 A 
ATOM     21  C   UNL     1       2.268   7.397  18.654  0.00  0.00    +0.000 A 
ATOM     22  C   UNL     1       2.088   8.725  18.253  0.00  0.00    +0.000 A 
ATOM     23  C   UNL     1       1.497   9.651  19.129  0.00  0.00    +0.000 A 
ATOM     24  C   UNL     1       1.072   9.228  20.401  0.00  0.00    +0.000 A 
ATOM     25  C   UNL     1       1.255   7.897  20.801  0.00  0.00    +0.000 A 
BRANCH  23  26
ATOM     26  N   UNL     1       1.345  11.007  18.746  0.00  0.00    +0.000 N 
ATOM     27  C   UNL     1       2.299  11.914  18.353  0.00  0.00    +0.000 A 
ATOM     28  N   UNL     1       1.737  13.085  18.160  0.00  0.00    +0.000 NA
ATOM     29  N   UNL     1       0.405  12.901  18.412  0.00  0.00    +0.000 NA
ATOM     30  N   UNL     1       0.152  11.643  18.755  0.00  0.00    +0.000 NA
ENDBRANCH  23  26
ENDBRANCH  17  20
ENDBRANCH   5  17
TORSDOF 6
ENDMDL
