MODEL 1
REMARK VINA RESULT:      -6.6      0.000      0.000
REMARK  Name = 
REMARK  11 active torsions:
REMARK  status: ('A' for Active; 'I' for Inactive)
REMARK    1  A    between atoms: C_1  and  C_2
REMARK    2  A    between atoms: C_2  and  C_3
REMARK    3  A    between atoms: C_3  and  N_4
REMARK    4  A    between atoms: N_4  and  C_5
REMARK    5  A    between atoms: N_4  and  C_9
REMARK    6  A    between atoms: C_5  and  C_6
REMARK    7  A    between atoms: C_11  and  C_12
REMARK    8  A    between atoms: C_15  and  C_16
REMARK    9  A    between atoms: C_19  and  C_20
REMARK   10  A    between atoms: N_24  and  C_25
REMARK   11  A    between atoms: C_25  and  C_26
REMARK                            x       y       z     vdW  Elec       q    Type
REMARK                         _______ _______ _______ _____ _____    ______ ____
ROOT
ATOM      1  C   UNL     1       3.860   6.254  18.130  0.00  0.00    +0.000 A 
ATOM      2  C   UNL     1       3.527   5.358  19.179  0.00  0.00    +0.000 A 
ATOM      3  C   UNL     1       2.512   5.588  20.136  0.00  0.00    +0.000 A 
ATOM      4  C   UNL     1       2.268   4.561  21.206  0.00  0.00    +0.000 C 
ATOM      5  N   UNL     1       1.751   6.707  20.217  0.00  0.00    +0.000 NA
ATOM      6  C   UNL     1       2.120   7.645  19.323  0.00  0.00    +0.000 A 
ATOM      7  C   UNL     1       1.640   8.945  19.280  0.00  0.00    +0.000 A 
ATOM      8  N   UNL     1       2.302   9.472  18.181  0.00  0.00    +0.000 N 
ATOM      9  N   UNL     1       3.138   8.614  17.559  0.00  0.00    +0.000 NA
ATOM     10  C   UNL     1       3.113   7.473  18.280  0.00  0.00    +0.000 A 
ENDROOT
BRANCH   7  11
ATOM     11  C   UNL     1       0.693   9.661  20.168  0.00  0.00    +0.000 A 
ATOM     12  C   UNL     1       0.991   9.790  21.539  0.00  0.00    +0.000 A 
ATOM     13  C   UNL     1       0.108  10.398  22.440  0.00  0.00    +0.000 A 
ATOM     14  C   UNL     1      -1.076  10.973  21.987  0.00  0.00    +0.000 A 
ATOM     15  C   UNL     1      -2.035  11.636  22.930  0.00  0.00    +0.000 C 
ATOM     16  C   UNL     1      -1.371  10.905  20.625  0.00  0.00    +0.000 A 
ATOM     17  C   UNL     1      -0.523  10.229  19.729  0.00  0.00    +0.000 A 
ATOM     18 CL   UNL     1      -1.151  10.070  18.120  0.00  0.00    +0.000 Cl
ENDBRANCH   7  11
BRANCH   8  19
ATOM     19  C   UNL     1       2.143  10.799  17.607  0.00  0.00    +0.000 C 
ATOM     20  C   UNL     1       2.398  11.973  18.545  0.00  0.00    +0.000 C 
ENDBRANCH   8  19
BRANCH   1  21
ATOM     21  N   UNL     1       4.867   5.913  17.160  0.00  0.00    +0.000 N 
BRANCH  21  22
ATOM     22  C   UNL     1       6.253   6.068  17.653  0.00  0.00    +0.000 C 
BRANCH  22  24
ATOM     23  C   UNL     1       8.064   7.873  18.081  0.00  0.00    +0.000 C 
ATOM     24  C   UNL     1       6.869   7.419  17.252  0.00  0.00    +0.000 C 
ENDBRANCH  22  24
ENDBRANCH  21  22
BRANCH  21  25
ATOM     25  C   UNL     1       4.523   4.693  16.393  0.00  0.00    +0.000 C 
BRANCH  25  26
ATOM     26  C   UNL     1       5.639   4.069  15.591  0.00  0.00    +0.000 C 
ATOM     27  C   UNL     1       5.430   3.980  14.094  0.00  0.00    +0.000 C 
ATOM     28  C   UNL     1       6.511   4.860  14.644  0.00  0.00    +0.000 C 
ENDBRANCH  25  26
ENDBRANCH  21  25
ENDBRANCH   1  21
TORSDOF 7
ENDMDL
MODEL 2
REMARK VINA RESULT:      -6.5      0.870      2.113
REMARK  Name = 
REMARK  11 active torsions:
REMARK  status: ('A' for Active; 'I' for Inactive)
REMARK    1  A    between atoms: C_1  and  C_2
REMARK    2  A    between atoms: C_2  and  C_3
REMARK    3  A    between atoms: C_3  and  N_4
REMARK    4  A    between atoms: N_4  and  C_5
REMARK    5  A    between atoms: N_4  and  C_9
REMARK    6  A    between atoms: C_5  and  C_6
REMARK    7  A    between atoms: C_11  and  C_12
REMARK    8  A    between atoms: C_15  and  C_16
REMARK    9  A    between atoms: C_19  and  C_20
REMARK   10  A    between atoms: N_24  and  C_25
REMARK   11  A    between atoms: C_25  and  C_26
REMARK                            x       y       z     vdW  Elec       q    Type
REMARK                         _______ _______ _______ _____ _____    ______ ____
ROOT
ATOM      1  C   UNL     1       3.748   5.604  18.372  0.00  0.00    +0.000 A 
ATOM      2  C   UNL     1       3.427   4.777  19.478  0.00  0.00    +0.000 A 
ATOM      3  C   UNL     1       2.462   5.094  20.462  0.00  0.00    +0.000 A 
ATOM      4  C   UNL     1       2.225   4.133  21.593  0.00  0.00    +0.000 C 
ATOM      5  N   UNL     1       1.746   6.244  20.515  0.00  0.00    +0.000 NA
ATOM      6  C   UNL     1       2.112   7.120  19.559  0.00  0.00    +0.000 A 
ATOM      7  C   UNL     1       1.678   8.435  19.468  0.00  0.00    +0.000 A 
ATOM      8  N   UNL     1       2.313   8.879  18.317  0.00  0.00    +0.000 N 
ATOM      9  N   UNL     1       3.089   7.958  17.707  0.00  0.00    +0.000 NA
ATOM     10  C   UNL     1       3.053   6.857  18.487  0.00  0.00    +0.000 A 
ENDROOT
BRANCH   7  11
ATOM     11  C   UNL     1       0.796   9.231  20.354  0.00  0.00    +0.000 A 
ATOM     12  C   UNL     1       1.076   9.295  21.733  0.00  0.00    +0.000 A 
ATOM     13  C   UNL     1       0.244   9.976  22.632  0.00  0.00    +0.000 A 
ATOM     14  C   UNL     1      -0.858  10.689  22.170  0.00  0.00    +0.000 A 
ATOM     15  C   UNL     1      -1.759  11.433  23.109  0.00  0.00    +0.000 C 
ATOM     16  C   UNL     1      -1.128  10.685  20.800  0.00  0.00    +0.000 A 
ATOM     17  C   UNL     1      -0.340   9.940  19.904  0.00  0.00    +0.000 A 
ATOM     18 CL   UNL     1      -0.944   9.888  18.280  0.00  0.00    +0.000 Cl
ENDBRANCH   7  11
BRANCH   8  19
ATOM     19  C   UNL     1       2.178  10.181  17.681  0.00  0.00    +0.000 C 
ATOM     20  C   UNL     1       2.500  11.390  18.551  0.00  0.00    +0.000 C 
ENDBRANCH   8  19
BRANCH   1  21
ATOM     21  N   UNL     1       4.700   5.175  17.382  0.00  0.00    +0.000 N 
BRANCH  21  22
ATOM     22  C   UNL     1       4.733   6.026  16.173  0.00  0.00    +0.000 C 
BRANCH  22  24
ATOM     23  C   UNL     1       5.531   4.315  14.395  0.00  0.00    +0.000 C 
ATOM     24  C   UNL     1       5.822   5.589  15.178  0.00  0.00    +0.000 C 
ENDBRANCH  22  24
ENDBRANCH  21  22
BRANCH  21  25
ATOM     25  C   UNL     1       5.986   4.749  17.980  0.00  0.00    +0.000 C 
BRANCH  25  26
ATOM     26  C   UNL     1       6.696   5.767  18.840  0.00  0.00    +0.000 C 
ATOM     27  C   UNL     1       8.165   5.519  19.110  0.00  0.00    +0.000 C 
ATOM     28  C   UNL     1       7.747   6.708  18.299  0.00  0.00    +0.000 C 
ENDBRANCH  25  26
ENDBRANCH  21  25
ENDBRANCH   1  21
TORSDOF 7
ENDMDL
MODEL 3
REMARK VINA RESULT:      -6.4      4.059      9.269
REMARK  Name = 
REMARK  11 active torsions:
REMARK  status: ('A' for Active; 'I' for Inactive)
REMARK    1  A    between atoms: C_1  and  C_2
REMARK    2  A    between atoms: C_2  and  C_3
REMARK    3  A    between atoms: C_3  and  N_4
REMARK    4  A    between atoms: N_4  and  C_5
REMARK    5  A    between atoms: N_4  and  C_9
REMARK    6  A    between atoms: C_5  and  C_6
REMARK    7  A    between atoms: C_11  and  C_12
REMARK    8  A    between atoms: C_15  and  C_16
REMARK    9  A    between atoms: C_19  and  C_20
REMARK   10  A    between atoms: N_24  and  C_25
REMARK   11  A    between atoms: C_25  and  C_26
REMARK                            x       y       z     vdW  Elec       q    Type
REMARK                         _______ _______ _______ _____ _____    ______ ____
ROOT
ATOM      1  C   UNL     1      -0.343  14.559  19.932  0.00  0.00    +0.000 A 
ATOM      2  C   UNL     1       0.922  14.798  20.526  0.00  0.00    +0.000 A 
ATOM      3  C   UNL     1       1.994  13.876  20.528  0.00  0.00    +0.000 A 
ATOM      4  C   UNL     1       3.282  14.250  21.206  0.00  0.00    +0.000 C 
ATOM      5  N   UNL     1       1.951  12.624  20.009  0.00  0.00    +0.000 NA
ATOM      6  C   UNL     1       0.726  12.301  19.550  0.00  0.00    +0.000 A 
ATOM      7  C   UNL     1       0.338  11.041  19.120  0.00  0.00    +0.000 A 
ATOM      8  N   UNL     1      -0.978  11.250  18.732  0.00  0.00    +0.000 N 
ATOM      9  N   UNL     1      -1.420  12.516  18.890  0.00  0.00    +0.000 NA
ATOM     10  C   UNL     1      -0.409  13.200  19.466  0.00  0.00    +0.000 A 
ENDROOT
BRANCH   7  11
ATOM     11  C   UNL     1       1.074   9.754  19.089  0.00  0.00    +0.000 A 
ATOM     12  C   UNL     1       1.718   9.354  17.901  0.00  0.00    +0.000 A 
ATOM     13  C   UNL     1       2.374   8.122  17.788  0.00  0.00    +0.000 A 
ATOM     14  C   UNL     1       2.480   7.276  18.889  0.00  0.00    +0.000 A 
ATOM     15  C   UNL     1       3.184   5.956  18.796  0.00  0.00    +0.000 C 
ATOM     16  C   UNL     1       1.896   7.673  20.092  0.00  0.00    +0.000 A 
ATOM     17  C   UNL     1       1.170   8.874  20.189  0.00  0.00    +0.000 A 
ATOM     18 CL   UNL     1       0.345   9.101  21.697  0.00  0.00    +0.000 Cl
ENDBRANCH   7  11
BRANCH   8  19
ATOM     19  C   UNL     1      -1.884  10.285  18.128  0.00  0.00    +0.000 C 
ATOM     20  C   UNL     1      -2.208  10.499  16.654  0.00  0.00    +0.000 C 
ENDBRANCH   8  19
BRANCH   1  21
ATOM     21  N   UNL     1      -1.359  15.578  19.921  0.00  0.00    +0.000 N 
BRANCH  21  22
ATOM     22  C   UNL     1      -2.339  15.461  21.022  0.00  0.00    +0.000 C 
BRANCH  22  24
ATOM     23  C   UNL     1      -3.055  17.270  22.737  0.00  0.00    +0.000 C 
ATOM     24  C   UNL     1      -1.965  16.332  22.234  0.00  0.00    +0.000 C 
ENDBRANCH  22  24
ENDBRANCH  21  22
BRANCH  21  25
ATOM     25  C   UNL     1      -0.813  16.917  19.600  0.00  0.00    +0.000 C 
BRANCH  25  26
ATOM     26  C   UNL     1      -0.726  17.273  18.136  0.00  0.00    +0.000 C 
ATOM     27  C   UNL     1      -1.368  18.579  17.717  0.00  0.00    +0.000 C 
ATOM     28  C   UNL     1       0.118  18.414  17.618  0.00  0.00    +0.000 C 
ENDBRANCH  25  26
ENDBRANCH  21  25
ENDBRANCH   1  21
TORSDOF 7
ENDMDL
MODEL 4
REMARK VINA RESULT:      -6.2      0.944      2.390
REMARK  Name = 
REMARK  11 active torsions:
REMARK  status: ('A' for Active; 'I' for Inactive)
REMARK    1  A    between atoms: C_1  and  C_2
REMARK    2  A    between atoms: C_2  and  C_3
REMARK    3  A    between atoms: C_3  and  N_4
REMARK    4  A    between atoms: N_4  and  C_5
REMARK    5  A    between atoms: N_4  and  C_9
REMARK    6  A    between atoms: C_5  and  C_6
REMARK    7  A    between atoms: C_11  and  C_12
REMARK    8  A    between atoms: C_15  and  C_16
REMARK    9  A    between atoms: C_19  and  C_20
REMARK   10  A    between atoms: N_24  and  C_25
REMARK   11  A    between atoms: C_25  and  C_26
REMARK                            x       y       z     vdW  Elec       q    Type
REMARK                         _______ _______ _______ _____ _____    ______ ____
ROOT
ATOM      1  C   UNL     1       3.695   5.886  18.416  0.00  0.00    +0.000 A 
ATOM      2  C   UNL     1       3.388   5.053  19.522  0.00  0.00    +0.000 A 
ATOM      3  C   UNL     1       2.414   5.350  20.503  0.00  0.00    +0.000 A 
ATOM      4  C   UNL     1       2.195   4.385  21.635  0.00  0.00    +0.000 C 
ATOM      5  N   UNL     1       1.674   6.485  20.553  0.00  0.00    +0.000 NA
ATOM      6  C   UNL     1       2.024   7.368  19.598  0.00  0.00    +0.000 A 
ATOM      7  C   UNL     1       1.564   8.673  19.505  0.00  0.00    +0.000 A 
ATOM      8  N   UNL     1       2.192   9.130  18.355  0.00  0.00    +0.000 N 
ATOM      9  N   UNL     1       2.988   8.225  17.748  0.00  0.00    +0.000 NA
ATOM     10  C   UNL     1       2.973   7.124  18.528  0.00  0.00    +0.000 A 
ENDROOT
BRANCH   7  11
ATOM     11  C   UNL     1       0.663   9.452  20.388  0.00  0.00    +0.000 A 
ATOM     12  C   UNL     1       0.949   9.539  21.765  0.00  0.00    +0.000 A 
ATOM     13  C   UNL     1       0.103  10.204  22.661  0.00  0.00    +0.000 A 
ATOM     14  C   UNL     1      -1.024  10.878  22.199  0.00  0.00    +0.000 A 
ATOM     15  C   UNL     1      -1.941  11.604  23.137  0.00  0.00    +0.000 C 
ATOM     16  C   UNL     1      -1.302  10.851  20.832  0.00  0.00    +0.000 A 
ATOM     17  C   UNL     1      -0.497  10.120  19.939  0.00  0.00    +0.000 A 
ATOM     18 CL   UNL     1      -1.110  10.033  18.319  0.00  0.00    +0.000 Cl
ENDBRANCH   7  11
BRANCH   8  19
ATOM     19  C   UNL     1       2.031  10.428  17.718  0.00  0.00    +0.000 C 
ATOM     20  C   UNL     1       2.397  11.642  18.564  0.00  0.00    +0.000 C 
ENDBRANCH   8  19
BRANCH   1  21
ATOM     21  N   UNL     1       4.658   5.476  17.428  0.00  0.00    +0.000 N 
BRANCH  21  22
ATOM     22  C   UNL     1       4.147   4.471  16.472  0.00  0.00    +0.000 C 
BRANCH  22  24
ATOM     23  C   UNL     1       2.768   2.440  17.306  0.00  0.00    +0.000 C 
ATOM     24  C   UNL     1       4.142   3.050  17.062  0.00  0.00    +0.000 C 
ENDBRANCH  22  24
ENDBRANCH  21  22
BRANCH  21  25
ATOM     25  C   UNL     1       5.447   6.614  16.902  0.00  0.00    +0.000 C 
BRANCH  25  26
ATOM     26  C   UNL     1       6.946   6.515  17.049  0.00  0.00    +0.000 C 
ATOM     27  C   UNL     1       7.643   7.697  17.691  0.00  0.00    +0.000 C 
ATOM     28  C   UNL     1       7.631   6.371  18.389  0.00  0.00    +0.000 C 
ENDBRANCH  25  26
ENDBRANCH  21  25
ENDBRANCH   1  21
TORSDOF 7
ENDMDL
MODEL 5
REMARK VINA RESULT:      -6.2      3.946      6.857
REMARK  Name = 
REMARK  11 active torsions:
REMARK  status: ('A' for Active; 'I' for Inactive)
REMARK    1  A    between atoms: C_1  and  C_2
REMARK    2  A    between atoms: C_2  and  C_3
REMARK    3  A    between atoms: C_3  and  N_4
REMARK    4  A    between atoms: N_4  and  C_5
REMARK    5  A    between atoms: N_4  and  C_9
REMARK    6  A    between atoms: C_5  and  C_6
REMARK    7  A    between atoms: C_11  and  C_12
REMARK    8  A    between atoms: C_15  and  C_16
REMARK    9  A    between atoms: C_19  and  C_20
REMARK   10  A    between atoms: N_24  and  C_25
REMARK   11  A    between atoms: C_25  and  C_26
REMARK                            x       y       z     vdW  Elec       q    Type
REMARK                         _______ _______ _______ _____ _____    ______ ____
ROOT
ATOM      1  C   UNL     1       0.076  11.044  19.771  0.00  0.00    +0.000 A 
ATOM      2  C   UNL     1       0.188  10.168  20.880  0.00  0.00    +0.000 A 
ATOM      3  C   UNL     1      -0.110  10.524  22.216  0.00  0.00    +0.000 A 
ATOM      4  C   UNL     1       0.063   9.501  23.304  0.00  0.00    +0.000 C 
ATOM      5  N   UNL     1      -0.494  11.757  22.631  0.00  0.00    +0.000 NA
ATOM      6  C   UNL     1      -0.486  12.660  21.631  0.00  0.00    +0.000 A 
ATOM      7  C   UNL     1      -0.669  14.026  21.784  0.00  0.00    +0.000 A 
ATOM      8  N   UNL     1      -0.601  14.484  20.476  0.00  0.00    +0.000 N 
ATOM      9  N   UNL     1      -0.392  13.524  19.550  0.00  0.00    +0.000 NA
ATOM     10  C   UNL     1      -0.243  12.369  20.231  0.00  0.00    +0.000 A 
ENDROOT
BRANCH   7  11
ATOM     11  C   UNL     1      -0.858  14.852  23.000  0.00  0.00    +0.000 A 
ATOM     12  C   UNL     1       0.103  15.830  23.328  0.00  0.00    +0.000 A 
ATOM     13  C   UNL     1       0.016  16.597  24.497  0.00  0.00    +0.000 A 
ATOM     14  C   UNL     1      -1.082  16.470  25.344  0.00  0.00    +0.000 A 
ATOM     15  C   UNL     1      -1.203  17.285  26.596  0.00  0.00    +0.000 C 
ATOM     16  C   UNL     1      -2.074  15.545  25.014  0.00  0.00    +0.000 A 
ATOM     17  C   UNL     1      -1.952  14.719  23.881  0.00  0.00    +0.000 A 
ATOM     18 CL   UNL     1      -3.173  13.494  23.746  0.00  0.00    +0.000 Cl
ENDBRANCH   7  11
BRANCH   8  19
ATOM     19  C   UNL     1      -0.793  15.848  20.007  0.00  0.00    +0.000 C 
ATOM     20  C   UNL     1      -0.273  16.158  18.609  0.00  0.00    +0.000 C 
ENDBRANCH   8  19
BRANCH   1  21
ATOM     21  N   UNL     1       0.339  10.581  18.434  0.00  0.00    +0.000 N 
BRANCH  21  22
ATOM     22  C   UNL     1       1.726  10.112  18.223  0.00  0.00    +0.000 C 
BRANCH  22  24
ATOM     23  C   UNL     1       2.453   7.649  18.582  0.00  0.00    +0.000 C 
ATOM     24  C   UNL     1       1.782   8.675  17.677  0.00  0.00    +0.000 C 
ENDBRANCH  22  24
ENDBRANCH  21  22
BRANCH  21  25
ATOM     25  C   UNL     1      -0.772   9.767  17.889  0.00  0.00    +0.000 C 
BRANCH  25  26
ATOM     26  C   UNL     1      -1.994  10.523  17.430  0.00  0.00    +0.000 C 
ATOM     27  C   UNL     1      -2.742   9.947  16.245  0.00  0.00    +0.000 C 
ATOM     28  C   UNL     1      -3.399   9.988  17.592  0.00  0.00    +0.000 C 
ENDBRANCH  25  26
ENDBRANCH  21  25
ENDBRANCH   1  21
TORSDOF 7
ENDMDL
MODEL 6
REMARK VINA RESULT:      -6.2      1.150      2.554
REMARK  Name = 
REMARK  11 active torsions:
REMARK  status: ('A' for Active; 'I' for Inactive)
REMARK    1  A    between atoms: C_1  and  C_2
REMARK    2  A    between atoms: C_2  and  C_3
REMARK    3  A    between atoms: C_3  and  N_4
REMARK    4  A    between atoms: N_4  and  C_5
REMARK    5  A    between atoms: N_4  and  C_9
REMARK    6  A    between atoms: C_5  and  C_6
REMARK    7  A    between atoms: C_11  and  C_12
REMARK    8  A    between atoms: C_15  and  C_16
REMARK    9  A    between atoms: C_19  and  C_20
REMARK   10  A    between atoms: N_24  and  C_25
REMARK   11  A    between atoms: C_25  and  C_26
REMARK                            x       y       z     vdW  Elec       q    Type
REMARK                         _______ _______ _______ _____ _____    ______ ____
ROOT
ATOM      1  C   UNL     1       3.782   6.069  18.339  0.00  0.00    +0.000 A 
ATOM      2  C   UNL     1       3.443   5.215  19.420  0.00  0.00    +0.000 A 
ATOM      3  C   UNL     1       2.423   5.482  20.362  0.00  0.00    +0.000 A 
ATOM      4  C   UNL     1       2.173   4.498  21.471  0.00  0.00    +0.000 C 
ATOM      5  N   UNL     1       1.662   6.604  20.397  0.00  0.00    +0.000 NA
ATOM      6  C   UNL     1       2.037   7.506  19.469  0.00  0.00    +0.000 A 
ATOM      7  C   UNL     1       1.557   8.804  19.374  0.00  0.00    +0.000 A 
ATOM      8  N   UNL     1       2.226   9.288  18.258  0.00  0.00    +0.000 N 
ATOM      9  N   UNL     1       3.063   8.406  17.674  0.00  0.00    +0.000 NA
ATOM     10  C   UNL     1       3.034   7.294  18.438  0.00  0.00    +0.000 A 
ENDROOT
BRANCH   7  11
ATOM     11  C   UNL     1       0.606   9.555  20.228  0.00  0.00    +0.000 A 
ATOM     12  C   UNL     1      -0.499  10.197  19.634  0.00  0.00    +0.000 A 
ATOM     13  C   UNL     1      -1.396  10.975  20.376  0.00  0.00    +0.000 A 
ATOM     14  C   UNL     1      -1.268  11.073  21.759  0.00  0.00    +0.000 A 
ATOM     15  C   UNL     1      -2.220  11.892  22.577  0.00  0.00    +0.000 C 
ATOM     16  C   UNL     1      -0.212  10.403  22.379  0.00  0.00    +0.000 A 
ATOM     17  C   UNL     1       0.736   9.683  21.628  0.00  0.00    +0.000 A 
ATOM     18 CL   UNL     1       2.086   9.093  22.542  0.00  0.00    +0.000 Cl
ENDBRANCH   7  11
BRANCH   8  19
ATOM     19  C   UNL     1       2.070  10.592  17.632  0.00  0.00    +0.000 C 
ATOM     20  C   UNL     1       2.576  11.786  18.432  0.00  0.00    +0.000 C 
ENDBRANCH   8  19
BRANCH   1  21
ATOM     21  N   UNL     1       4.793   5.690  17.388  0.00  0.00    +0.000 N 
BRANCH  21  22
ATOM     22  C   UNL     1       4.338   4.699  16.390  0.00  0.00    +0.000 C 
BRANCH  22  24
ATOM     23  C   UNL     1       5.812   4.147  14.330  0.00  0.00    +0.000 C 
ATOM     24  C   UNL     1       5.502   3.886  15.798  0.00  0.00    +0.000 C 
ENDBRANCH  22  24
ENDBRANCH  21  22
BRANCH  21  25
ATOM     25  C   UNL     1       5.592   6.847  16.921  0.00  0.00    +0.000 C 
BRANCH  25  26
ATOM     26  C   UNL     1       7.088   6.739  17.087  0.00  0.00    +0.000 C 
ATOM     27  C   UNL     1       7.783   7.913  17.746  0.00  0.00    +0.000 C 
ATOM     28  C   UNL     1       7.755   6.582  18.435  0.00  0.00    +0.000 C 
ENDBRANCH  25  26
ENDBRANCH  21  25
ENDBRANCH   1  21
TORSDOF 7
ENDMDL
MODEL 7
REMARK VINA RESULT:      -6.1      2.327      4.283
REMARK  Name = 
REMARK  11 active torsions:
REMARK  status: ('A' for Active; 'I' for Inactive)
REMARK    1  A    between atoms: C_1  and  C_2
REMARK    2  A    between atoms: C_2  and  C_3
REMARK    3  A    between atoms: C_3  and  N_4
REMARK    4  A    between atoms: N_4  and  C_5
REMARK    5  A    between atoms: N_4  and  C_9
REMARK    6  A    between atoms: C_5  and  C_6
REMARK    7  A    between atoms: C_11  and  C_12
REMARK    8  A    between atoms: C_15  and  C_16
REMARK    9  A    between atoms: C_19  and  C_20
REMARK   10  A    between atoms: N_24  and  C_25
REMARK   11  A    between atoms: C_25  and  C_26
REMARK                            x       y       z     vdW  Elec       q    Type
REMARK                         _______ _______ _______ _____ _____    ______ ____
ROOT
ATOM      1  C   UNL     1       2.517   5.885  19.493  0.00  0.00    +0.000 A 
ATOM      2  C   UNL     1       3.221   6.204  18.304  0.00  0.00    +0.000 A 
ATOM      3  C   UNL     1       3.325   7.504  17.758  0.00  0.00    +0.000 A 
ATOM      4  C   UNL     1       4.093   7.704  16.482  0.00  0.00    +0.000 C 
ATOM      5  N   UNL     1       2.730   8.614  18.261  0.00  0.00    +0.000 NA
ATOM      6  C   UNL     1       1.940   8.339  19.317  0.00  0.00    +0.000 A 
ATOM      7  C   UNL     1       1.080   9.238  19.930  0.00  0.00    +0.000 A 
ATOM      8  N   UNL     1       0.538   8.479  20.957  0.00  0.00    +0.000 N 
ATOM      9  N   UNL     1       0.987   7.208  21.019  0.00  0.00    +0.000 NA
ATOM     10  C   UNL     1       1.817   7.049  19.967  0.00  0.00    +0.000 A 
ENDROOT
BRANCH   7  11
ATOM     11  C   UNL     1       0.752  10.647  19.604  0.00  0.00    +0.000 A 
ATOM     12  C   UNL     1       1.383  11.686  20.316  0.00  0.00    +0.000 A 
ATOM     13  C   UNL     1       1.069  13.035  20.100  0.00  0.00    +0.000 A 
ATOM     14  C   UNL     1       0.166  13.398  19.105  0.00  0.00    +0.000 A 
ATOM     15  C   UNL     1      -0.181  14.833  18.848  0.00  0.00    +0.000 C 
ATOM     16  C   UNL     1      -0.434  12.389  18.350  0.00  0.00    +0.000 A 
ATOM     17  C   UNL     1      -0.178  11.031  18.614  0.00  0.00    +0.000 A 
ATOM     18 CL   UNL     1      -1.166   9.922  17.719  0.00  0.00    +0.000 Cl
ENDBRANCH   7  11
BRANCH   8  19
ATOM     19  C   UNL     1      -0.391   8.921  21.985  0.00  0.00    +0.000 C 
ATOM     20  C   UNL     1       0.232   9.485  23.257  0.00  0.00    +0.000 C 
ENDBRANCH   8  19
BRANCH   1  21
ATOM     21  N   UNL     1       2.515   4.543  20.013  0.00  0.00    +0.000 N 
BRANCH  21  22
ATOM     22  C   UNL     1       1.190   3.889  19.983  0.00  0.00    +0.000 C 
BRANCH  22  24
ATOM     23  C   UNL     1       2.144   2.745  22.105  0.00  0.00    +0.000 C 
ATOM     24  C   UNL     1       1.064   2.771  21.031  0.00  0.00    +0.000 C 
ENDBRANCH  22  24
ENDBRANCH  21  22
BRANCH  21  25
ATOM     25  C   UNL     1       3.697   3.765  19.575  0.00  0.00    +0.000 C 
BRANCH  25  26
ATOM     26  C   UNL     1       3.621   3.147  18.201  0.00  0.00    +0.000 C 
ATOM     27  C   UNL     1       3.597   1.634  18.138  0.00  0.00    +0.000 C 
ATOM     28  C   UNL     1       2.398   2.416  17.696  0.00  0.00    +0.000 C 
ENDBRANCH  25  26
ENDBRANCH  21  25
ENDBRANCH   1  21
TORSDOF 7
ENDMDL
MODEL 8
REMARK VINA RESULT:      -6.1      2.408      4.510
REMARK  Name = 
REMARK  11 active torsions:
REMARK  status: ('A' for Active; 'I' for Inactive)
REMARK    1  A    between atoms: C_1  and  C_2
REMARK    2  A    between atoms: C_2  and  C_3
REMARK    3  A    between atoms: C_3  and  N_4
REMARK    4  A    between atoms: N_4  and  C_5
REMARK    5  A    between atoms: N_4  and  C_9
REMARK    6  A    between atoms: C_5  and  C_6
REMARK    7  A    between atoms: C_11  and  C_12
REMARK    8  A    between atoms: C_15  and  C_16
REMARK    9  A    between atoms: C_19  and  C_20
REMARK   10  A    between atoms: N_24  and  C_25
REMARK   11  A    between atoms: C_25  and  C_26
REMARK                            x       y       z     vdW  Elec       q    Type
REMARK                         _______ _______ _______ _____ _____    ______ ____
ROOT
ATOM      1  C   UNL     1       2.430   6.063  19.764  0.00  0.00    +0.000 A 
ATOM      2  C   UNL     1       3.119   6.316  18.550  0.00  0.00    +0.000 A 
ATOM      3  C   UNL     1       3.206   7.582  17.926  0.00  0.00    +0.000 A 
ATOM      4  C   UNL     1       3.958   7.711  16.631  0.00  0.00    +0.000 C 
ATOM      5  N   UNL     1       2.608   8.716  18.369  0.00  0.00    +0.000 NA
ATOM      6  C   UNL     1       1.832   8.498  19.448  0.00  0.00    +0.000 A 
ATOM      7  C   UNL     1       0.972   9.426  20.017  0.00  0.00    +0.000 A 
ATOM      8  N   UNL     1       0.447   8.725  21.093  0.00  0.00    +0.000 N 
ATOM      9  N   UNL     1       0.907   7.463  21.225  0.00  0.00    +0.000 NA
ATOM     10  C   UNL     1       1.727   7.248  20.175  0.00  0.00    +0.000 A 
ENDROOT
BRANCH   7  11
ATOM     11  C   UNL     1       0.629  10.810  19.612  0.00  0.00    +0.000 A 
ATOM     12  C   UNL     1       1.349  11.890  20.160  0.00  0.00    +0.000 A 
ATOM     13  C   UNL     1       1.031  13.223  19.868  0.00  0.00    +0.000 A 
ATOM     14  C   UNL     1       0.029  13.524  18.950  0.00  0.00    +0.000 A 
ATOM     15  C   UNL     1      -0.325  14.941  18.613  0.00  0.00    +0.000 C 
ATOM     16  C   UNL     1      -0.665  12.470  18.353  0.00  0.00    +0.000 A 
ATOM     17  C   UNL     1      -0.400  11.133  18.701  0.00  0.00    +0.000 A 
ATOM     18 CL   UNL     1      -1.496   9.977  18.015  0.00  0.00    +0.000 Cl
ENDBRANCH   7  11
BRANCH   8  19
ATOM     19  C   UNL     1      -0.474   9.221  22.104  0.00  0.00    +0.000 C 
ATOM     20  C   UNL     1       0.132   9.546  23.465  0.00  0.00    +0.000 C 
ENDBRANCH   8  19
BRANCH   1  21
ATOM     21  N   UNL     1       2.445   4.755  20.363  0.00  0.00    +0.000 N 
BRANCH  21  22
ATOM     22  C   UNL     1       1.145   4.054  20.306  0.00  0.00    +0.000 C 
BRANCH  22  24
ATOM     23  C   UNL     1       0.565   2.077  18.731  0.00  0.00    +0.000 C 
ATOM     24  C   UNL     1       0.799   3.574  18.886  0.00  0.00    +0.000 C 
ENDBRANCH  22  24
ENDBRANCH  21  22
BRANCH  21  25
ATOM     25  C   UNL     1       3.672   3.995  20.031  0.00  0.00    +0.000 C 
BRANCH  25  26
ATOM     26  C   UNL     1       3.662   2.524  20.369  0.00  0.00    +0.000 C 
ATOM     27  C   UNL     1       4.111   1.575  19.279  0.00  0.00    +0.000 C 
ATOM     28  C   UNL     1       4.926   1.710  20.529  0.00  0.00    +0.000 C 
ENDBRANCH  25  26
ENDBRANCH  21  25
ENDBRANCH   1  21
TORSDOF 7
ENDMDL
MODEL 9
REMARK VINA RESULT:      -6.1      4.642      8.772
REMARK  Name = 
REMARK  11 active torsions:
REMARK  status: ('A' for Active; 'I' for Inactive)
REMARK    1  A    between atoms: C_1  and  C_2
REMARK    2  A    between atoms: C_2  and  C_3
REMARK    3  A    between atoms: C_3  and  N_4
REMARK    4  A    between atoms: N_4  and  C_5
REMARK    5  A    between atoms: N_4  and  C_9
REMARK    6  A    between atoms: C_5  and  C_6
REMARK    7  A    between atoms: C_11  and  C_12
REMARK    8  A    between atoms: C_15  and  C_16
REMARK    9  A    between atoms: C_19  and  C_20
REMARK   10  A    between atoms: N_24  and  C_25
REMARK   11  A    between atoms: C_25  and  C_26
REMARK                            x       y       z     vdW  Elec       q    Type
REMARK                         _______ _______ _______ _____ _____    ______ ____
ROOT
ATOM      1  C   UNL     1      -1.203  11.786  18.338  0.00  0.00    +0.000 A 
ATOM      2  C   UNL     1      -0.422  10.609  18.208  0.00  0.00    +0.000 A 
ATOM      3  C   UNL     1       0.970  10.541  18.445  0.00  0.00    +0.000 A 
ATOM      4  C   UNL     1       1.683   9.231  18.258  0.00  0.00    +0.000 C 
ATOM      5  N   UNL     1       1.759  11.591  18.782  0.00  0.00    +0.000 NA
ATOM      6  C   UNL     1       1.086  12.758  18.788  0.00  0.00    +0.000 A 
ATOM      7  C   UNL     1       1.658  14.013  18.930  0.00  0.00    +0.000 A 
ATOM      8  N   UNL     1       0.552  14.850  18.899  0.00  0.00    +0.000 N 
ATOM      9  N   UNL     1      -0.632  14.219  18.751  0.00  0.00    +0.000 NA
ATOM     10  C   UNL     1      -0.345  12.908  18.605  0.00  0.00    +0.000 A 
ENDROOT
BRANCH   7  11
ATOM     11  C   UNL     1       3.076  14.427  19.051  0.00  0.00    +0.000 A 
ATOM     12  C   UNL     1       3.884  14.475  17.898  0.00  0.00    +0.000 A 
ATOM     13  C   UNL     1       5.247  14.795  17.955  0.00  0.00    +0.000 A 
ATOM     14  C   UNL     1       5.835  15.159  19.162  0.00  0.00    +0.000 A 
ATOM     15  C   UNL     1       7.289  15.514  19.249  0.00  0.00    +0.000 C 
ATOM     16  C   UNL     1       5.044  15.170  20.312  0.00  0.00    +0.000 A 
ATOM     17  C   UNL     1       3.694  14.776  20.272  0.00  0.00    +0.000 A 
ATOM     18 CL   UNL     1       2.930  14.655  21.823  0.00  0.00    +0.000 Cl
ENDBRANCH   7  11
BRANCH   8  19
ATOM     19  C   UNL     1       0.533  16.295  19.073  0.00  0.00    +0.000 C 
ATOM     20  C   UNL     1      -0.171  17.094  17.984  0.00  0.00    +0.000 C 
ENDBRANCH   8  19
BRANCH   1  21
ATOM     21  N   UNL     1      -2.628  11.752  18.138  0.00  0.00    +0.000 N 
BRANCH  21  22
ATOM     22  C   UNL     1      -3.092  10.616  17.313  0.00  0.00    +0.000 C 
BRANCH  22  24
ATOM     23  C   UNL     1      -3.021  10.053  14.783  0.00  0.00    +0.000 C 
ATOM     24  C   UNL     1      -3.429  11.037  15.873  0.00  0.00    +0.000 C 
ENDBRANCH  22  24
ENDBRANCH  21  22
BRANCH  21  25
ATOM     25  C   UNL     1      -3.380  12.084  19.370  0.00  0.00    +0.000 C 
BRANCH  25  26
ATOM     26  C   UNL     1      -4.882  11.951  19.295  0.00  0.00    +0.000 C 
ATOM     27  C   UNL     1      -5.660  12.347  20.532  0.00  0.00    +0.000 C 
ATOM     28  C   UNL     1      -5.811  13.143  19.271  0.00  0.00    +0.000 C 
ENDBRANCH  25  26
ENDBRANCH  21  25
ENDBRANCH   1  21
TORSDOF 7
ENDMDL
