MODEL 1
REMARK VINA RESULT:      -7.3      0.000      0.000
REMARK  Name = 
REMARK  4 active torsions:
REMARK  status: ('A' for Active; 'I' for Inactive)
REMARK    1  A    between atoms: C_1  and  C_2
REMARK    2  A    between atoms: C_2  and  C_3
REMARK    3  A    between atoms: C_3  and  C_4
REMARK    4  A    between atoms: N_6  and  C_7
REMARK                            x       y       z     vdW  Elec       q    Type
REMARK                         _______ _______ _______ _____ _____    ______ ____
ROOT
ATOM      1  C   UNL     1       3.795   6.351  17.647  0.00  0.00    +0.000 A 
ATOM      2  N   UNL     1       3.434   7.604  17.339  0.00  0.00    +0.000 NA
ATOM      3  C   UNL     1       2.560   8.212  18.123  0.00  0.00    +0.000 A 
ATOM      4  N   UNL     1       2.200   9.499  17.785  0.00  0.00    +0.000 N 
ATOM      5  N   UNL     1       2.050   7.686  19.230  0.00  0.00    +0.000 NA
ATOM      6  C   UNL     1       2.387   6.431  19.532  0.00  0.00    +0.000 A 
ATOM      7  C   UNL     1       1.829   5.917  20.687  0.00  0.00    +0.000 A 
ATOM      8  C   UNL     1       2.068   4.618  21.131  0.00  0.00    +0.000 A 
ATOM      9  C   UNL     1       2.906   3.825  20.354  0.00  0.00    +0.000 A 
ATOM     10  N   UNL     1       3.283   2.517  20.559  0.00  0.00    +0.000 N 
ATOM     11  C   UNL     1       4.120   2.110  19.565  0.00  0.00    +0.000 A 
ATOM     12  C   UNL     1       4.290   3.170  18.706  0.00  0.00    +0.000 A 
ATOM     13  C   UNL     1       3.520   4.282  19.182  0.00  0.00    +0.000 A 
ATOM     14  C   UNL     1       3.264   5.648  18.752  0.00  0.00    +0.000 A 
ATOM     15  H   UNL     1       2.919   9.882  17.181  0.00  0.00    +0.000 HD
ATOM     16  H   UNL     1       1.964  10.022  18.614  0.00  0.00    +0.000 HD
ATOM     17  H   UNL     1       2.974   1.946  21.336  0.00  0.00    +0.000 HD
ENDROOT
BRANCH   1  20
ATOM     18  C   UNL     1       6.108   5.965  16.856  0.00  0.00    +0.000 C 
ATOM     19  O   UNL     1       6.725   6.626  17.685  0.00  0.00    +0.000 OA
ATOM     20  N   UNL     1       4.745   5.747  16.802  0.00  0.00    +0.000 N 
ATOM     21  H   UNL     1       4.416   5.052  16.163  0.00  0.00    +0.000 HD
BRANCH  18  22
ATOM     22  C   UNL     1       6.864   5.222  15.768  0.00  0.00    +0.000 C 
BRANCH  22  24
ATOM     23  C   UNL     1       6.084   3.926  13.732  0.00  0.00    +0.000 C 
ATOM     24  C   UNL     1       6.121   3.993  15.252  0.00  0.00    +0.000 C 
ENDBRANCH  22  24
ENDBRANCH  18  22
ENDBRANCH   1  20
TORSDOF 3
ENDMDL
MODEL 2
REMARK VINA RESULT:      -7.3      2.034      4.857
REMARK  Name = 
REMARK  4 active torsions:
REMARK  status: ('A' for Active; 'I' for Inactive)
REMARK    1  A    between atoms: C_1  and  C_2
REMARK    2  A    between atoms: C_2  and  C_3
REMARK    3  A    between atoms: C_3  and  C_4
REMARK    4  A    between atoms: N_6  and  C_7
REMARK                            x       y       z     vdW  Elec       q    Type
REMARK                         _______ _______ _______ _____ _____    ______ ____
ROOT
ATOM      1  C   UNL     1       3.284   6.339  18.165  0.00  0.00    +0.000 A 
ATOM      2  N   UNL     1       4.105   6.899  17.266  0.00  0.00    +0.000 NA
ATOM      3  C   UNL     1       4.829   6.101  16.500  0.00  0.00    +0.000 A 
ATOM      4  N   UNL     1       5.669   6.700  15.586  0.00  0.00    +0.000 N 
ATOM      5  N   UNL     1       4.763   4.776  16.521  0.00  0.00    +0.000 NA
ATOM      6  C   UNL     1       3.965   4.209  17.428  0.00  0.00    +0.000 A 
ATOM      7  C   UNL     1       3.932   2.828  17.423  0.00  0.00    +0.000 A 
ATOM      8  C   UNL     1       3.161   2.086  18.316  0.00  0.00    +0.000 A 
ATOM      9  C   UNL     1       2.409   2.794  19.246  0.00  0.00    +0.000 A 
ATOM     10  N   UNL     1       1.589   2.305  20.239  0.00  0.00    +0.000 N 
ATOM     11  C   UNL     1       1.029   3.335  20.932  0.00  0.00    +0.000 A 
ATOM     12  C   UNL     1       1.489   4.507  20.380  0.00  0.00    +0.000 A 
ATOM     13  C   UNL     1       2.380   4.193  19.301  0.00  0.00    +0.000 A 
ATOM     14  C   UNL     1       3.181   4.941  18.344  0.00  0.00    +0.000 A 
ATOM     15  H   UNL     1       5.342   7.646  15.425  0.00  0.00    +0.000 HD
ATOM     16  H   UNL     1       5.783   6.106  14.779  0.00  0.00    +0.000 HD
ATOM     17  H   UNL     1       1.434   1.322  20.423  0.00  0.00    +0.000 HD
ENDROOT
BRANCH   1  20
ATOM     18  C   UNL     1       2.002   8.428  18.507  0.00  0.00    +0.000 C 
ATOM     19  O   UNL     1       2.046   8.887  17.371  0.00  0.00    +0.000 OA
ATOM     20  N   UNL     1       2.513   7.221  18.944  0.00  0.00    +0.000 N 
ATOM     21  H   UNL     1       2.251   6.917  19.861  0.00  0.00    +0.000 HD
BRANCH  18  22
ATOM     22  C   UNL     1       1.271   9.185  19.602  0.00  0.00    +0.000 C 
BRANCH  22  24
ATOM     23  C   UNL     1      -0.151   8.622  21.625  0.00  0.00    +0.000 C 
ATOM     24  C   UNL     1       1.177   8.408  20.912  0.00  0.00    +0.000 C 
ENDBRANCH  22  24
ENDBRANCH  18  22
ENDBRANCH   1  20
TORSDOF 3
ENDMDL
MODEL 3
REMARK VINA RESULT:      -7.3      1.151      3.979
REMARK  Name = 
REMARK  4 active torsions:
REMARK  status: ('A' for Active; 'I' for Inactive)
REMARK    1  A    between atoms: C_1  and  C_2
REMARK    2  A    between atoms: C_2  and  C_3
REMARK    3  A    between atoms: C_3  and  C_4
REMARK    4  A    between atoms: N_6  and  C_7
REMARK                            x       y       z     vdW  Elec       q    Type
REMARK                         _______ _______ _______ _____ _____    ______ ____
ROOT
ATOM      1  C   UNL     1       4.770   4.017  18.433  0.00  0.00    +0.000 A 
ATOM      2  N   UNL     1       5.150   2.827  18.918  0.00  0.00    +0.000 NA
ATOM      3  C   UNL     1       4.568   2.389  20.021  0.00  0.00    +0.000 A 
ATOM      4  N   UNL     1       4.977   1.164  20.504  0.00  0.00    +0.000 N 
ATOM      5  N   UNL     1       3.592   3.023  20.659  0.00  0.00    +0.000 NA
ATOM      6  C   UNL     1       3.223   4.219  20.196  0.00  0.00    +0.000 A 
ATOM      7  C   UNL     1       2.211   4.850  20.893  0.00  0.00    +0.000 A 
ATOM      8  C   UNL     1       1.723   6.109  20.546  0.00  0.00    +0.000 A 
ATOM      9  C   UNL     1       2.306   6.735  19.450  0.00  0.00    +0.000 A 
ATOM     10  N   UNL     1       2.023   7.974  18.920  0.00  0.00    +0.000 N 
ATOM     11  C   UNL     1       2.818   8.213  17.840  0.00  0.00    +0.000 A 
ATOM     12  C   UNL     1       3.625   7.113  17.666  0.00  0.00    +0.000 A 
ATOM     13  C   UNL     1       3.323   6.151  18.687  0.00  0.00    +0.000 A 
ATOM     14  C   UNL     1       3.800   4.829  19.062  0.00  0.00    +0.000 A 
ATOM     15  H   UNL     1       5.416   0.654  19.746  0.00  0.00    +0.000 HD
ATOM     16  H   UNL     1       4.217   0.711  20.988  0.00  0.00    +0.000 HD
ATOM     17  H   UNL     1       1.328   8.611  19.287  0.00  0.00    +0.000 HD
ENDROOT
BRANCH   1  20
ATOM     18  C   UNL     1       6.749   4.668  17.099  0.00  0.00    +0.000 C 
ATOM     19  O   UNL     1       7.633   4.462  17.924  0.00  0.00    +0.000 OA
ATOM     20  N   UNL     1       5.395   4.437  17.244  0.00  0.00    +0.000 N 
ATOM     21  H   UNL     1       4.828   4.502  16.423  0.00  0.00    +0.000 HD
BRANCH  18  22
ATOM     22  C   UNL     1       7.111   5.179  15.715  0.00  0.00    +0.000 C 
BRANCH  22  24
ATOM     23  C   UNL     1       6.199   3.907  13.720  0.00  0.00    +0.000 C 
ATOM     24  C   UNL     1       5.974   5.043  14.707  0.00  0.00    +0.000 C 
ENDBRANCH  22  24
ENDBRANCH  18  22
ENDBRANCH   1  20
TORSDOF 3
ENDMDL
MODEL 4
REMARK VINA RESULT:      -7.2      1.345      4.002
REMARK  Name = 
REMARK  4 active torsions:
REMARK  status: ('A' for Active; 'I' for Inactive)
REMARK    1  A    between atoms: C_1  and  C_2
REMARK    2  A    between atoms: C_2  and  C_3
REMARK    3  A    between atoms: C_3  and  C_4
REMARK    4  A    between atoms: N_6  and  C_7
REMARK                            x       y       z     vdW  Elec       q    Type
REMARK                         _______ _______ _______ _____ _____    ______ ____
ROOT
ATOM      1  C   UNL     1       3.942   3.759  17.514  0.00  0.00    +0.000 A 
ATOM      2  N   UNL     1       4.165   2.445  17.655  0.00  0.00    +0.000 NA
ATOM      3  C   UNL     1       3.703   1.847  18.740  0.00  0.00    +0.000 A 
ATOM      4  N   UNL     1       3.948   0.496  18.866  0.00  0.00    +0.000 N 
ATOM      5  N   UNL     1       2.987   2.448  19.682  0.00  0.00    +0.000 NA
ATOM      6  C   UNL     1       2.779   3.760  19.561  0.00  0.00    +0.000 A 
ATOM      7  C   UNL     1       2.036   4.349  20.566  0.00  0.00    +0.000 A 
ATOM      8  C   UNL     1       1.746   5.711  20.594  0.00  0.00    +0.000 A 
ATOM      9  C   UNL     1       2.244   6.489  19.554  0.00  0.00    +0.000 A 
ATOM     10  N   UNL     1       2.117   7.846  19.360  0.00  0.00    +0.000 N 
ATOM     11  C   UNL     1       2.751   8.215  18.213  0.00  0.00    +0.000 A 
ATOM     12  C   UNL     1       3.293   7.082  17.654  0.00  0.00    +0.000 A 
ATOM     13  C   UNL     1       2.990   5.959  18.494  0.00  0.00    +0.000 A 
ATOM     14  C   UNL     1       3.263   4.531  18.483  0.00  0.00    +0.000 A 
ATOM     15  H   UNL     1       4.149   0.122  17.945  0.00  0.00    +0.000 HD
ATOM     16  H   UNL     1       3.207   0.057  19.392  0.00  0.00    +0.000 HD
ATOM     17  H   UNL     1       1.627   8.472  19.986  0.00  0.00    +0.000 HD
ENDROOT
BRANCH   1  20
ATOM     18  C   UNL     1       5.752   4.652  16.084  0.00  0.00    +0.000 C 
ATOM     19  O   UNL     1       6.724   4.375  16.781  0.00  0.00    +0.000 OA
ATOM     20  N   UNL     1       4.427   4.353  16.334  0.00  0.00    +0.000 N 
ATOM     21  H   UNL     1       3.775   4.502  15.591  0.00  0.00    +0.000 HD
BRANCH  18  22
ATOM     22  C   UNL     1       5.953   5.352  14.751  0.00  0.00    +0.000 C 
BRANCH  22  24
ATOM     23  C   UNL     1       6.056   3.596  12.924  0.00  0.00    +0.000 C 
ATOM     24  C   UNL     1       6.843   4.571  13.789  0.00  0.00    +0.000 C 
ENDBRANCH  22  24
ENDBRANCH  18  22
ENDBRANCH   1  20
TORSDOF 3
ENDMDL
MODEL 5
REMARK VINA RESULT:      -7.2      1.518      2.004
REMARK  Name = 
REMARK  4 active torsions:
REMARK  status: ('A' for Active; 'I' for Inactive)
REMARK    1  A    between atoms: C_1  and  C_2
REMARK    2  A    between atoms: C_2  and  C_3
REMARK    3  A    between atoms: C_3  and  C_4
REMARK    4  A    between atoms: N_6  and  C_7
REMARK                            x       y       z     vdW  Elec       q    Type
REMARK                         _______ _______ _______ _____ _____    ______ ____
ROOT
ATOM      1  C   UNL     1       2.878   6.250  18.770  0.00  0.00    +0.000 A 
ATOM      2  N   UNL     1       2.533   7.384  19.398  0.00  0.00    +0.000 NA
ATOM      3  C   UNL     1       1.802   7.291  20.494  0.00  0.00    +0.000 A 
ATOM      4  N   UNL     1       1.456   8.471  21.121  0.00  0.00    +0.000 N 
ATOM      5  N   UNL     1       1.423   6.148  21.051  0.00  0.00    +0.000 NA
ATOM      6  C   UNL     1       1.741   5.016  20.421  0.00  0.00    +0.000 A 
ATOM      7  C   UNL     1       1.321   3.848  21.029  0.00  0.00    +0.000 A 
ATOM      8  C   UNL     1       1.561   2.586  20.490  0.00  0.00    +0.000 A 
ATOM      9  C   UNL     1       2.250   2.530  19.284  0.00  0.00    +0.000 A 
ATOM     10  N   UNL     1       2.593   1.422  18.542  0.00  0.00    +0.000 N 
ATOM     11  C   UNL     1       3.270   1.801  17.422  0.00  0.00    +0.000 A 
ATOM     12  C   UNL     1       3.370   3.173  17.441  0.00  0.00    +0.000 A 
ATOM     13  C   UNL     1       2.720   3.669  18.619  0.00  0.00    +0.000 A 
ATOM     14  C   UNL     1       2.470   4.972  19.214  0.00  0.00    +0.000 A 
ATOM     15  H   UNL     1       2.103   9.191  20.821  0.00  0.00    +0.000 HD
ATOM     16  H   UNL     1       1.358   8.319  22.113  0.00  0.00    +0.000 HD
ATOM     17  H   UNL     1       2.367   0.469  18.795  0.00  0.00    +0.000 HD
ENDROOT
BRANCH   1  20
ATOM     18  C   UNL     1       5.052   6.259  17.589  0.00  0.00    +0.000 C 
ATOM     19  O   UNL     1       5.789   5.917  18.508  0.00  0.00    +0.000 OA
ATOM     20  N   UNL     1       3.677   6.389  17.620  0.00  0.00    +0.000 N 
ATOM     21  H   UNL     1       3.208   6.517  16.746  0.00  0.00    +0.000 HD
BRANCH  18  22
ATOM     22  C   UNL     1       5.635   6.534  16.214  0.00  0.00    +0.000 C 
BRANCH  22  24
ATOM     23  C   UNL     1       6.414   4.233  15.487  0.00  0.00    +0.000 C 
ATOM     24  C   UNL     1       5.443   5.377  15.237  0.00  0.00    +0.000 C 
ENDBRANCH  22  24
ENDBRANCH  18  22
ENDBRANCH   1  20
TORSDOF 3
ENDMDL
MODEL 6
REMARK VINA RESULT:      -7.1      1.874      2.543
REMARK  Name = 
REMARK  4 active torsions:
REMARK  status: ('A' for Active; 'I' for Inactive)
REMARK    1  A    between atoms: C_1  and  C_2
REMARK    2  A    between atoms: C_2  and  C_3
REMARK    3  A    between atoms: C_3  and  C_4
REMARK    4  A    between atoms: N_6  and  C_7
REMARK                            x       y       z     vdW  Elec       q    Type
REMARK                         _______ _______ _______ _____ _____    ______ ____
ROOT
ATOM      1  C   UNL     1       3.051   6.195  18.966  0.00  0.00    +0.000 A 
ATOM      2  N   UNL     1       2.622   7.319  19.556  0.00  0.00    +0.000 NA
ATOM      3  C   UNL     1       1.708   7.216  20.505  0.00  0.00    +0.000 A 
ATOM      4  N   UNL     1       1.279   8.386  21.095  0.00  0.00    +0.000 N 
ATOM      5  N   UNL     1       1.217   6.068  20.954  0.00  0.00    +0.000 NA
ATOM      6  C   UNL     1       1.621   4.945  20.357  0.00  0.00    +0.000 A 
ATOM      7  C   UNL     1       1.080   3.772  20.848  0.00  0.00    +0.000 A 
ATOM      8  C   UNL     1       1.388   2.519  20.323  0.00  0.00    +0.000 A 
ATOM      9  C   UNL     1       2.276   2.478  19.254  0.00  0.00    +0.000 A 
ATOM     10  N   UNL     1       2.724   1.382  18.551  0.00  0.00    +0.000 N 
ATOM     11  C   UNL     1       3.593   1.774  17.578  0.00  0.00    +0.000 A 
ATOM     12  C   UNL     1       3.713   3.142  17.654  0.00  0.00    +0.000 A 
ATOM     13  C   UNL     1       2.876   3.623  18.715  0.00  0.00    +0.000 A 
ATOM     14  C   UNL     1       2.548   4.916  19.295  0.00  0.00    +0.000 A 
ATOM     15  H   UNL     1       1.981   9.099  20.934  0.00  0.00    +0.000 HD
ATOM     16  H   UNL     1       1.006   8.213  22.050  0.00  0.00    +0.000 HD
ATOM     17  H   UNL     1       2.440   0.428  18.734  0.00  0.00    +0.000 HD
ENDROOT
BRANCH   1  20
ATOM     18  C   UNL     1       5.387   6.093  18.159  0.00  0.00    +0.000 C 
ATOM     19  O   UNL     1       5.930   5.619  19.151  0.00  0.00    +0.000 OA
ATOM     20  N   UNL     1       4.041   6.345  17.978  0.00  0.00    +0.000 N 
ATOM     21  H   UNL     1       3.738   6.579  17.053  0.00  0.00    +0.000 HD
BRANCH  18  22
ATOM     22  C   UNL     1       6.214   6.414  16.926  0.00  0.00    +0.000 C 
BRANCH  22  24
ATOM     23  C   UNL     1       7.720   8.328  17.634  0.00  0.00    +0.000 C 
ATOM     24  C   UNL     1       7.637   6.857  17.254  0.00  0.00    +0.000 C 
ENDBRANCH  22  24
ENDBRANCH  18  22
ENDBRANCH   1  20
TORSDOF 3
ENDMDL
MODEL 7
REMARK VINA RESULT:      -6.8      0.794      1.072
REMARK  Name = 
REMARK  4 active torsions:
REMARK  status: ('A' for Active; 'I' for Inactive)
REMARK    1  A    between atoms: C_1  and  C_2
REMARK    2  A    between atoms: C_2  and  C_3
REMARK    3  A    between atoms: C_3  and  C_4
REMARK    4  A    between atoms: N_6  and  C_7
REMARK                            x       y       z     vdW  Elec       q    Type
REMARK                         _______ _______ _______ _____ _____    ______ ____
ROOT
ATOM      1  C   UNL     1       3.651   6.688  17.656  0.00  0.00    +0.000 A 
ATOM      2  N   UNL     1       3.253   7.933  17.356  0.00  0.00    +0.000 NA
ATOM      3  C   UNL     1       2.356   8.506  18.139  0.00  0.00    +0.000 A 
ATOM      4  N   UNL     1       1.959   9.785  17.810  0.00  0.00    +0.000 N 
ATOM      5  N   UNL     1       1.855   7.954  19.237  0.00  0.00    +0.000 NA
ATOM      6  C   UNL     1       2.227   6.707  19.531  0.00  0.00    +0.000 A 
ATOM      7  C   UNL     1       1.676   6.166  20.676  0.00  0.00    +0.000 A 
ATOM      8  C   UNL     1       1.952   4.871  21.111  0.00  0.00    +0.000 A 
ATOM      9  C   UNL     1       2.819   4.112  20.333  0.00  0.00    +0.000 A 
ATOM     10  N   UNL     1       3.235   2.814  20.529  0.00  0.00    +0.000 N 
ATOM     11  C   UNL     1       4.091   2.442  19.538  0.00  0.00    +0.000 A 
ATOM     12  C   UNL     1       4.235   3.515  18.689  0.00  0.00    +0.000 A 
ATOM     13  C   UNL     1       3.428   4.598  19.169  0.00  0.00    +0.000 A 
ATOM     14  C   UNL     1       3.134   5.959  18.750  0.00  0.00    +0.000 A 
ATOM     15  H   UNL     1       2.670  10.195  17.215  0.00  0.00    +0.000 HD
ATOM     16  H   UNL     1       1.701  10.293  18.642  0.00  0.00    +0.000 HD
ATOM     17  H   UNL     1       2.938   2.226  21.298  0.00  0.00    +0.000 HD
ENDROOT
BRANCH   1  20
ATOM     18  C   UNL     1       5.931   6.558  16.704  0.00  0.00    +0.000 C 
ATOM     19  O   UNL     1       6.485   7.426  17.370  0.00  0.00    +0.000 OA
ATOM     20  N   UNL     1       4.625   6.122  16.812  0.00  0.00    +0.000 N 
ATOM     21  H   UNL     1       4.373   5.295  16.309  0.00  0.00    +0.000 HD
BRANCH  18  22
ATOM     22  C   UNL     1       6.720   5.788  15.658  0.00  0.00    +0.000 C 
BRANCH  22  24
ATOM     23  C   UNL     1       7.709   4.444  17.568  0.00  0.00    +0.000 C 
ATOM     24  C   UNL     1       7.180   4.416  16.142  0.00  0.00    +0.000 C 
ENDBRANCH  22  24
ENDBRANCH  18  22
ENDBRANCH   1  20
TORSDOF 3
ENDMDL
MODEL 8
REMARK VINA RESULT:      -6.6      1.329      4.087
REMARK  Name = 
REMARK  4 active torsions:
REMARK  status: ('A' for Active; 'I' for Inactive)
REMARK    1  A    between atoms: C_1  and  C_2
REMARK    2  A    between atoms: C_2  and  C_3
REMARK    3  A    between atoms: C_3  and  C_4
REMARK    4  A    between atoms: N_6  and  C_7
REMARK                            x       y       z     vdW  Elec       q    Type
REMARK                         _______ _______ _______ _____ _____    ______ ____
ROOT
ATOM      1  C   UNL     1       3.181   5.277  18.667  0.00  0.00    +0.000 A 
ATOM      2  N   UNL     1       3.364   4.077  19.236  0.00  0.00    +0.000 NA
ATOM      3  C   UNL     1       2.845   3.870  20.433  0.00  0.00    +0.000 A 
ATOM      4  N   UNL     1       3.048   2.629  21.000  0.00  0.00    +0.000 N 
ATOM      5  N   UNL     1       2.107   4.751  21.096  0.00  0.00    +0.000 NA
ATOM      6  C   UNL     1       1.940   5.956  20.548  0.00  0.00    +0.000 A 
ATOM      7  C   UNL     1       1.173   6.848  21.274  0.00  0.00    +0.000 A 
ATOM      8  C   UNL     1       0.918   8.149  20.847  0.00  0.00    +0.000 A 
ATOM      9  C   UNL     1       1.477   8.542  19.635  0.00  0.00    +0.000 A 
ATOM     10  N   UNL     1       1.393   9.764  19.007  0.00  0.00    +0.000 N 
ATOM     11  C   UNL     1       2.081   9.734  17.832  0.00  0.00    +0.000 A 
ATOM     12  C   UNL     1       2.615   8.474  17.695  0.00  0.00    +0.000 A 
ATOM     13  C   UNL     1       2.250   7.688  18.838  0.00  0.00    +0.000 A 
ATOM     14  C   UNL     1       2.486   6.330  19.303  0.00  0.00    +0.000 A 
ATOM     15  H   UNL     1       3.276   1.975  20.260  0.00  0.00    +0.000 HD
ATOM     16  H   UNL     1       2.277   2.394  21.605  0.00  0.00    +0.000 HD
ATOM     17  H   UNL     1       0.895  10.565  19.374  0.00  0.00    +0.000 HD
ENDROOT
BRANCH   1  20
ATOM     18  C   UNL     1       5.042   5.790  17.118  0.00  0.00    +0.000 C 
ATOM     19  O   UNL     1       5.959   5.901  17.925  0.00  0.00    +0.000 OA
ATOM     20  N   UNL     1       3.729   5.452  17.382  0.00  0.00    +0.000 N 
ATOM     21  H   UNL     1       3.142   5.242  16.599  0.00  0.00    +0.000 HD
BRANCH  18  22
ATOM     22  C   UNL     1       5.313   5.972  15.635  0.00  0.00    +0.000 C 
BRANCH  22  24
ATOM     23  C   UNL     1       5.993   3.926  14.300  0.00  0.00    +0.000 C 
ATOM     24  C   UNL     1       6.467   5.115  15.124  0.00  0.00    +0.000 C 
ENDBRANCH  22  24
ENDBRANCH  18  22
ENDBRANCH   1  20
TORSDOF 3
ENDMDL
MODEL 9
REMARK VINA RESULT:      -6.5      1.226      3.905
REMARK  Name = 
REMARK  4 active torsions:
REMARK  status: ('A' for Active; 'I' for Inactive)
REMARK    1  A    between atoms: C_1  and  C_2
REMARK    2  A    between atoms: C_2  and  C_3
REMARK    3  A    between atoms: C_3  and  C_4
REMARK    4  A    between atoms: N_6  and  C_7
REMARK                            x       y       z     vdW  Elec       q    Type
REMARK                         _______ _______ _______ _____ _____    ______ ____
ROOT
ATOM      1  C   UNL     1       3.908   4.574  18.128  0.00  0.00    +0.000 A 
ATOM      2  N   UNL     1       4.247   3.351  18.558  0.00  0.00    +0.000 NA
ATOM      3  C   UNL     1       3.828   2.971  19.752  0.00  0.00    +0.000 A 
ATOM      4  N   UNL     1       4.191   1.710  20.175  0.00  0.00    +0.000 N 
ATOM      5  N   UNL     1       3.048   3.700  20.542  0.00  0.00    +0.000 NA
ATOM      6  C   UNL     1       2.725   4.928  20.133  0.00  0.00    +0.000 A 
ATOM      7  C   UNL     1       1.920   5.657  20.987  0.00  0.00    +0.000 A 
ATOM      8  C   UNL     1       1.508   6.959  20.712  0.00  0.00    +0.000 A 
ATOM      9  C   UNL     1       1.948   7.526  19.521  0.00  0.00    +0.000 A 
ATOM     10  N   UNL     1       1.702   8.789  19.029  0.00  0.00    +0.000 N 
ATOM     11  C   UNL     1       2.314   8.948  17.823  0.00  0.00    +0.000 A 
ATOM     12  C   UNL     1       2.962   7.772  17.528  0.00  0.00    +0.000 A 
ATOM     13  C   UNL     1       2.751   6.843  18.600  0.00  0.00    +0.000 A 
ATOM     14  C   UNL     1       3.151   5.479  18.906  0.00  0.00    +0.000 A 
ATOM     15  H   UNL     1       4.436   1.160  19.359  0.00  0.00    +0.000 HD
ATOM     16  H   UNL     1       3.486   1.335  20.792  0.00  0.00    +0.000 HD
ATOM     17  H   UNL     1       1.149   9.492  19.504  0.00  0.00    +0.000 HD
ENDROOT
BRANCH   1  20
ATOM     18  C   UNL     1       5.635   5.344  16.532  0.00  0.00    +0.000 C 
ATOM     19  O   UNL     1       6.608   5.378  17.278  0.00  0.00    +0.000 OA
ATOM     20  N   UNL     1       4.353   4.932  16.842  0.00  0.00    +0.000 N 
ATOM     21  H   UNL     1       3.714   4.807  16.082  0.00  0.00    +0.000 HD
BRANCH  18  22
ATOM     22  C   UNL     1       5.789   5.726  15.070  0.00  0.00    +0.000 C 
BRANCH  22  24
ATOM     23  C   UNL     1       6.146   3.788  13.473  0.00  0.00    +0.000 C 
ATOM     24  C   UNL     1       6.804   4.864  14.326  0.00  0.00    +0.000 C 
ENDBRANCH  22  24
ENDBRANCH  18  22
ENDBRANCH   1  20
TORSDOF 3
ENDMDL
