MODEL 1
REMARK VINA RESULT:      -8.6      0.000      0.000
REMARK  Name = 
REMARK  4 active torsions:
REMARK  status: ('A' for Active; 'I' for Inactive)
REMARK    1  A    between atoms: C_1  and  C_2
REMARK    2  A    between atoms: C_7  and  C_8
REMARK    3  A    between atoms: C_12  and  C_13
REMARK    4  A    between atoms: C_18  and  C_19
REMARK                            x       y       z     vdW  Elec       q    Type
REMARK                         _______ _______ _______ _____ _____    ______ ____
ROOT
ATOM      1  C   UNL     1       7.247   5.055  16.202  0.00  0.00    +0.000 C 
ATOM      2  O   UNL     1       8.058   4.413  16.867  0.00  0.00    +0.000 OA
ATOM      3  N   UNL     1       6.498   6.069  16.776  0.00  0.00    +0.000 N 
ATOM      4  C   UNL     1       6.500   6.402  18.191  0.00  0.00    +0.000 C 
ATOM      5  C   UNL     1       4.984   6.623  18.103  0.00  0.00    +0.000 C 
ATOM      6  C   UNL     1       5.081   6.351  16.588  0.00  0.00    +0.000 C 
ENDROOT
BRANCH   1  13
ATOM      7  C   UNL     1       5.227   3.089  15.058  0.00  0.00    +0.000 C 
ATOM      8  C   UNL     1       6.167   3.889  14.204  0.00  0.00    +0.000 A 
ATOM      9  C   UNL     1       6.173   3.669  12.821  0.00  0.00    +0.000 A 
ATOM     10  C   UNL     1       7.063   4.361  12.002  0.00  0.00    +0.000 A 
ATOM     11  C   UNL     1       7.924   5.262  12.592  0.00  0.00    +0.000 A 
ATOM     12  N   UNL     1       7.956   5.506  13.916  0.00  0.00    +0.000 NA
ATOM     13  C   UNL     1       7.087   4.817  14.716  0.00  0.00    +0.000 A 
ENDBRANCH   1  13
BRANCH   5  14
ATOM     14  C   UNL     1       3.990   5.727  18.942  0.00  0.00    +0.000 A 
ATOM     15  N   UNL     1       4.442   4.446  19.100  0.00  0.00    +0.000 NA
ATOM     16  C   UNL     1       3.636   3.574  19.737  0.00  0.00    +0.000 A 
ATOM     17  C   UNL     1       2.410   3.949  20.235  0.00  0.00    +0.000 A 
ATOM     18  N   UNL     1       1.941   5.210  20.117  0.00  0.00    +0.000 NA
ATOM     19  C   UNL     1       2.736   6.113  19.468  0.00  0.00    +0.000 A 
BRANCH  19  20
ATOM     20  C   UNL     1       2.139   7.463  19.329  0.00  0.00    +0.000 A 
ATOM     21  C   UNL     1       2.130   8.180  18.119  0.00  0.00    +0.000 A 
ATOM     22  C   UNL     1       1.476   9.409  17.990  0.00  0.00    +0.000 A 
ATOM     23  C   UNL     1       0.874   9.994  19.097  0.00  0.00    +0.000 A 
ATOM     24  C   UNL     1       0.934   9.354  20.328  0.00  0.00    +0.000 A 
ATOM     25  C   UNL     1       1.551   8.103  20.440  0.00  0.00    +0.000 A 
ENDBRANCH  19  20
ENDBRANCH   5  14
TORSDOF 3
ENDMDL
MODEL 2
REMARK VINA RESULT:      -7.9      0.848      1.452
REMARK  Name = 
REMARK  4 active torsions:
REMARK  status: ('A' for Active; 'I' for Inactive)
REMARK    1  A    between atoms: C_1  and  C_2
REMARK    2  A    between atoms: C_7  and  C_8
REMARK    3  A    between atoms: C_12  and  C_13
REMARK    4  A    between atoms: C_18  and  C_19
REMARK                            x       y       z     vdW  Elec       q    Type
REMARK                         _______ _______ _______ _____ _____    ______ ____
ROOT
ATOM      1  C   UNL     1       7.076   4.892  15.717  0.00  0.00    +0.000 C 
ATOM      2  O   UNL     1       7.993   4.403  16.375  0.00  0.00    +0.000 OA
ATOM      3  N   UNL     1       6.303   5.922  16.227  0.00  0.00    +0.000 N 
ATOM      4  C   UNL     1       6.407   6.445  17.580  0.00  0.00    +0.000 C 
ATOM      5  C   UNL     1       4.876   6.549  17.616  0.00  0.00    +0.000 C 
ATOM      6  C   UNL     1       4.857   6.080  16.147  0.00  0.00    +0.000 C 
ENDROOT
BRANCH   1  13
ATOM      7  C   UNL     1       8.726   5.837  13.343  0.00  0.00    +0.000 C 
ATOM      8  C   UNL     1       7.557   4.906  13.211  0.00  0.00    +0.000 A 
ATOM      9  C   UNL     1       7.154   4.510  11.929  0.00  0.00    +0.000 A 
ATOM     10  C   UNL     1       6.045   3.681  11.765  0.00  0.00    +0.000 A 
ATOM     11  C   UNL     1       5.371   3.267  12.893  0.00  0.00    +0.000 A 
ATOM     12  N   UNL     1       5.719   3.621  14.144  0.00  0.00    +0.000 NA
ATOM     13  C   UNL     1       6.802   4.442  14.299  0.00  0.00    +0.000 A 
ENDBRANCH   1  13
BRANCH   5  14
ATOM     14  C   UNL     1       4.038   5.711  18.660  0.00  0.00    +0.000 A 
ATOM     15  N   UNL     1       4.525   4.446  18.833  0.00  0.00    +0.000 NA
ATOM     16  C   UNL     1       3.840   3.619  19.647  0.00  0.00    +0.000 A 
ATOM     17  C   UNL     1       2.702   4.025  20.303  0.00  0.00    +0.000 A 
ATOM     18  N   UNL     1       2.203   5.273  20.175  0.00  0.00    +0.000 NA
ATOM     19  C   UNL     1       2.876   6.130  19.348  0.00  0.00    +0.000 A 
BRANCH  19  20
ATOM     20  C   UNL     1       2.246   7.466  19.213  0.00  0.00    +0.000 A 
ATOM     21  C   UNL     1       2.200   8.175  17.999  0.00  0.00    +0.000 A 
ATOM     22  C   UNL     1       1.517   9.389  17.875  0.00  0.00    +0.000 A 
ATOM     23  C   UNL     1       0.921   9.967  18.988  0.00  0.00    +0.000 A 
ATOM     24  C   UNL     1       1.017   9.336  20.222  0.00  0.00    +0.000 A 
ATOM     25  C   UNL     1       1.664   8.100  20.330  0.00  0.00    +0.000 A 
ENDBRANCH  19  20
ENDBRANCH   5  14
TORSDOF 3
ENDMDL
MODEL 3
REMARK VINA RESULT:      -7.3      2.944      7.911
REMARK  Name = 
REMARK  4 active torsions:
REMARK  status: ('A' for Active; 'I' for Inactive)
REMARK    1  A    between atoms: C_1  and  C_2
REMARK    2  A    between atoms: C_7  and  C_8
REMARK    3  A    between atoms: C_12  and  C_13
REMARK    4  A    between atoms: C_18  and  C_19
REMARK                            x       y       z     vdW  Elec       q    Type
REMARK                         _______ _______ _______ _____ _____    ______ ____
ROOT
ATOM      1  C   UNL     1       1.029   9.012  18.888  0.00  0.00    +0.000 C 
ATOM      2  O   UNL     1       0.473   9.212  17.809  0.00  0.00    +0.000 OA
ATOM      3  N   UNL     1       2.244   8.351  18.952  0.00  0.00    +0.000 N 
ATOM      4  C   UNL     1       2.918   7.743  17.816  0.00  0.00    +0.000 C 
ATOM      5  C   UNL     1       3.308   6.569  18.724  0.00  0.00    +0.000 C 
ATOM      6  C   UNL     1       2.654   7.323  19.900  0.00  0.00    +0.000 C 
ENDROOT
BRANCH   1  13
ATOM      7  C   UNL     1       1.061  11.967  19.613  0.00  0.00    +0.000 C 
ATOM      8  C   UNL     1       0.492  10.908  20.511  0.00  0.00    +0.000 A 
ATOM      9  C   UNL     1       0.022  11.281  21.776  0.00  0.00    +0.000 A 
ATOM     10  C   UNL     1      -0.472  10.318  22.655  0.00  0.00    +0.000 A 
ATOM     11  C   UNL     1      -0.487   9.004  22.239  0.00  0.00    +0.000 A 
ATOM     12  N   UNL     1      -0.045   8.597  21.034  0.00  0.00    +0.000 NA
ATOM     13  C   UNL     1       0.448   9.545  20.180  0.00  0.00    +0.000 A 
ENDBRANCH   1  13
BRANCH   5  14
ATOM     14  C   UNL     1       2.790   5.109  18.417  0.00  0.00    +0.000 A 
ATOM     15  N   UNL     1       1.613   4.822  19.052  0.00  0.00    +0.000 NA
ATOM     16  C   UNL     1       1.119   3.576  18.919  0.00  0.00    +0.000 A 
ATOM     17  C   UNL     1       1.752   2.622  18.158  0.00  0.00    +0.000 A 
ATOM     18  N   UNL     1       2.903   2.873  17.498  0.00  0.00    +0.000 NA
ATOM     19  C   UNL     1       3.430   4.129  17.623  0.00  0.00    +0.000 A 
BRANCH  19  20
ATOM     20  C   UNL     1       4.719   4.323  16.915  0.00  0.00    +0.000 A 
ATOM     21  C   UNL     1       4.821   4.432  15.517  0.00  0.00    +0.000 A 
ATOM     22  C   UNL     1       6.034   4.711  14.881  0.00  0.00    +0.000 A 
ATOM     23  C   UNL     1       7.201   4.813  15.627  0.00  0.00    +0.000 A 
ATOM     24  C   UNL     1       7.153   4.629  17.003  0.00  0.00    +0.000 A 
ATOM     25  C   UNL     1       5.928   4.395  17.638  0.00  0.00    +0.000 A 
ENDBRANCH  19  20
ENDBRANCH   5  14
TORSDOF 3
ENDMDL
MODEL 4
REMARK VINA RESULT:      -7.1      4.529      9.274
REMARK  Name = 
REMARK  4 active torsions:
REMARK  status: ('A' for Active; 'I' for Inactive)
REMARK    1  A    between atoms: C_1  and  C_2
REMARK    2  A    between atoms: C_7  and  C_8
REMARK    3  A    between atoms: C_12  and  C_13
REMARK    4  A    between atoms: C_18  and  C_19
REMARK                            x       y       z     vdW  Elec       q    Type
REMARK                         _______ _______ _______ _____ _____    ______ ____
ROOT
ATOM      1  C   UNL     1       0.064  11.169  21.589  0.00  0.00    +0.000 C 
ATOM      2  O   UNL     1       1.007  11.947  21.725  0.00  0.00    +0.000 OA
ATOM      3  N   UNL     1       0.233   9.806  21.764  0.00  0.00    +0.000 N 
ATOM      4  C   UNL     1       1.510   9.154  22.006  0.00  0.00    +0.000 C 
ATOM      5  C   UNL     1       1.064   8.019  21.075  0.00  0.00    +0.000 C 
ATOM      6  C   UNL     1      -0.301   8.725  20.946  0.00  0.00    +0.000 C 
ENDROOT
BRANCH   1  13
ATOM      7  C   UNL     1      -0.974  11.616  18.764  0.00  0.00    +0.000 C 
ATOM      8  C   UNL     1      -1.790  11.897  19.992  0.00  0.00    +0.000 A 
ATOM      9  C   UNL     1      -3.062  12.463  19.839  0.00  0.00    +0.000 A 
ATOM     10  C   UNL     1      -3.830  12.779  20.959  0.00  0.00    +0.000 A 
ATOM     11  C   UNL     1      -3.304  12.514  22.205  0.00  0.00    +0.000 A 
ATOM     12  N   UNL     1      -2.087  11.972  22.402  0.00  0.00    +0.000 NA
ATOM     13  C   UNL     1      -1.333  11.673  21.300  0.00  0.00    +0.000 A 
ENDBRANCH   1  13
BRANCH   5  14
ATOM     14  C   UNL     1       1.855   7.713  19.742  0.00  0.00    +0.000 A 
ATOM     15  N   UNL     1       2.117   8.841  19.015  0.00  0.00    +0.000 NA
ATOM     16  C   UNL     1       2.723   8.688  17.822  0.00  0.00    +0.000 A 
ATOM     17  C   UNL     1       3.090   7.450  17.348  0.00  0.00    +0.000 A 
ATOM     18  N   UNL     1       2.867   6.316  18.047  0.00  0.00    +0.000 NA
ATOM     19  C   UNL     1       2.247   6.444  19.259  0.00  0.00    +0.000 A 
BRANCH  19  20
ATOM     20  C   UNL     1       1.987   5.157  19.949  0.00  0.00    +0.000 A 
ATOM     21  C   UNL     1       2.553   4.824  21.193  0.00  0.00    +0.000 A 
ATOM     22  C   UNL     1       2.218   3.647  21.869  0.00  0.00    +0.000 A 
ATOM     23  C   UNL     1       1.358   2.729  21.279  0.00  0.00    +0.000 A 
ATOM     24  C   UNL     1       0.844   2.986  20.015  0.00  0.00    +0.000 A 
ATOM     25  C   UNL     1       1.149   4.187  19.363  0.00  0.00    +0.000 A 
ENDBRANCH  19  20
ENDBRANCH   5  14
TORSDOF 3
ENDMDL
MODEL 5
REMARK VINA RESULT:      -7.0      2.962      7.534
REMARK  Name = 
REMARK  4 active torsions:
REMARK  status: ('A' for Active; 'I' for Inactive)
REMARK    1  A    between atoms: C_1  and  C_2
REMARK    2  A    between atoms: C_7  and  C_8
REMARK    3  A    between atoms: C_12  and  C_13
REMARK    4  A    between atoms: C_18  and  C_19
REMARK                            x       y       z     vdW  Elec       q    Type
REMARK                         _______ _______ _______ _____ _____    ______ ____
ROOT
ATOM      1  C   UNL     1       1.519   9.035  18.367  0.00  0.00    +0.000 C 
ATOM      2  O   UNL     1       1.567   9.160  17.145  0.00  0.00    +0.000 OA
ATOM      3  N   UNL     1       2.419   8.223  19.037  0.00  0.00    +0.000 N 
ATOM      4  C   UNL     1       3.409   7.375  18.392  0.00  0.00    +0.000 C 
ATOM      5  C   UNL     1       3.110   6.294  19.440  0.00  0.00    +0.000 C 
ATOM      6  C   UNL     1       2.148   7.289  20.121  0.00  0.00    +0.000 C 
ENDROOT
BRANCH   1  13
ATOM      7  C   UNL     1      -1.256   9.767  17.358  0.00  0.00    +0.000 C 
ATOM      8  C   UNL     1      -0.742  10.169  18.709  0.00  0.00    +0.000 A 
ATOM      9  C   UNL     1      -1.544  10.984  19.518  0.00  0.00    +0.000 A 
ATOM     10  C   UNL     1      -1.081  11.415  20.761  0.00  0.00    +0.000 A 
ATOM     11  C   UNL     1       0.174  11.011  21.163  0.00  0.00    +0.000 A 
ATOM     12  N   UNL     1       0.981  10.230  20.420  0.00  0.00    +0.000 NA
ATOM     13  C   UNL     1       0.526   9.818  19.197  0.00  0.00    +0.000 A 
ENDBRANCH   1  13
BRANCH   5  14
ATOM     14  C   UNL     1       2.522   4.894  19.006  0.00  0.00    +0.000 A 
ATOM     15  N   UNL     1       1.316   4.625  19.591  0.00  0.00    +0.000 NA
ATOM     16  C   UNL     1       0.759   3.422  19.348  0.00  0.00    +0.000 A 
ATOM     17  C   UNL     1       1.360   2.497  18.527  0.00  0.00    +0.000 A 
ATOM     18  N   UNL     1       2.539   2.735  17.916  0.00  0.00    +0.000 NA
ATOM     19  C   UNL     1       3.130   3.946  18.151  0.00  0.00    +0.000 A 
BRANCH  19  20
ATOM     20  C   UNL     1       4.446   4.122  17.490  0.00  0.00    +0.000 A 
ATOM     21  C   UNL     1       4.614   4.108  16.094  0.00  0.00    +0.000 A 
ATOM     22  C   UNL     1       5.848   4.372  15.493  0.00  0.00    +0.000 A 
ATOM     23  C   UNL     1       6.972   4.585  16.280  0.00  0.00    +0.000 A 
ATOM     24  C   UNL     1       6.861   4.525  17.664  0.00  0.00    +0.000 A 
ATOM     25  C   UNL     1       5.613   4.304  18.259  0.00  0.00    +0.000 A 
ENDBRANCH  19  20
ENDBRANCH   5  14
TORSDOF 3
ENDMDL
MODEL 6
REMARK VINA RESULT:      -6.8      3.603      8.224
REMARK  Name = 
REMARK  4 active torsions:
REMARK  status: ('A' for Active; 'I' for Inactive)
REMARK    1  A    between atoms: C_1  and  C_2
REMARK    2  A    between atoms: C_7  and  C_8
REMARK    3  A    between atoms: C_12  and  C_13
REMARK    4  A    between atoms: C_18  and  C_19
REMARK                            x       y       z     vdW  Elec       q    Type
REMARK                         _______ _______ _______ _____ _____    ______ ____
ROOT
ATOM      1  C   UNL     1       0.088   9.518  19.076  0.00  0.00    +0.000 C 
ATOM      2  O   UNL     1      -0.737   9.502  18.165  0.00  0.00    +0.000 OA
ATOM      3  N   UNL     1       1.430   9.284  18.826  0.00  0.00    +0.000 N 
ATOM      4  C   UNL     1       1.979   8.898  17.535  0.00  0.00    +0.000 C 
ATOM      5  C   UNL     1       2.922   7.934  18.267  0.00  0.00    +0.000 C 
ATOM      6  C   UNL     1       2.356   8.466  19.599  0.00  0.00    +0.000 C 
ENDROOT
BRANCH   1  13
ATOM      7  C   UNL     1      -0.475  12.370  19.972  0.00  0.00    +0.000 C 
ATOM      8  C   UNL     1      -0.546  11.190  20.897  0.00  0.00    +0.000 A 
ATOM      9  C   UNL     1      -0.810  11.414  22.254  0.00  0.00    +0.000 A 
ATOM     10  C   UNL     1      -0.839  10.347  23.151  0.00  0.00    +0.000 A 
ATOM     11  C   UNL     1      -0.608   9.079  22.661  0.00  0.00    +0.000 A 
ATOM     12  N   UNL     1      -0.350   8.815  21.366  0.00  0.00    +0.000 NA
ATOM     13  C   UNL     1      -0.313   9.867  20.492  0.00  0.00    +0.000 A 
ENDBRANCH   1  13
BRANCH   5  14
ATOM     14  C   UNL     1       2.839   6.377  18.010  0.00  0.00    +0.000 A 
ATOM     15  N   UNL     1       1.552   5.933  17.878  0.00  0.00    +0.000 NA
ATOM     16  C   UNL     1       1.362   4.608  17.730  0.00  0.00    +0.000 A 
ATOM     17  C   UNL     1       2.414   3.723  17.689  0.00  0.00    +0.000 A 
ATOM     18  N   UNL     1       3.698   4.127  17.793  0.00  0.00    +0.000 NA
ATOM     19  C   UNL     1       3.919   5.467  17.952  0.00  0.00    +0.000 A 
BRANCH  19  20
ATOM     20  C   UNL     1       5.347   5.836  18.111  0.00  0.00    +0.000 A 
ATOM     21  C   UNL     1       6.022   6.698  17.229  0.00  0.00    +0.000 A 
ATOM     22  C   UNL     1       7.340   7.107  17.455  0.00  0.00    +0.000 A 
ATOM     23  C   UNL     1       8.048   6.599  18.536  0.00  0.00    +0.000 A 
ATOM     24  C   UNL     1       7.441   5.681  19.383  0.00  0.00    +0.000 A 
ATOM     25  C   UNL     1       6.107   5.311  19.177  0.00  0.00    +0.000 A 
ENDBRANCH  19  20
ENDBRANCH   5  14
TORSDOF 3
ENDMDL
MODEL 7
REMARK VINA RESULT:      -6.7      5.901      9.296
REMARK  Name = 
REMARK  4 active torsions:
REMARK  status: ('A' for Active; 'I' for Inactive)
REMARK    1  A    between atoms: C_1  and  C_2
REMARK    2  A    between atoms: C_7  and  C_8
REMARK    3  A    between atoms: C_12  and  C_13
REMARK    4  A    between atoms: C_18  and  C_19
REMARK                            x       y       z     vdW  Elec       q    Type
REMARK                         _______ _______ _______ _____ _____    ______ ____
ROOT
ATOM      1  C   UNL     1       0.982  11.141  18.953  0.00  0.00    +0.000 C 
ATOM      2  O   UNL     1       1.729  12.039  19.337  0.00  0.00    +0.000 OA
ATOM      3  N   UNL     1      -0.312  11.417  18.541  0.00  0.00    +0.000 N 
ATOM      4  C   UNL     1      -0.946  12.723  18.617  0.00  0.00    +0.000 C 
ATOM      5  C   UNL     1      -2.243  12.026  19.048  0.00  0.00    +0.000 C 
ATOM      6  C   UNL     1      -1.527  10.675  18.849  0.00  0.00    +0.000 C 
ENDROOT
BRANCH   1  13
ATOM      7  C   UNL     1       0.907   9.193  21.288  0.00  0.00    +0.000 C 
ATOM      8  C   UNL     1       1.447   8.832  19.935  0.00  0.00    +0.000 A 
ATOM      9  C   UNL     1       2.014   7.564  19.754  0.00  0.00    +0.000 A 
ATOM     10  C   UNL     1       2.566   7.210  18.524  0.00  0.00    +0.000 A 
ATOM     11  C   UNL     1       2.530   8.136  17.504  0.00  0.00    +0.000 A 
ATOM     12  N   UNL     1       1.997   9.366  17.630  0.00  0.00    +0.000 NA
ATOM     13  C   UNL     1       1.466   9.712  18.842  0.00  0.00    +0.000 A 
ENDBRANCH   1  13
BRANCH   5  14
ATOM     14  C   UNL     1      -2.879  12.313  20.465  0.00  0.00    +0.000 A 
ATOM     15  N   UNL     1      -1.961  12.249  21.476  0.00  0.00    +0.000 NA
ATOM     16  C   UNL     1      -2.410  12.404  22.737  0.00  0.00    +0.000 A 
ATOM     17  C   UNL     1      -3.737  12.640  23.011  0.00  0.00    +0.000 A 
ATOM     18  N   UNL     1      -4.668  12.732  22.038  0.00  0.00    +0.000 NA
ATOM     19  C   UNL     1      -4.240  12.571  20.749  0.00  0.00    +0.000 A 
BRANCH  19  20
ATOM     20  C   UNL     1      -5.320  12.632  19.735  0.00  0.00    +0.000 A 
ATOM     21  C   UNL     1      -6.020  13.812  19.427  0.00  0.00    +0.000 A 
ATOM     22  C   UNL     1      -6.967  13.867  18.400  0.00  0.00    +0.000 A 
ATOM     23  C   UNL     1      -7.296  12.715  17.698  0.00  0.00    +0.000 A 
ATOM     24  C   UNL     1      -6.685  11.512  18.030  0.00  0.00    +0.000 A 
ATOM     25  C   UNL     1      -5.705  11.474  19.029  0.00  0.00    +0.000 A 
ENDBRANCH  19  20
ENDBRANCH   5  14
TORSDOF 3
ENDMDL
MODEL 8
REMARK VINA RESULT:      -6.6      6.345     10.013
REMARK  Name = 
REMARK  4 active torsions:
REMARK  status: ('A' for Active; 'I' for Inactive)
REMARK    1  A    between atoms: C_1  and  C_2
REMARK    2  A    between atoms: C_7  and  C_8
REMARK    3  A    between atoms: C_12  and  C_13
REMARK    4  A    between atoms: C_18  and  C_19
REMARK                            x       y       z     vdW  Elec       q    Type
REMARK                         _______ _______ _______ _____ _____    ______ ____
ROOT
ATOM      1  C   UNL     1       0.648  11.601  20.408  0.00  0.00    +0.000 C 
ATOM      2  O   UNL     1       1.323  12.257  21.198  0.00  0.00    +0.000 OA
ATOM      3  N   UNL     1      -0.482  12.140  19.817  0.00  0.00    +0.000 N 
ATOM      4  C   UNL     1      -1.041  13.446  20.133  0.00  0.00    +0.000 C 
ATOM      5  C   UNL     1      -2.442  12.827  20.034  0.00  0.00    +0.000 C 
ATOM      6  C   UNL     1      -1.776  11.502  19.611  0.00  0.00    +0.000 C 
ENDROOT
BRANCH   1  13
ATOM      7  C   UNL     1       0.667   9.244  22.331  0.00  0.00    +0.000 C 
ATOM      8  C   UNL     1       1.089   9.134  20.895  0.00  0.00    +0.000 A 
ATOM      9  C   UNL     1       1.588   7.910  20.433  0.00  0.00    +0.000 A 
ATOM     10  C   UNL     1       2.032   7.784  19.117  0.00  0.00    +0.000 A 
ATOM     11  C   UNL     1       1.958   8.889  18.297  0.00  0.00    +0.000 A 
ATOM     12  N   UNL     1       1.487  10.085  18.696  0.00  0.00    +0.000 NA
ATOM     13  C   UNL     1       1.063  10.207  19.991  0.00  0.00    +0.000 A 
ENDBRANCH   1  13
BRANCH   5  14
ATOM     14  C   UNL     1      -3.396  12.794  21.293  0.00  0.00    +0.000 A 
ATOM     15  N   UNL     1      -2.710  12.797  22.475  0.00  0.00    +0.000 NA
ATOM     16  C   UNL     1      -3.425  12.694  23.612  0.00  0.00    +0.000 A 
ATOM     17  C   UNL     1      -4.798  12.611  23.602  0.00  0.00    +0.000 A 
ATOM     18  N   UNL     1      -5.511  12.627  22.456  0.00  0.00    +0.000 NA
ATOM     19  C   UNL     1      -4.809  12.723  21.286  0.00  0.00    +0.000 A 
BRANCH  19  20
ATOM     20  C   UNL     1      -5.649  12.684  20.065  0.00  0.00    +0.000 A 
ATOM     21  C   UNL     1      -6.102  13.841  19.405  0.00  0.00    +0.000 A 
ATOM     22  C   UNL     1      -6.811  13.779  18.202  0.00  0.00    +0.000 A 
ATOM     23  C   UNL     1      -7.155  12.546  17.662  0.00  0.00    +0.000 A 
ATOM     24  C   UNL     1      -6.796  11.382  18.328  0.00  0.00    +0.000 A 
ATOM     25  C   UNL     1      -6.047  11.451  19.509  0.00  0.00    +0.000 A 
ENDBRANCH  19  20
ENDBRANCH   5  14
TORSDOF 3
ENDMDL
MODEL 9
REMARK VINA RESULT:      -6.5      8.006     11.741
REMARK  Name = 
REMARK  4 active torsions:
REMARK  status: ('A' for Active; 'I' for Inactive)
REMARK    1  A    between atoms: C_1  and  C_2
REMARK    2  A    between atoms: C_7  and  C_8
REMARK    3  A    between atoms: C_12  and  C_13
REMARK    4  A    between atoms: C_18  and  C_19
REMARK                            x       y       z     vdW  Elec       q    Type
REMARK                         _______ _______ _______ _____ _____    ______ ____
ROOT
ATOM      1  C   UNL     1      -4.355  11.325  18.663  0.00  0.00    +0.000 C 
ATOM      2  O   UNL     1      -4.320  10.282  18.012  0.00  0.00    +0.000 OA
ATOM      3  N   UNL     1      -3.203  12.055  18.902  0.00  0.00    +0.000 N 
ATOM      4  C   UNL     1      -1.862  11.635  18.527  0.00  0.00    +0.000 C 
ATOM      5  C   UNL     1      -1.355  12.188  19.866  0.00  0.00    +0.000 C 
ATOM      6  C   UNL     1      -2.787  12.688  20.147  0.00  0.00    +0.000 C 
ENDROOT
BRANCH   1  13
ATOM      7  C   UNL     1      -6.205  12.989  16.912  0.00  0.00    +0.000 C 
ATOM      8  C   UNL     1      -6.496  12.679  18.351  0.00  0.00    +0.000 A 
ATOM      9  C   UNL     1      -7.634  13.242  18.943  0.00  0.00    +0.000 A 
ATOM     10  C   UNL     1      -7.912  13.013  20.289  0.00  0.00    +0.000 A 
ATOM     11  C   UNL     1      -7.044  12.219  21.007  0.00  0.00    +0.000 A 
ATOM     12  N   UNL     1      -5.939  11.657  20.482  0.00  0.00    +0.000 NA
ATOM     13  C   UNL     1      -5.665  11.893  19.163  0.00  0.00    +0.000 A 
ENDBRANCH   1  13
BRANCH   5  14
ATOM     14  C   UNL     1      -0.695  11.230  20.934  0.00  0.00    +0.000 A 
ATOM     15  N   UNL     1       0.031  10.224  20.362  0.00  0.00    +0.000 NA
ATOM     16  C   UNL     1       0.577   9.304  21.181  0.00  0.00    +0.000 A 
ATOM     17  C   UNL     1       0.435   9.373  22.547  0.00  0.00    +0.000 A 
ATOM     18  N   UNL     1      -0.257  10.364  23.150  0.00  0.00    +0.000 NA
ATOM     19  C   UNL     1      -0.827  11.307  22.340  0.00  0.00    +0.000 A 
BRANCH  19  20
ATOM     20  C   UNL     1      -1.613  12.336  23.063  0.00  0.00    +0.000 A 
ATOM     21  C   UNL     1      -1.138  13.637  23.305  0.00  0.00    +0.000 A 
ATOM     22  C   UNL     1      -1.936  14.618  23.903  0.00  0.00    +0.000 A 
ATOM     23  C   UNL     1      -3.213  14.300  24.346  0.00  0.00    +0.000 A 
ATOM     24  C   UNL     1      -3.686  13.002  24.198  0.00  0.00    +0.000 A 
ATOM     25  C   UNL     1      -2.899  12.037  23.558  0.00  0.00    +0.000 A 
ENDBRANCH  19  20
ENDBRANCH   5  14
TORSDOF 3
ENDMDL
