MODEL 1
REMARK VINA RESULT:      -6.8      0.000      0.000
REMARK  Name = 
REMARK  7 active torsions:
REMARK  status: ('A' for Active; 'I' for Inactive)
REMARK    1  A    between atoms: C_1  and  N_2
REMARK    2  A    between atoms: N_2  and  C_3
REMARK    3  A    between atoms: N_2  and  C_4
REMARK    4  A    between atoms: C_7  and  C_9
REMARK    5  A    between atoms: C_9  and  C_10
REMARK    6  A    between atoms: C_19  and  C_20
REMARK    7  A    between atoms: C_20  and  O_21
REMARK                            x       y       z     vdW  Elec       q    Type
REMARK                         _______ _______ _______ _____ _____    ______ ____
ROOT
ATOM      1  C   UNL     1       3.002   6.092  19.162  0.00  0.00    +0.000 C 
ATOM      2  C   UNL     1       3.177   5.973  17.618  0.00  0.00    +0.000 C 
ATOM      3  N   UNL     1       4.323   5.152  17.250  0.00  0.00    +0.000 N 
ATOM      4  C   UNL     1       5.270   5.664  16.356  0.00  0.00    +0.000 C 
ATOM      5  O   UNL     1       5.155   6.790  15.862  0.00  0.00    +0.000 OA
ATOM      6  C   UNL     1       4.320   3.805  17.798  0.00  0.00    +0.000 C 
ATOM      7  C   UNL     1       4.226   3.875  19.322  0.00  0.00    +0.000 C 
ATOM      8  C   UNL     1       2.952   4.640  19.784  0.00  0.00    +0.000 C 
ENDROOT
BRANCH   1  10
ATOM      9  C   UNL     1       2.114   8.339  18.762  0.00  0.00    +0.000 C 
ATOM     10  N   UNL     1       1.905   7.056  19.475  0.00  0.00    +0.000 NA
ATOM     11  C   UNL     1       1.762   7.361  20.899  0.00  0.00    +0.000 C 
ENDBRANCH   1  10
BRANCH   4  12
ATOM     12  C   UNL     1       6.467   4.806  15.988  0.00  0.00    +0.000 C 
BRANCH  12  13
ATOM     13  C   UNL     1       6.673   4.611  14.501  0.00  0.00    +0.000 A 
ATOM     14  C   UNL     1       7.627   5.335  13.767  0.00  0.00    +0.000 A 
ATOM     15  C   UNL     1       7.787   5.124  12.398  0.00  0.00    +0.000 A 
ATOM     16  C   UNL     1       7.020   4.166  11.742  0.00  0.00    +0.000 A 
ATOM     17  C   UNL     1       6.107   3.415  12.470  0.00  0.00    +0.000 A 
ATOM     18  F   UNL     1       5.380   2.479  11.848  0.00  0.00    +0.000 F 
ATOM     19  C   UNL     1       5.932   3.618  13.836  0.00  0.00    +0.000 A 
ENDBRANCH  12  13
ENDBRANCH   4  12
BRANCH   8  20
ATOM     20  C   UNL     1       1.701   3.798  19.466  0.00  0.00    +0.000 C 
BRANCH  20  21
ATOM     21  O   UNL     1       0.616   4.160  20.329  0.00  0.00    +0.000 OA
ATOM     22  H   UNL     1       0.962   4.484  21.182  0.00  0.00    +0.000 HD
ENDBRANCH  20  21
ENDBRANCH   8  20
TORSDOF 5
ENDMDL
MODEL 2
REMARK VINA RESULT:      -6.7      1.908      3.029
REMARK  Name = 
REMARK  7 active torsions:
REMARK  status: ('A' for Active; 'I' for Inactive)
REMARK    1  A    between atoms: C_1  and  N_2
REMARK    2  A    between atoms: N_2  and  C_3
REMARK    3  A    between atoms: N_2  and  C_4
REMARK    4  A    between atoms: C_7  and  C_9
REMARK    5  A    between atoms: C_9  and  C_10
REMARK    6  A    between atoms: C_19  and  C_20
REMARK    7  A    between atoms: C_20  and  O_21
REMARK                            x       y       z     vdW  Elec       q    Type
REMARK                         _______ _______ _______ _____ _____    ______ ____
ROOT
ATOM      1  C   UNL     1       3.622   4.001  19.206  0.00  0.00    +0.000 C 
ATOM      2  C   UNL     1       5.051   4.612  19.319  0.00  0.00    +0.000 C 
ATOM      3  N   UNL     1       5.453   5.313  18.108  0.00  0.00    +0.000 N 
ATOM      4  C   UNL     1       6.677   4.992  17.508  0.00  0.00    +0.000 C 
ATOM      5  O   UNL     1       7.430   4.138  17.986  0.00  0.00    +0.000 OA
ATOM      6  C   UNL     1       4.555   6.372  17.678  0.00  0.00    +0.000 C 
ATOM      7  C   UNL     1       3.151   5.800  17.481  0.00  0.00    +0.000 C 
ATOM      8  C   UNL     1       2.612   5.140  18.782  0.00  0.00    +0.000 C 
ENDROOT
BRANCH   1  10
ATOM      9  C   UNL     1       4.378   2.157  20.629  0.00  0.00    +0.000 C 
ATOM     10  N   UNL     1       3.325   3.179  20.417  0.00  0.00    +0.000 NA
ATOM     11  C   UNL     1       2.038   2.482  20.369  0.00  0.00    +0.000 C 
ENDBRANCH   1  10
BRANCH   4  12
ATOM     12  C   UNL     1       7.082   5.720  16.239  0.00  0.00    +0.000 C 
BRANCH  12  13
ATOM     13  C   UNL     1       6.715   5.006  14.955  0.00  0.00    +0.000 A 
ATOM     14  C   UNL     1       5.601   4.156  14.854  0.00  0.00    +0.000 A 
ATOM     15  C   UNL     1       5.295   3.518  13.652  0.00  0.00    +0.000 A 
ATOM     16  C   UNL     1       6.075   3.741  12.522  0.00  0.00    +0.000 A 
ATOM     17  C   UNL     1       7.151   4.616  12.603  0.00  0.00    +0.000 A 
ATOM     18  F   UNL     1       7.894   4.848  11.514  0.00  0.00    +0.000 F 
ATOM     19  C   UNL     1       7.472   5.254  13.797  0.00  0.00    +0.000 A 
ENDBRANCH  12  13
ENDBRANCH   4  12
BRANCH   8  20
ATOM     20  C   UNL     1       2.323   6.229  19.832  0.00  0.00    +0.000 C 
BRANCH  20  21
ATOM     21  O   UNL     1       2.216   5.655  21.141  0.00  0.00    +0.000 OA
ATOM     22  H   UNL     1       1.595   4.903  21.125  0.00  0.00    +0.000 HD
ENDBRANCH  20  21
ENDBRANCH   8  20
TORSDOF 5
ENDMDL
MODEL 3
REMARK VINA RESULT:      -6.7      5.096      6.849
REMARK  Name = 
REMARK  7 active torsions:
REMARK  status: ('A' for Active; 'I' for Inactive)
REMARK    1  A    between atoms: C_1  and  N_2
REMARK    2  A    between atoms: N_2  and  C_3
REMARK    3  A    between atoms: N_2  and  C_4
REMARK    4  A    between atoms: C_7  and  C_9
REMARK    5  A    between atoms: C_9  and  C_10
REMARK    6  A    between atoms: C_19  and  C_20
REMARK    7  A    between atoms: C_20  and  O_21
REMARK                            x       y       z     vdW  Elec       q    Type
REMARK                         _______ _______ _______ _____ _____    ______ ____
ROOT
ATOM      1  C   UNL     1       0.910  10.950  20.164  0.00  0.00    +0.000 C 
ATOM      2  C   UNL     1       0.660   9.676  19.303  0.00  0.00    +0.000 C 
ATOM      3  N   UNL     1       1.398   8.520  19.794  0.00  0.00    +0.000 N 
ATOM      4  C   UNL     1       2.203   7.797  18.906  0.00  0.00    +0.000 C 
ATOM      5  O   UNL     1       2.296   8.106  17.714  0.00  0.00    +0.000 OA
ATOM      6  C   UNL     1       1.146   8.169  21.182  0.00  0.00    +0.000 C 
ATOM      7  C   UNL     1       1.452   9.371  22.074  0.00  0.00    +0.000 C 
ATOM      8  C   UNL     1       0.603  10.613  21.677  0.00  0.00    +0.000 C 
ENDROOT
BRANCH   1  10
ATOM      9  C   UNL     1      -0.757  11.690  18.530  0.00  0.00    +0.000 C 
ATOM     10  N   UNL     1       0.245  12.128  19.532  0.00  0.00    +0.000 NA
ATOM     11  C   UNL     1       1.164  13.049  18.862  0.00  0.00    +0.000 C 
ENDBRANCH   1  10
BRANCH   4  12
ATOM     12  C   UNL     1       2.977   6.600  19.429  0.00  0.00    +0.000 C 
BRANCH  12  13
ATOM     13  C   UNL     1       2.246   5.279  19.324  0.00  0.00    +0.000 A 
ATOM     14  C   UNL     1       1.974   4.660  18.093  0.00  0.00    +0.000 A 
ATOM     15  C   UNL     1       1.300   3.440  18.039  0.00  0.00    +0.000 A 
ATOM     16  C   UNL     1       0.913   2.801  19.213  0.00  0.00    +0.000 A 
ATOM     17  C   UNL     1       1.220   3.384  20.435  0.00  0.00    +0.000 A 
ATOM     18  F   UNL     1       0.866   2.765  21.568  0.00  0.00    +0.000 F 
ATOM     19  C   UNL     1       1.886   4.604  20.504  0.00  0.00    +0.000 A 
ENDBRANCH  12  13
ENDBRANCH   4  12
BRANCH   8  20
ATOM     20  C   UNL     1      -0.874  10.366  22.040  0.00  0.00    +0.000 C 
BRANCH  20  21
ATOM     21  O   UNL     1      -0.985   9.798  23.351  0.00  0.00    +0.000 OA
ATOM     22  H   UNL     1      -0.263  10.128  23.919  0.00  0.00    +0.000 HD
ENDBRANCH  20  21
ENDBRANCH   8  20
TORSDOF 5
ENDMDL
MODEL 4
REMARK VINA RESULT:      -6.7      2.719      6.660
REMARK  Name = 
REMARK  7 active torsions:
REMARK  status: ('A' for Active; 'I' for Inactive)
REMARK    1  A    between atoms: C_1  and  N_2
REMARK    2  A    between atoms: N_2  and  C_3
REMARK    3  A    between atoms: N_2  and  C_4
REMARK    4  A    between atoms: C_7  and  C_9
REMARK    5  A    between atoms: C_9  and  C_10
REMARK    6  A    between atoms: C_19  and  C_20
REMARK    7  A    between atoms: C_20  and  O_21
REMARK                            x       y       z     vdW  Elec       q    Type
REMARK                         _______ _______ _______ _____ _____    ______ ____
ROOT
ATOM      1  C   UNL     1       5.255   5.245  16.560  0.00  0.00    +0.000 C 
ATOM      2  C   UNL     1       4.774   6.527  17.304  0.00  0.00    +0.000 C 
ATOM      3  N   UNL     1       4.087   6.221  18.551  0.00  0.00    +0.000 N 
ATOM      4  C   UNL     1       2.821   6.770  18.784  0.00  0.00    +0.000 C 
ATOM      5  O   UNL     1       2.275   7.515  17.966  0.00  0.00    +0.000 OA
ATOM      6  C   UNL     1       4.849   5.423  19.498  0.00  0.00    +0.000 C 
ATOM      7  C   UNL     1       5.278   4.116  18.831  0.00  0.00    +0.000 C 
ATOM      8  C   UNL     1       6.124   4.374  17.551  0.00  0.00    +0.000 C 
ENDROOT
BRANCH   1  10
ATOM      9  C   UNL     1       5.099   6.775  14.654  0.00  0.00    +0.000 C 
ATOM     10  N   UNL     1       5.821   5.614  15.228  0.00  0.00    +0.000 NA
ATOM     11  C   UNL     1       5.780   4.536  14.238  0.00  0.00    +0.000 C 
ENDBRANCH   1  10
BRANCH   4  12
ATOM     12  C   UNL     1       2.107   6.435  20.082  0.00  0.00    +0.000 C 
BRANCH  12  13
ATOM     13  C   UNL     1       1.867   4.958  20.310  0.00  0.00    +0.000 A 
ATOM     14  C   UNL     1       2.251   4.302  21.491  0.00  0.00    +0.000 A 
ATOM     15  C   UNL     1       2.010   2.939  21.664  0.00  0.00    +0.000 A 
ATOM     16  C   UNL     1       1.353   2.213  20.674  0.00  0.00    +0.000 A 
ATOM     17  C   UNL     1       0.930   2.866  19.524  0.00  0.00    +0.000 A 
ATOM     18  F   UNL     1       0.282   2.176  18.577  0.00  0.00    +0.000 F 
ATOM     19  C   UNL     1       1.170   4.224  19.336  0.00  0.00    +0.000 A 
ENDBRANCH  12  13
ENDBRANCH   4  12
BRANCH   8  20
ATOM     20  C   UNL     1       7.498   4.948  17.948  0.00  0.00    +0.000 C 
BRANCH  20  21
ATOM     21  O   UNL     1       8.521   3.955  17.808  0.00  0.00    +0.000 OA
ATOM     22  H   UNL     1       8.443   3.515  16.940  0.00  0.00    +0.000 HD
ENDBRANCH  20  21
ENDBRANCH   8  20
TORSDOF 5
ENDMDL
MODEL 5
REMARK VINA RESULT:      -6.6      0.997      1.008
REMARK  Name = 
REMARK  7 active torsions:
REMARK  status: ('A' for Active; 'I' for Inactive)
REMARK    1  A    between atoms: C_1  and  N_2
REMARK    2  A    between atoms: N_2  and  C_3
REMARK    3  A    between atoms: N_2  and  C_4
REMARK    4  A    between atoms: C_7  and  C_9
REMARK    5  A    between atoms: C_9  and  C_10
REMARK    6  A    between atoms: C_19  and  C_20
REMARK    7  A    between atoms: C_20  and  O_21
REMARK                            x       y       z     vdW  Elec       q    Type
REMARK                         _______ _______ _______ _____ _____    ______ ____
ROOT
ATOM      1  C   UNL     1       3.091   5.218  18.985  0.00  0.00    +0.000 C 
ATOM      2  C   UNL     1       3.484   5.658  17.542  0.00  0.00    +0.000 C 
ATOM      3  N   UNL     1       4.641   4.932  17.036  0.00  0.00    +0.000 N 
ATOM      4  C   UNL     1       5.725   5.651  16.522  0.00  0.00    +0.000 C 
ATOM      5  O   UNL     1       5.723   6.885  16.474  0.00  0.00    +0.000 OA
ATOM      6  C   UNL     1       4.511   3.483  17.035  0.00  0.00    +0.000 C 
ATOM      7  C   UNL     1       4.199   3.000  18.451  0.00  0.00    +0.000 C 
ATOM      8  C   UNL     1       2.900   3.650  19.007  0.00  0.00    +0.000 C 
ENDROOT
BRANCH   1  10
ATOM      9  C   UNL     1       2.361   7.524  19.374  0.00  0.00    +0.000 C 
ATOM     10  N   UNL     1       1.994   6.093  19.500  0.00  0.00    +0.000 NA
ATOM     11  C   UNL     1       1.640   5.850  20.899  0.00  0.00    +0.000 C 
ENDBRANCH   1  10
BRANCH   4  12
ATOM     12  C   UNL     1       6.932   4.886  16.007  0.00  0.00    +0.000 C 
BRANCH  12  13
ATOM     13  C   UNL     1       6.970   4.700  14.506  0.00  0.00    +0.000 A 
ATOM     14  C   UNL     1       7.811   5.453  13.670  0.00  0.00    +0.000 A 
ATOM     15  C   UNL     1       7.818   5.249  12.290  0.00  0.00    +0.000 A 
ATOM     16  C   UNL     1       7.010   4.269  11.723  0.00  0.00    +0.000 A 
ATOM     17  C   UNL     1       6.210   3.489  12.548  0.00  0.00    +0.000 A 
ATOM     18  F   UNL     1       5.444   2.532  12.010  0.00  0.00    +0.000 F 
ATOM     19  C   UNL     1       6.188   3.685  13.926  0.00  0.00    +0.000 A 
ENDBRANCH  12  13
ENDBRANCH   4  12
BRANCH   8  20
ATOM     20  C   UNL     1       1.679   3.095  18.248  0.00  0.00    +0.000 C 
BRANCH  20  21
ATOM     21  O   UNL     1       1.070   4.119  17.452  0.00  0.00    +0.000 OA
ATOM     22  H   UNL     1       1.730   4.799  17.222  0.00  0.00    +0.000 HD
ENDBRANCH  20  21
ENDBRANCH   8  20
TORSDOF 5
ENDMDL
MODEL 6
REMARK VINA RESULT:      -6.6      1.304      1.667
REMARK  Name = 
REMARK  7 active torsions:
REMARK  status: ('A' for Active; 'I' for Inactive)
REMARK    1  A    between atoms: C_1  and  N_2
REMARK    2  A    between atoms: N_2  and  C_3
REMARK    3  A    between atoms: N_2  and  C_4
REMARK    4  A    between atoms: C_7  and  C_9
REMARK    5  A    between atoms: C_9  and  C_10
REMARK    6  A    between atoms: C_19  and  C_20
REMARK    7  A    between atoms: C_20  and  O_21
REMARK                            x       y       z     vdW  Elec       q    Type
REMARK                         _______ _______ _______ _____ _____    ______ ____
ROOT
ATOM      1  C   UNL     1       2.574   6.337  19.540  0.00  0.00    +0.000 C 
ATOM      2  C   UNL     1       2.691   6.078  18.008  0.00  0.00    +0.000 C 
ATOM      3  N   UNL     1       3.702   5.079  17.689  0.00  0.00    +0.000 N 
ATOM      4  C   UNL     1       4.688   5.385  16.743  0.00  0.00    +0.000 C 
ATOM      5  O   UNL     1       4.717   6.474  16.163  0.00  0.00    +0.000 OA
ATOM      6  C   UNL     1       3.527   3.791  18.340  0.00  0.00    +0.000 C 
ATOM      7  C   UNL     1       3.483   3.989  19.855  0.00  0.00    +0.000 C 
ATOM      8  C   UNL     1       2.340   4.958  20.275  0.00  0.00    +0.000 C 
ENDROOT
BRANCH   1  10
ATOM      9  C   UNL     1       1.910   8.599  18.879  0.00  0.00    +0.000 C 
ATOM     10  N   UNL     1       1.629   7.466  19.793  0.00  0.00    +0.000 NA
ATOM     11  C   UNL     1       1.665   7.984  21.161  0.00  0.00    +0.000 C 
ENDBRANCH   1  10
BRANCH   4  12
ATOM     12  C   UNL     1       5.744   4.341  16.425  0.00  0.00    +0.000 C 
BRANCH  12  13
ATOM     13  C   UNL     1       6.198   4.319  14.981  0.00  0.00    +0.000 A 
ATOM     14  C   UNL     1       5.508   3.614  13.981  0.00  0.00    +0.000 A 
ATOM     15  C   UNL     1       5.957   3.621  12.661  0.00  0.00    +0.000 A 
ATOM     16  C   UNL     1       7.084   4.357  12.308  0.00  0.00    +0.000 A 
ATOM     17  C   UNL     1       7.745   5.094  13.283  0.00  0.00    +0.000 A 
ATOM     18  F   UNL     1       8.818   5.818  12.946  0.00  0.00    +0.000 F 
ATOM     19  C   UNL     1       7.311   5.091  14.606  0.00  0.00    +0.000 A 
ENDBRANCH  12  13
ENDBRANCH   4  12
BRANCH   8  20
ATOM     20  C   UNL     1       0.976   4.278  20.043  0.00  0.00    +0.000 C 
BRANCH  20  21
ATOM     21  O   UNL     1       0.890   3.053  20.781  0.00  0.00    +0.000 OA
ATOM     22  H   UNL     1       1.179   3.197  21.702  0.00  0.00    +0.000 HD
ENDBRANCH  20  21
ENDBRANCH   8  20
TORSDOF 5
ENDMDL
MODEL 7
REMARK VINA RESULT:      -6.6      3.138      6.772
REMARK  Name = 
REMARK  7 active torsions:
REMARK  status: ('A' for Active; 'I' for Inactive)
REMARK    1  A    between atoms: C_1  and  N_2
REMARK    2  A    between atoms: N_2  and  C_3
REMARK    3  A    between atoms: N_2  and  C_4
REMARK    4  A    between atoms: C_7  and  C_9
REMARK    5  A    between atoms: C_9  and  C_10
REMARK    6  A    between atoms: C_19  and  C_20
REMARK    7  A    between atoms: C_20  and  O_21
REMARK                            x       y       z     vdW  Elec       q    Type
REMARK                         _______ _______ _______ _____ _____    ______ ____
ROOT
ATOM      1  C   UNL     1       5.428   5.419  16.561  0.00  0.00    +0.000 C 
ATOM      2  C   UNL     1       4.917   6.619  17.414  0.00  0.00    +0.000 C 
ATOM      3  N   UNL     1       4.125   6.190  18.559  0.00  0.00    +0.000 N 
ATOM      4  C   UNL     1       2.857   6.747  18.758  0.00  0.00    +0.000 C 
ATOM      5  O   UNL     1       2.395   7.601  17.995  0.00  0.00    +0.000 OA
ATOM      6  C   UNL     1       4.791   5.262  19.459  0.00  0.00    +0.000 C 
ATOM      7  C   UNL     1       5.243   4.030  18.676  0.00  0.00    +0.000 C 
ATOM      8  C   UNL     1       6.194   4.410  17.505  0.00  0.00    +0.000 C 
ENDROOT
BRANCH   1  10
ATOM      9  C   UNL     1       5.210   6.826  14.568  0.00  0.00    +0.000 C 
ATOM     10  N   UNL     1       6.107   5.924  15.331  0.00  0.00    +0.000 NA
ATOM     11  C   UNL     1       6.555   4.872  14.417  0.00  0.00    +0.000 C 
ENDBRANCH   1  10
BRANCH   4  12
ATOM     12  C   UNL     1       2.034   6.285  19.947  0.00  0.00    +0.000 C 
BRANCH  12  13
ATOM     13  C   UNL     1       1.675   4.814  19.935  0.00  0.00    +0.000 A 
ATOM     14  C   UNL     1       1.339   4.126  18.758  0.00  0.00    +0.000 A 
ATOM     15  C   UNL     1       1.017   2.770  18.789  0.00  0.00    +0.000 A 
ATOM     16  C   UNL     1       1.055   2.067  19.990  0.00  0.00    +0.000 A 
ATOM     17  C   UNL     1       1.431   2.731  21.151  0.00  0.00    +0.000 A 
ATOM     18  F   UNL     1       1.486   2.057  22.306  0.00  0.00    +0.000 F 
ATOM     19  C   UNL     1       1.749   4.086  21.136  0.00  0.00    +0.000 A 
ENDBRANCH  12  13
ENDBRANCH   4  12
BRANCH   8  20
ATOM     20  C   UNL     1       7.544   4.890  18.073  0.00  0.00    +0.000 C 
BRANCH  20  21
ATOM     21  O   UNL     1       8.581   3.946  17.779  0.00  0.00    +0.000 OA
ATOM     22  H   UNL     1       8.949   4.119  16.892  0.00  0.00    +0.000 HD
ENDBRANCH  20  21
ENDBRANCH   8  20
TORSDOF 5
ENDMDL
MODEL 8
REMARK VINA RESULT:      -6.3      1.736      2.748
REMARK  Name = 
REMARK  7 active torsions:
REMARK  status: ('A' for Active; 'I' for Inactive)
REMARK    1  A    between atoms: C_1  and  N_2
REMARK    2  A    between atoms: N_2  and  C_3
REMARK    3  A    between atoms: N_2  and  C_4
REMARK    4  A    between atoms: C_7  and  C_9
REMARK    5  A    between atoms: C_9  and  C_10
REMARK    6  A    between atoms: C_19  and  C_20
REMARK    7  A    between atoms: C_20  and  O_21
REMARK                            x       y       z     vdW  Elec       q    Type
REMARK                         _______ _______ _______ _____ _____    ______ ____
ROOT
ATOM      1  C   UNL     1       3.496   4.016  18.920  0.00  0.00    +0.000 C 
ATOM      2  C   UNL     1       4.974   4.504  18.996  0.00  0.00    +0.000 C 
ATOM      3  N   UNL     1       5.342   5.340  17.861  0.00  0.00    +0.000 N 
ATOM      4  C   UNL     1       6.489   5.023  17.125  0.00  0.00    +0.000 C 
ATOM      5  O   UNL     1       7.205   4.060  17.418  0.00  0.00    +0.000 OA
ATOM      6  C   UNL     1       4.502   6.509  17.655  0.00  0.00    +0.000 C 
ATOM      7  C   UNL     1       3.047   6.069  17.499  0.00  0.00    +0.000 C 
ATOM      8  C   UNL     1       2.552   5.270  18.739  0.00  0.00    +0.000 C 
ENDROOT
BRANCH   1  10
ATOM      9  C   UNL     1       4.385   2.160  20.247  0.00  0.00    +0.000 C 
ATOM     10  N   UNL     1       3.222   3.053  20.028  0.00  0.00    +0.000 NA
ATOM     11  C   UNL     1       2.050   2.204  19.811  0.00  0.00    +0.000 C 
ENDBRANCH   1  10
BRANCH   4  12
ATOM     12  C   UNL     1       6.858   5.893  15.936  0.00  0.00    +0.000 C 
BRANCH  12  13
ATOM     13  C   UNL     1       6.739   5.210  14.591  0.00  0.00    +0.000 A 
ATOM     14  C   UNL     1       7.770   5.232  13.636  0.00  0.00    +0.000 A 
ATOM     15  C   UNL     1       7.622   4.588  12.408  0.00  0.00    +0.000 A 
ATOM     16  C   UNL     1       6.456   3.883  12.123  0.00  0.00    +0.000 A 
ATOM     17  C   UNL     1       5.452   3.818  13.080  0.00  0.00    +0.000 A 
ATOM     18  F   UNL     1       4.336   3.127  12.818  0.00  0.00    +0.000 F 
ATOM     19  C   UNL     1       5.584   4.462  14.307  0.00  0.00    +0.000 A 
ENDBRANCH  12  13
ENDBRANCH   4  12
BRANCH   8  20
ATOM     20  C   UNL     1       2.428   6.218  19.948  0.00  0.00    +0.000 C 
BRANCH  20  21
ATOM     21  O   UNL     1       2.218   5.473  21.154  0.00  0.00    +0.000 OA
ATOM     22  H   UNL     1       2.990   4.904  21.333  0.00  0.00    +0.000 HD
ENDBRANCH  20  21
ENDBRANCH   8  20
TORSDOF 5
ENDMDL
MODEL 9
REMARK VINA RESULT:      -6.2      2.979      5.306
REMARK  Name = 
REMARK  7 active torsions:
REMARK  status: ('A' for Active; 'I' for Inactive)
REMARK    1  A    between atoms: C_1  and  N_2
REMARK    2  A    between atoms: N_2  and  C_3
REMARK    3  A    between atoms: N_2  and  C_4
REMARK    4  A    between atoms: C_7  and  C_9
REMARK    5  A    between atoms: C_9  and  C_10
REMARK    6  A    between atoms: C_19  and  C_20
REMARK    7  A    between atoms: C_20  and  O_21
REMARK                            x       y       z     vdW  Elec       q    Type
REMARK                         _______ _______ _______ _____ _____    ______ ____
ROOT
ATOM      1  C   UNL     1       0.583   9.434  20.030  0.00  0.00    +0.000 C 
ATOM      2  C   UNL     1       1.769   8.492  20.397  0.00  0.00    +0.000 C 
ATOM      3  N   UNL     1       2.118   7.589  19.308  0.00  0.00    +0.000 N 
ATOM      4  C   UNL     1       2.201   6.215  19.561  0.00  0.00    +0.000 C 
ATOM      5  O   UNL     1       1.996   5.748  20.685  0.00  0.00    +0.000 OA
ATOM      6  C   UNL     1       2.445   8.237  18.048  0.00  0.00    +0.000 C 
ATOM      7  C   UNL     1       1.274   9.117  17.610  0.00  0.00    +0.000 C 
ATOM      8  C   UNL     1       0.926  10.187  18.684  0.00  0.00    +0.000 C 
ENDROOT
BRANCH   1  10
ATOM      9  C   UNL     1      -0.297   9.342  22.313  0.00  0.00    +0.000 C 
ATOM     10  N   UNL     1       0.180  10.231  21.227  0.00  0.00    +0.000 NA
ATOM     11  C   UNL     1      -0.873  11.214  20.968  0.00  0.00    +0.000 C 
ENDBRANCH   1  10
BRANCH   4  12
ATOM     12  C   UNL     1       2.554   5.281  18.417  0.00  0.00    +0.000 C 
BRANCH  12  13
ATOM     13  C   UNL     1       4.039   5.096  18.187  0.00  0.00    +0.000 A 
ATOM     14  C   UNL     1       5.001   5.418  19.159  0.00  0.00    +0.000 A 
ATOM     15  C   UNL     1       6.360   5.231  18.909  0.00  0.00    +0.000 A 
ATOM     16  C   UNL     1       6.783   4.689  17.699  0.00  0.00    +0.000 A 
ATOM     17  C   UNL     1       5.834   4.326  16.751  0.00  0.00    +0.000 A 
ATOM     18  F   UNL     1       6.233   3.788  15.593  0.00  0.00    +0.000 F 
ATOM     19  C   UNL     1       4.475   4.513  16.985  0.00  0.00    +0.000 A 
ENDBRANCH  12  13
ENDBRANCH   4  12
BRANCH   8  20
ATOM     20  C   UNL     1       2.053  11.236  18.750  0.00  0.00    +0.000 C 
BRANCH  20  21
ATOM     21  O   UNL     1       2.306  11.791  17.453  0.00  0.00    +0.000 OA
ATOM     22  H   UNL     1       3.157  11.461  17.110  0.00  0.00    +0.000 HD
ENDBRANCH  20  21
ENDBRANCH   8  20
TORSDOF 5
ENDMDL
