MODEL 1
REMARK VINA RESULT:      -7.7      0.000      0.000
REMARK  Name = 
REMARK  13 active torsions:
REMARK  status: ('A' for Active; 'I' for Inactive)
REMARK    1  A    between atoms: C_1  and  C_2
REMARK    2  A    between atoms: C_3  and  C_4
REMARK    3  A    between atoms: C_5  and  C_6
REMARK    4  A    between atoms: C_6  and  C_7
REMARK    5  A    between atoms: C_8  and  C_9
REMARK    6  A    between atoms: C_9  and  C_10
REMARK    7  A    between atoms: C_9  and  C_11
REMARK    8  A    between atoms: C_11  and  C_12
REMARK    9  A    between atoms: C_12  and  C_13
REMARK   10  A    between atoms: C_14  and  C_15
REMARK   11  A    between atoms: C_15  and  O_16
REMARK   12  A    between atoms: C_17  and  C_18
REMARK   13  A    between atoms: C_17  and  C_19
REMARK                            x       y       z     vdW  Elec       q    Type
REMARK                         _______ _______ _______ _____ _____    ______ ____
ROOT
ATOM      1  C   UNL     1       5.193   5.381  15.910  0.00  0.00    +0.000 C 
ATOM      2  C   UNL     1       5.125   6.806  15.417  0.00  0.00    +0.000 C 
ATOM      3  C   UNL     1       5.689   4.381  15.152  0.00  0.00    +0.000 C 
ENDROOT
BRANCH   1   5
ATOM      4  C   UNL     1       3.423   4.671  17.506  0.00  0.00    +0.000 C 
ATOM      5  C   UNL     1       4.676   5.082  17.244  0.00  0.00    +0.000 C 
BRANCH   4   8
ATOM      6  C   UNL     1       2.430   6.769  19.412  0.00  0.00    +0.000 C 
ATOM      7  C   UNL     1       2.482   5.288  19.703  0.00  0.00    +0.000 C 
ATOM      8  C   UNL     1       2.893   4.336  18.828  0.00  0.00    +0.000 C 
ATOM      9  C   UNL     1       2.767   2.822  19.136  0.00  0.00    +0.000 C 
ATOM     10  C   UNL     1       2.116   2.037  17.972  0.00  0.00    +0.000 C 
ATOM     11  C   UNL     1       4.166   2.219  19.396  0.00  0.00    +0.000 C 
ATOM     12  C   UNL     1       1.868   2.571  20.378  0.00  0.00    +0.000 C 
ATOM     13  C   UNL     1       2.190   3.517  21.523  0.00  0.00    +0.000 C 
ATOM     14  C   UNL     1       1.964   4.958  21.088  0.00  0.00    +0.000 C 
ENDBRANCH   4   8
ENDBRANCH   1   5
BRANCH   3  15
ATOM     15  C   UNL     1       6.247   4.520  13.744  0.00  0.00    +0.000 C 
ATOM     16  C   UNL     1       7.629   5.183  13.830  0.00  0.00    +0.000 C 
BRANCH  15  17
ATOM     17  C   UNL     1       6.362   3.166  12.998  0.00  0.00    +0.000 C 
BRANCH  17  18
ATOM     18  C   UNL     1       5.381   2.817  11.885  0.00  0.00    +0.000 C 
ATOM     19  C   UNL     1       4.202   3.701  11.574  0.00  0.00    +0.000 C 
ATOM     20  C   UNL     1       5.556   1.723  11.111  0.00  0.00    +0.000 C 
BRANCH  20  21
ATOM     21  C   UNL     1       6.669   0.727  11.164  0.00  0.00    +0.000 C 
BRANCH  21  22
ATOM     22  O   UNL     1       6.132  -0.521  11.569  0.00  0.00    +0.000 OA
ATOM     23  H   UNL     1       6.358  -0.626  12.508  0.00  0.00    +0.000 HD
ENDBRANCH  21  22
ENDBRANCH  20  21
ENDBRANCH  17  18
ENDBRANCH  15  17
ENDBRANCH   3  15
TORSDOF 7
ENDMDL
MODEL 2
REMARK VINA RESULT:      -7.2      4.538      8.669
REMARK  Name = 
REMARK  13 active torsions:
REMARK  status: ('A' for Active; 'I' for Inactive)
REMARK    1  A    between atoms: C_1  and  C_2
REMARK    2  A    between atoms: C_3  and  C_4
REMARK    3  A    between atoms: C_5  and  C_6
REMARK    4  A    between atoms: C_6  and  C_7
REMARK    5  A    between atoms: C_8  and  C_9
REMARK    6  A    between atoms: C_9  and  C_10
REMARK    7  A    between atoms: C_9  and  C_11
REMARK    8  A    between atoms: C_11  and  C_12
REMARK    9  A    between atoms: C_12  and  C_13
REMARK   10  A    between atoms: C_14  and  C_15
REMARK   11  A    between atoms: C_15  and  O_16
REMARK   12  A    between atoms: C_17  and  C_18
REMARK   13  A    between atoms: C_17  and  C_19
REMARK                            x       y       z     vdW  Elec       q    Type
REMARK                         _______ _______ _______ _____ _____    ______ ____
ROOT
ATOM      1  C   UNL     1       1.427   9.354  17.871  0.00  0.00    +0.000 C 
ATOM      2  C   UNL     1       2.316  10.553  18.100  0.00  0.00    +0.000 C 
ATOM      3  C   UNL     1       0.084   9.423  17.987  0.00  0.00    +0.000 C 
ENDROOT
BRANCH   1   5
ATOM      4  C   UNL     1       2.788   7.340  18.392  0.00  0.00    +0.000 C 
ATOM      5  C   UNL     1       2.054   8.076  17.540  0.00  0.00    +0.000 C 
BRANCH   4   8
ATOM      6  C   UNL     1       5.480   7.103  17.079  0.00  0.00    +0.000 C 
ATOM      7  C   UNL     1       4.597   5.939  17.464  0.00  0.00    +0.000 C 
ATOM      8  C   UNL     1       3.399   6.044  18.092  0.00  0.00    +0.000 C 
ATOM      9  C   UNL     1       2.623   4.804  18.602  0.00  0.00    +0.000 C 
ATOM     10  C   UNL     1       2.156   4.963  20.068  0.00  0.00    +0.000 C 
ATOM     11  C   UNL     1       1.372   4.568  17.725  0.00  0.00    +0.000 C 
ATOM     12  C   UNL     1       3.511   3.529  18.571  0.00  0.00    +0.000 C 
ATOM     13  C   UNL     1       4.298   3.408  17.278  0.00  0.00    +0.000 C 
ATOM     14  C   UNL     1       5.224   4.605  17.116  0.00  0.00    +0.000 C 
ENDBRANCH   4   8
ENDBRANCH   1   5
BRANCH   3  15
ATOM     15  C   UNL     1      -0.719  10.665  18.341  0.00  0.00    +0.000 C 
ATOM     16  C   UNL     1      -2.006  10.668  17.505  0.00  0.00    +0.000 C 
BRANCH  15  17
ATOM     17  C   UNL     1      -1.074  10.753  19.848  0.00  0.00    +0.000 C 
BRANCH  17  18
ATOM     18  C   UNL     1      -0.015  11.165  20.863  0.00  0.00    +0.000 C 
ATOM     19  C   UNL     1       0.306  12.614  21.116  0.00  0.00    +0.000 C 
ATOM     20  C   UNL     1       0.646  10.246  21.602  0.00  0.00    +0.000 C 
BRANCH  20  21
ATOM     21  C   UNL     1       0.470   8.762  21.595  0.00  0.00    +0.000 C 
BRANCH  21  22
ATOM     22  O   UNL     1       1.753   8.161  21.664  0.00  0.00    +0.000 OA
ATOM     23  H   UNL     1       2.014   8.176  22.600  0.00  0.00    +0.000 HD
ENDBRANCH  21  22
ENDBRANCH  20  21
ENDBRANCH  17  18
ENDBRANCH  15  17
ENDBRANCH   3  15
TORSDOF 7
ENDMDL
MODEL 3
REMARK VINA RESULT:      -7.1      4.979      8.926
REMARK  Name = 
REMARK  13 active torsions:
REMARK  status: ('A' for Active; 'I' for Inactive)
REMARK    1  A    between atoms: C_1  and  C_2
REMARK    2  A    between atoms: C_3  and  C_4
REMARK    3  A    between atoms: C_5  and  C_6
REMARK    4  A    between atoms: C_6  and  C_7
REMARK    5  A    between atoms: C_8  and  C_9
REMARK    6  A    between atoms: C_9  and  C_10
REMARK    7  A    between atoms: C_9  and  C_11
REMARK    8  A    between atoms: C_11  and  C_12
REMARK    9  A    between atoms: C_12  and  C_13
REMARK   10  A    between atoms: C_14  and  C_15
REMARK   11  A    between atoms: C_15  and  O_16
REMARK   12  A    between atoms: C_17  and  C_18
REMARK   13  A    between atoms: C_17  and  C_19
REMARK                            x       y       z     vdW  Elec       q    Type
REMARK                         _______ _______ _______ _____ _____    ______ ____
ROOT
ATOM      1  C   UNL     1       1.426   9.311  17.838  0.00  0.00    +0.000 C 
ATOM      2  C   UNL     1       2.293  10.525  18.067  0.00  0.00    +0.000 C 
ATOM      3  C   UNL     1       0.081   9.360  17.937  0.00  0.00    +0.000 C 
ENDROOT
BRANCH   1   5
ATOM      4  C   UNL     1       2.772   7.299  18.405  0.00  0.00    +0.000 C 
ATOM      5  C   UNL     1       2.077   8.040  17.525  0.00  0.00    +0.000 C 
BRANCH   4   8
ATOM      6  C   UNL     1       5.490   7.092  17.141  0.00  0.00    +0.000 C 
ATOM      7  C   UNL     1       4.616   5.918  17.516  0.00  0.00    +0.000 C 
ATOM      8  C   UNL     1       3.406   6.010  18.123  0.00  0.00    +0.000 C 
ATOM      9  C   UNL     1       2.637   4.762  18.626  0.00  0.00    +0.000 C 
ATOM     10  C   UNL     1       2.143   4.922  20.083  0.00  0.00    +0.000 C 
ATOM     11  C   UNL     1       1.405   4.504  17.729  0.00  0.00    +0.000 C 
ATOM     12  C   UNL     1       3.543   3.499  18.617  0.00  0.00    +0.000 C 
ATOM     13  C   UNL     1       4.354   3.382  17.338  0.00  0.00    +0.000 C 
ATOM     14  C   UNL     1       5.267   4.591  17.187  0.00  0.00    +0.000 C 
ENDBRANCH   4   8
ENDBRANCH   1   5
BRANCH   3  15
ATOM     15  C   UNL     1      -0.746  10.592  18.271  0.00  0.00    +0.000 C 
ATOM     16  C   UNL     1      -1.976  10.617  17.352  0.00  0.00    +0.000 C 
BRANCH  15  17
ATOM     17  C   UNL     1      -1.199  10.639  19.752  0.00  0.00    +0.000 C 
BRANCH  17  18
ATOM     18  C   UNL     1      -0.220  10.288  20.866  0.00  0.00    +0.000 C 
ATOM     19  C   UNL     1      -0.166   8.905  21.456  0.00  0.00    +0.000 C 
ATOM     20  C   UNL     1       0.664  11.197  21.337  0.00  0.00    +0.000 C 
BRANCH  20  21
ATOM     21  C   UNL     1       0.864  12.607  20.881  0.00  0.00    +0.000 C 
BRANCH  21  22
ATOM     22  O   UNL     1       2.209  12.972  21.140  0.00  0.00    +0.000 OA
ATOM     23  H   UNL     1       2.176  13.805  21.641  0.00  0.00    +0.000 HD
ENDBRANCH  21  22
ENDBRANCH  20  21
ENDBRANCH  17  18
ENDBRANCH  15  17
ENDBRANCH   3  15
TORSDOF 7
ENDMDL
MODEL 4
REMARK VINA RESULT:      -6.8      4.663      7.982
REMARK  Name = 
REMARK  13 active torsions:
REMARK  status: ('A' for Active; 'I' for Inactive)
REMARK    1  A    between atoms: C_1  and  C_2
REMARK    2  A    between atoms: C_3  and  C_4
REMARK    3  A    between atoms: C_5  and  C_6
REMARK    4  A    between atoms: C_6  and  C_7
REMARK    5  A    between atoms: C_8  and  C_9
REMARK    6  A    between atoms: C_9  and  C_10
REMARK    7  A    between atoms: C_9  and  C_11
REMARK    8  A    between atoms: C_11  and  C_12
REMARK    9  A    between atoms: C_12  and  C_13
REMARK   10  A    between atoms: C_14  and  C_15
REMARK   11  A    between atoms: C_15  and  O_16
REMARK   12  A    between atoms: C_17  and  C_18
REMARK   13  A    between atoms: C_17  and  C_19
REMARK                            x       y       z     vdW  Elec       q    Type
REMARK                         _______ _______ _______ _____ _____    ______ ____
ROOT
ATOM      1  C   UNL     1       1.919   8.299  19.109  0.00  0.00    +0.000 C 
ATOM      2  C   UNL     1       2.036   8.711  17.661  0.00  0.00    +0.000 C 
ATOM      3  C   UNL     1       2.344   7.097  19.550  0.00  0.00    +0.000 C 
ENDROOT
BRANCH   1   5
ATOM      4  C   UNL     1       0.120   9.848  19.850  0.00  0.00    +0.000 C 
ATOM      5  C   UNL     1       1.297   9.230  20.049  0.00  0.00    +0.000 C 
BRANCH   4   8
ATOM      6  C   UNL     1      -0.114   9.231  22.780  0.00  0.00    +0.000 C 
ATOM      7  C   UNL     1      -0.674  10.460  22.105  0.00  0.00    +0.000 C 
ATOM      8  C   UNL     1      -0.535  10.759  20.789  0.00  0.00    +0.000 C 
ATOM      9  C   UNL     1      -0.995  12.115  20.197  0.00  0.00    +0.000 C 
ATOM     10  C   UNL     1       0.098  12.778  19.326  0.00  0.00    +0.000 C 
ATOM     11  C   UNL     1      -2.248  11.908  19.316  0.00  0.00    +0.000 C 
ATOM     12  C   UNL     1      -1.328  13.138  21.318  0.00  0.00    +0.000 C 
ATOM     13  C   UNL     1      -2.152  12.520  22.435  0.00  0.00    +0.000 C 
ATOM     14  C   UNL     1      -1.381  11.377  23.082  0.00  0.00    +0.000 C 
ENDBRANCH   4   8
ENDBRANCH   1   5
BRANCH   3  15
ATOM     15  C   UNL     1       2.993   6.013  18.703  0.00  0.00    +0.000 C 
ATOM     16  C   UNL     1       4.160   5.407  19.496  0.00  0.00    +0.000 C 
BRANCH  15  17
ATOM     17  C   UNL     1       2.005   4.892  18.288  0.00  0.00    +0.000 C 
BRANCH  17  18
ATOM     18  C   UNL     1       1.720   3.732  19.234  0.00  0.00    +0.000 C 
ATOM     19  C   UNL     1       0.916   3.925  20.492  0.00  0.00    +0.000 C 
ATOM     20  C   UNL     1       2.144   2.478  18.957  0.00  0.00    +0.000 C 
BRANCH  20  21
ATOM     21  C   UNL     1       2.894   2.006  17.753  0.00  0.00    +0.000 C 
BRANCH  21  22
ATOM     22  O   UNL     1       4.282   2.150  18.009  0.00  0.00    +0.000 OA
ATOM     23  H   UNL     1       4.593   2.870  17.434  0.00  0.00    +0.000 HD
ENDBRANCH  21  22
ENDBRANCH  20  21
ENDBRANCH  17  18
ENDBRANCH  15  17
ENDBRANCH   3  15
TORSDOF 7
ENDMDL
MODEL 5
REMARK VINA RESULT:      -6.8      5.509      9.571
REMARK  Name = 
REMARK  13 active torsions:
REMARK  status: ('A' for Active; 'I' for Inactive)
REMARK    1  A    between atoms: C_1  and  C_2
REMARK    2  A    between atoms: C_3  and  C_4
REMARK    3  A    between atoms: C_5  and  C_6
REMARK    4  A    between atoms: C_6  and  C_7
REMARK    5  A    between atoms: C_8  and  C_9
REMARK    6  A    between atoms: C_9  and  C_10
REMARK    7  A    between atoms: C_9  and  C_11
REMARK    8  A    between atoms: C_11  and  C_12
REMARK    9  A    between atoms: C_12  and  C_13
REMARK   10  A    between atoms: C_14  and  C_15
REMARK   11  A    between atoms: C_15  and  O_16
REMARK   12  A    between atoms: C_17  and  C_18
REMARK   13  A    between atoms: C_17  and  C_19
REMARK                            x       y       z     vdW  Elec       q    Type
REMARK                         _______ _______ _______ _____ _____    ______ ____
ROOT
ATOM      1  C   UNL     1       1.977   8.346  18.861  0.00  0.00    +0.000 C 
ATOM      2  C   UNL     1       2.279   9.133  17.609  0.00  0.00    +0.000 C 
ATOM      3  C   UNL     1       1.244   8.858  19.872  0.00  0.00    +0.000 C 
ENDROOT
BRANCH   1   5
ATOM      4  C   UNL     1       2.058   5.918  18.332  0.00  0.00    +0.000 C 
ATOM      5  C   UNL     1       2.525   6.996  18.984  0.00  0.00    +0.000 C 
BRANCH   4   8
ATOM      6  C   UNL     1       4.474   5.073  16.759  0.00  0.00    +0.000 C 
ATOM      7  C   UNL     1       3.677   4.174  17.674  0.00  0.00    +0.000 C 
ATOM      8  C   UNL     1       2.609   4.565  18.415  0.00  0.00    +0.000 C 
ATOM      9  C   UNL     1       1.939   3.631  19.455  0.00  0.00    +0.000 C 
ATOM     10  C   UNL     1       1.740   4.323  20.825  0.00  0.00    +0.000 C 
ATOM     11  C   UNL     1       0.553   3.179  18.942  0.00  0.00    +0.000 C 
ATOM     12  C   UNL     1       2.812   2.375  19.732  0.00  0.00    +0.000 C 
ATOM     13  C   UNL     1       3.357   1.761  18.454  0.00  0.00    +0.000 C 
ATOM     14  C   UNL     1       4.236   2.767  17.725  0.00  0.00    +0.000 C 
ENDBRANCH   4   8
ENDBRANCH   1   5
BRANCH   3  15
ATOM     15  C   UNL     1       0.621  10.244  19.910  0.00  0.00    +0.000 C 
ATOM     16  C   UNL     1      -0.854  10.127  19.497  0.00  0.00    +0.000 C 
BRANCH  15  17
ATOM     17  C   UNL     1       0.722  10.920  21.301  0.00  0.00    +0.000 C 
BRANCH  17  18
ATOM     18  C   UNL     1      -0.321  10.628  22.374  0.00  0.00    +0.000 C 
ATOM     19  C   UNL     1      -0.462   9.256  22.977  0.00  0.00    +0.000 C 
ATOM     20  C   UNL     1      -1.130  11.601  22.852  0.00  0.00    +0.000 C 
BRANCH  20  21
ATOM     21  C   UNL     1      -1.149  13.048  22.477  0.00  0.00    +0.000 C 
BRANCH  21  22
ATOM     22  O   UNL     1      -1.212  13.815  23.667  0.00  0.00    +0.000 OA
ATOM     23  H   UNL     1      -2.028  14.340  23.612  0.00  0.00    +0.000 HD
ENDBRANCH  21  22
ENDBRANCH  20  21
ENDBRANCH  17  18
ENDBRANCH  15  17
ENDBRANCH   3  15
TORSDOF 7
ENDMDL
MODEL 6
REMARK VINA RESULT:      -6.8      5.366      9.441
REMARK  Name = 
REMARK  13 active torsions:
REMARK  status: ('A' for Active; 'I' for Inactive)
REMARK    1  A    between atoms: C_1  and  C_2
REMARK    2  A    between atoms: C_3  and  C_4
REMARK    3  A    between atoms: C_5  and  C_6
REMARK    4  A    between atoms: C_6  and  C_7
REMARK    5  A    between atoms: C_8  and  C_9
REMARK    6  A    between atoms: C_9  and  C_10
REMARK    7  A    between atoms: C_9  and  C_11
REMARK    8  A    between atoms: C_11  and  C_12
REMARK    9  A    between atoms: C_12  and  C_13
REMARK   10  A    between atoms: C_14  and  C_15
REMARK   11  A    between atoms: C_15  and  O_16
REMARK   12  A    between atoms: C_17  and  C_18
REMARK   13  A    between atoms: C_17  and  C_19
REMARK                            x       y       z     vdW  Elec       q    Type
REMARK                         _______ _______ _______ _____ _____    ______ ____
ROOT
ATOM      1  C   UNL     1       1.834   9.526  18.042  0.00  0.00    +0.000 C 
ATOM      2  C   UNL     1       2.612  10.782  17.732  0.00  0.00    +0.000 C 
ATOM      3  C   UNL     1       0.657   9.554  18.702  0.00  0.00    +0.000 C 
ENDROOT
BRANCH   1   5
ATOM      4  C   UNL     1       2.921   7.331  18.472  0.00  0.00    +0.000 C 
ATOM      5  C   UNL     1       2.396   8.240  17.632  0.00  0.00    +0.000 C 
BRANCH   4   8
ATOM      6  C   UNL     1       5.563   7.039  17.074  0.00  0.00    +0.000 C 
ATOM      7  C   UNL     1       4.636   5.899  17.422  0.00  0.00    +0.000 C 
ATOM      8  C   UNL     1       3.461   6.026  18.088  0.00  0.00    +0.000 C 
ATOM      9  C   UNL     1       2.639   4.797  18.554  0.00  0.00    +0.000 C 
ATOM     10  C   UNL     1       2.218   4.900  20.040  0.00  0.00    +0.000 C 
ATOM     11  C   UNL     1       1.356   4.667  17.702  0.00  0.00    +0.000 C 
ATOM     12  C   UNL     1       3.464   3.486  18.432  0.00  0.00    +0.000 C 
ATOM     13  C   UNL     1       4.211   3.397  17.112  0.00  0.00    +0.000 C 
ATOM     14  C   UNL     1       5.189   4.558  16.988  0.00  0.00    +0.000 C 
ENDBRANCH   4   8
ENDBRANCH   1   5
BRANCH   3  15
ATOM     15  C   UNL     1      -0.052  10.799  19.210  0.00  0.00    +0.000 C 
ATOM     16  C   UNL     1      -1.564  10.537  19.202  0.00  0.00    +0.000 C 
BRANCH  15  17
ATOM     17  C   UNL     1       0.399  11.219  20.633  0.00  0.00    +0.000 C 
BRANCH  17  18
ATOM     18  C   UNL     1       0.143  10.300  21.821  0.00  0.00    +0.000 C 
ATOM     19  C   UNL     1       0.863   8.986  21.965  0.00  0.00    +0.000 C 
ATOM     20  C   UNL     1      -0.711  10.650  22.810  0.00  0.00    +0.000 C 
BRANCH  20  21
ATOM     21  C   UNL     1      -1.493  11.916  22.944  0.00  0.00    +0.000 C 
BRANCH  21  22
ATOM     22  O   UNL     1      -0.610  12.943  23.362  0.00  0.00    +0.000 OA
ATOM     23  H   UNL     1       0.190  12.857  22.817  0.00  0.00    +0.000 HD
ENDBRANCH  21  22
ENDBRANCH  20  21
ENDBRANCH  17  18
ENDBRANCH  15  17
ENDBRANCH   3  15
TORSDOF 7
ENDMDL
MODEL 7
REMARK VINA RESULT:      -6.8      4.882      8.603
REMARK  Name = 
REMARK  13 active torsions:
REMARK  status: ('A' for Active; 'I' for Inactive)
REMARK    1  A    between atoms: C_1  and  C_2
REMARK    2  A    between atoms: C_3  and  C_4
REMARK    3  A    between atoms: C_5  and  C_6
REMARK    4  A    between atoms: C_6  and  C_7
REMARK    5  A    between atoms: C_8  and  C_9
REMARK    6  A    between atoms: C_9  and  C_10
REMARK    7  A    between atoms: C_9  and  C_11
REMARK    8  A    between atoms: C_11  and  C_12
REMARK    9  A    between atoms: C_12  and  C_13
REMARK   10  A    between atoms: C_14  and  C_15
REMARK   11  A    between atoms: C_15  and  O_16
REMARK   12  A    between atoms: C_17  and  C_18
REMARK   13  A    between atoms: C_17  and  C_19
REMARK                            x       y       z     vdW  Elec       q    Type
REMARK                         _______ _______ _______ _____ _____    ______ ____
ROOT
ATOM      1  C   UNL     1       1.732   9.018  18.769  0.00  0.00    +0.000 C 
ATOM      2  C   UNL     1       1.156   8.890  20.159  0.00  0.00    +0.000 C 
ATOM      3  C   UNL     1       1.844  10.209  18.145  0.00  0.00    +0.000 C 
ENDROOT
BRANCH   1   5
ATOM      4  C   UNL     1       3.099   6.955  18.522  0.00  0.00    +0.000 C 
ATOM      5  C   UNL     1       2.154   7.802  18.077  0.00  0.00    +0.000 C 
BRANCH   4   8
ATOM      6  C   UNL     1       1.398   4.479  18.541  0.00  0.00    +0.000 C 
ATOM      7  C   UNL     1       2.764   4.588  17.905  0.00  0.00    +0.000 C 
ATOM      8  C   UNL     1       3.515   5.717  17.862  0.00  0.00    +0.000 C 
ATOM      9  C   UNL     1       4.834   5.801  17.052  0.00  0.00    +0.000 C 
ATOM     10  C   UNL     1       4.891   7.055  16.147  0.00  0.00    +0.000 C 
ATOM     11  C   UNL     1       6.042   5.851  18.015  0.00  0.00    +0.000 C 
ATOM     12  C   UNL     1       4.993   4.580  16.103  0.00  0.00    +0.000 C 
ATOM     13  C   UNL     1       4.647   3.270  16.789  0.00  0.00    +0.000 C 
ATOM     14  C   UNL     1       3.199   3.291  17.256  0.00  0.00    +0.000 C 
ENDBRANCH   4   8
ENDBRANCH   1   5
BRANCH   3  15
ATOM     15  C   UNL     1       1.437  11.558  18.716  0.00  0.00    +0.000 C 
ATOM     16  C   UNL     1       2.472  12.605  18.279  0.00  0.00    +0.000 C 
BRANCH  15  17
ATOM     17  C   UNL     1       0.021  12.006  18.270  0.00  0.00    +0.000 C 
BRANCH  17  18
ATOM     18  C   UNL     1      -1.215  11.427  18.947  0.00  0.00    +0.000 C 
ATOM     19  C   UNL     1      -1.547  11.748  20.380  0.00  0.00    +0.000 C 
ATOM     20  C   UNL     1      -2.081  10.636  18.273  0.00  0.00    +0.000 C 
BRANCH  20  21
ATOM     21  C   UNL     1      -2.022  10.223  16.838  0.00  0.00    +0.000 C 
BRANCH  21  22
ATOM     22  O   UNL     1      -2.371  11.341  16.038  0.00  0.00    +0.000 OA
ATOM     23  H   UNL     1      -1.536  11.779  15.800  0.00  0.00    +0.000 HD
ENDBRANCH  21  22
ENDBRANCH  20  21
ENDBRANCH  17  18
ENDBRANCH  15  17
ENDBRANCH   3  15
TORSDOF 7
ENDMDL
MODEL 8
REMARK VINA RESULT:      -6.8      5.599      9.700
REMARK  Name = 
REMARK  13 active torsions:
REMARK  status: ('A' for Active; 'I' for Inactive)
REMARK    1  A    between atoms: C_1  and  C_2
REMARK    2  A    between atoms: C_3  and  C_4
REMARK    3  A    between atoms: C_5  and  C_6
REMARK    4  A    between atoms: C_6  and  C_7
REMARK    5  A    between atoms: C_8  and  C_9
REMARK    6  A    between atoms: C_9  and  C_10
REMARK    7  A    between atoms: C_9  and  C_11
REMARK    8  A    between atoms: C_11  and  C_12
REMARK    9  A    between atoms: C_12  and  C_13
REMARK   10  A    between atoms: C_14  and  C_15
REMARK   11  A    between atoms: C_15  and  O_16
REMARK   12  A    between atoms: C_17  and  C_18
REMARK   13  A    between atoms: C_17  and  C_19
REMARK                            x       y       z     vdW  Elec       q    Type
REMARK                         _______ _______ _______ _____ _____    ______ ____
ROOT
ATOM      1  C   UNL     1       1.786   8.466  19.252  0.00  0.00    +0.000 C 
ATOM      2  C   UNL     1       2.096   9.051  17.895  0.00  0.00    +0.000 C 
ATOM      3  C   UNL     1       1.048   9.128  20.168  0.00  0.00    +0.000 C 
ENDROOT
BRANCH   1   5
ATOM      4  C   UNL     1       2.337   6.093  18.756  0.00  0.00    +0.000 C 
ATOM      5  C   UNL     1       2.332   7.152  19.584  0.00  0.00    +0.000 C 
BRANCH   4   8
ATOM      6  C   UNL     1       0.833   4.017  20.323  0.00  0.00    +0.000 C 
ATOM      7  C   UNL     1       2.240   3.856  19.797  0.00  0.00    +0.000 C 
ATOM      8  C   UNL     1       2.905   4.778  19.055  0.00  0.00    +0.000 C 
ATOM      9  C   UNL     1       4.283   4.481  18.412  0.00  0.00    +0.000 C 
ATOM     10  C   UNL     1       4.329   4.868  16.914  0.00  0.00    +0.000 C 
ATOM     11  C   UNL     1       5.389   5.274  19.144  0.00  0.00    +0.000 C 
ATOM     12  C   UNL     1       4.621   2.966  18.473  0.00  0.00    +0.000 C 
ATOM     13  C   UNL     1       4.313   2.362  19.833  0.00  0.00    +0.000 C 
ATOM     14  C   UNL     1       2.830   2.505  20.143  0.00  0.00    +0.000 C 
ENDBRANCH   4   8
ENDBRANCH   1   5
BRANCH   3  15
ATOM     15  C   UNL     1       0.426  10.504  19.988  0.00  0.00    +0.000 C 
ATOM     16  C   UNL     1      -1.006  10.326  19.464  0.00  0.00    +0.000 C 
BRANCH  15  17
ATOM     17  C   UNL     1       0.404  11.338  21.294  0.00  0.00    +0.000 C 
BRANCH  17  18
ATOM     18  C   UNL     1      -0.507  10.935  22.447  0.00  0.00    +0.000 C 
ATOM     19  C   UNL     1      -0.351   9.610  23.144  0.00  0.00    +0.000 C 
ATOM     20  C   UNL     1      -1.464  11.770  22.912  0.00  0.00    +0.000 C 
BRANCH  20  21
ATOM     21  C   UNL     1      -1.781  13.155  22.448  0.00  0.00    +0.000 C 
BRANCH  21  22
ATOM     22  O   UNL     1      -1.021  14.069  23.222  0.00  0.00    +0.000 OA
ATOM     23  H   UNL     1      -0.351  14.443  22.625  0.00  0.00    +0.000 HD
ENDBRANCH  21  22
ENDBRANCH  20  21
ENDBRANCH  17  18
ENDBRANCH  15  17
ENDBRANCH   3  15
TORSDOF 7
ENDMDL
MODEL 9
REMARK VINA RESULT:      -6.8      0.926      2.028
REMARK  Name = 
REMARK  13 active torsions:
REMARK  status: ('A' for Active; 'I' for Inactive)
REMARK    1  A    between atoms: C_1  and  C_2
REMARK    2  A    between atoms: C_3  and  C_4
REMARK    3  A    between atoms: C_5  and  C_6
REMARK    4  A    between atoms: C_6  and  C_7
REMARK    5  A    between atoms: C_8  and  C_9
REMARK    6  A    between atoms: C_9  and  C_10
REMARK    7  A    between atoms: C_9  and  C_11
REMARK    8  A    between atoms: C_11  and  C_12
REMARK    9  A    between atoms: C_12  and  C_13
REMARK   10  A    between atoms: C_14  and  C_15
REMARK   11  A    between atoms: C_15  and  O_16
REMARK   12  A    between atoms: C_17  and  C_18
REMARK   13  A    between atoms: C_17  and  C_19
REMARK                            x       y       z     vdW  Elec       q    Type
REMARK                         _______ _______ _______ _____ _____    ______ ____
ROOT
ATOM      1  C   UNL     1       5.156   4.773  15.726  0.00  0.00    +0.000 C 
ATOM      2  C   UNL     1       5.630   6.195  15.911  0.00  0.00    +0.000 C 
ATOM      3  C   UNL     1       5.497   4.037  14.648  0.00  0.00    +0.000 C 
ENDROOT
BRANCH   1   5
ATOM      4  C   UNL     1       4.194   4.622  18.014  0.00  0.00    +0.000 C 
ATOM      5  C   UNL     1       4.278   4.196  16.742  0.00  0.00    +0.000 C 
BRANCH   4   8
ATOM      6  C   UNL     1       5.052   2.446  19.900  0.00  0.00    +0.000 C 
ATOM      7  C   UNL     1       3.677   3.069  19.863  0.00  0.00    +0.000 C 
ATOM      8  C   UNL     1       3.301   4.079  19.039  0.00  0.00    +0.000 C 
ATOM      9  C   UNL     1       1.924   4.780  19.167  0.00  0.00    +0.000 C 
ATOM     10  C   UNL     1       2.049   6.322  19.183  0.00  0.00    +0.000 C 
ATOM     11  C   UNL     1       1.019   4.386  17.978  0.00  0.00    +0.000 C 
ATOM     12  C   UNL     1       1.215   4.394  20.494  0.00  0.00    +0.000 C 
ATOM     13  C   UNL     1       1.296   2.903  20.777  0.00  0.00    +0.000 C 
ATOM     14  C   UNL     1       2.751   2.475  20.904  0.00  0.00    +0.000 C 
ENDBRANCH   4   8
ENDBRANCH   1   5
BRANCH   3  15
ATOM     15  C   UNL     1       6.382   4.492  13.499  0.00  0.00    +0.000 C 
ATOM     16  C   UNL     1       7.736   4.936  14.073  0.00  0.00    +0.000 C 
BRANCH  15  17
ATOM     17  C   UNL     1       6.604   3.394  12.427  0.00  0.00    +0.000 C 
BRANCH  17  18
ATOM     18  C   UNL     1       5.412   2.773  11.708  0.00  0.00    +0.000 C 
ATOM     19  C   UNL     1       4.136   3.542  11.497  0.00  0.00    +0.000 C 
ATOM     20  C   UNL     1       5.473   1.522  11.198  0.00  0.00    +0.000 C 
BRANCH  20  21
ATOM     21  C   UNL     1       6.633   0.580  11.210  0.00  0.00    +0.000 C 
BRANCH  21  22
ATOM     22  O   UNL     1       6.130  -0.746  11.192  0.00  0.00    +0.000 OA
ATOM     23  H   UNL     1       5.287  -0.727  11.676  0.00  0.00    +0.000 HD
ENDBRANCH  21  22
ENDBRANCH  20  21
ENDBRANCH  17  18
ENDBRANCH  15  17
ENDBRANCH   3  15
TORSDOF 7
ENDMDL
