MODEL 1
REMARK VINA RESULT:      -6.4      0.000      0.000
REMARK  Name = 
REMARK  1 active torsions:
REMARK  status: ('A' for Active; 'I' for Inactive)
REMARK    1  A    between atoms: C_1  and  N_2
REMARK                            x       y       z     vdW  Elec       q    Type
REMARK                         _______ _______ _______ _____ _____    ______ ____
ROOT
ATOM      1  C   UNL     1       6.895   3.941  12.518  0.00  0.00    +0.000 C 
ATOM      2  N   UNL     1       5.792   3.865  13.461  0.00  0.00    +0.000 N 
ATOM      3  C   UNL     1       5.963   4.222  14.780  0.00  0.00    +0.000 C 
ATOM      4  N   UNL     1       7.112   4.643  15.204  0.00  0.00    +0.000 NA
ATOM      5  S   UNL     1       7.370   5.123  16.729  0.00  0.00    +0.000 S 
ATOM      6  O   UNL     1       8.231   4.182  17.413  0.00  0.00    +0.000 OA
ATOM      7  O   UNL     1       7.589   6.554  16.772  0.00  0.00    +0.000 OA
ATOM      8  C   UNL     1       5.784   4.879  17.413  0.00  0.00    +0.000 A 
ATOM      9  S   UNL     1       5.473   5.252  19.037  0.00  0.00    +0.000 S 
ATOM     10  C   UNL     1       3.871   4.711  18.871  0.00  0.00    +0.000 A 
ATOM     11 CL   UNL     1       2.810   4.779  20.220  0.00  0.00    +0.000 Cl
ATOM     12  C   UNL     1       3.568   4.250  17.611  0.00  0.00    +0.000 A 
ATOM     13  C   UNL     1       4.695   4.378  16.761  0.00  0.00    +0.000 A 
ATOM     14  N   UNL     1       4.773   4.059  15.455  0.00  0.00    +0.000 N 
ATOM     15  H   UNL     1       4.922   4.197  13.057  0.00  0.00    +0.000 HD
ATOM     16  H   UNL     1       4.049   3.530  14.983  0.00  0.00    +0.000 HD
ENDROOT
TORSDOF 0
ENDMDL
MODEL 2
REMARK VINA RESULT:      -6.0      2.674      3.224
REMARK  Name = 
REMARK  1 active torsions:
REMARK  status: ('A' for Active; 'I' for Inactive)
REMARK    1  A    between atoms: C_1  and  N_2
REMARK                            x       y       z     vdW  Elec       q    Type
REMARK                         _______ _______ _______ _____ _____    ______ ____
ROOT
ATOM      1  C   UNL     1       6.760   4.819  14.660  0.00  0.00    +0.000 C 
ATOM      2  N   UNL     1       5.915   5.795  15.327  0.00  0.00    +0.000 N 
ATOM      3  C   UNL     1       5.184   5.452  16.443  0.00  0.00    +0.000 C 
ATOM      4  N   UNL     1       5.245   4.252  16.927  0.00  0.00    +0.000 NA
ATOM      5  S   UNL     1       4.450   3.795  18.262  0.00  0.00    +0.000 S 
ATOM      6  O   UNL     1       3.390   2.870  17.923  0.00  0.00    +0.000 OA
ATOM      7  O   UNL     1       5.385   3.550  19.340  0.00  0.00    +0.000 OA
ATOM      8  C   UNL     1       3.645   5.285  18.680  0.00  0.00    +0.000 A 
ATOM      9  S   UNL     1       2.658   5.381  20.054  0.00  0.00    +0.000 S 
ATOM     10  C   UNL     1       2.287   7.000  19.694  0.00  0.00    +0.000 A 
ATOM     11 CL   UNL     1       1.239   7.881  20.731  0.00  0.00    +0.000 Cl
ATOM     12  C   UNL     1       2.893   7.468  18.550  0.00  0.00    +0.000 A 
ATOM     13  C   UNL     1       3.706   6.456  17.981  0.00  0.00    +0.000 A 
ATOM     14  N   UNL     1       4.473   6.550  16.878  0.00  0.00    +0.000 N 
ATOM     15  H   UNL     1       6.361   6.704  15.394  0.00  0.00    +0.000 HD
ATOM     16  H   UNL     1       4.412   7.335  16.242  0.00  0.00    +0.000 HD
ENDROOT
TORSDOF 0
ENDMDL
MODEL 3
REMARK VINA RESULT:      -6.0      3.374      5.019
REMARK  Name = 
REMARK  1 active torsions:
REMARK  status: ('A' for Active; 'I' for Inactive)
REMARK    1  A    between atoms: C_1  and  N_2
REMARK                            x       y       z     vdW  Elec       q    Type
REMARK                         _______ _______ _______ _____ _____    ______ ____
ROOT
ATOM      1  C   UNL     1       1.882   6.737  20.341  0.00  0.00    +0.000 C 
ATOM      2  N   UNL     1       2.389   6.783  18.980  0.00  0.00    +0.000 N 
ATOM      3  C   UNL     1       3.572   6.162  18.644  0.00  0.00    +0.000 C 
ATOM      4  N   UNL     1       4.252   5.515  19.536  0.00  0.00    +0.000 NA
ATOM      5  S   UNL     1       5.624   4.723  19.199  0.00  0.00    +0.000 S 
ATOM      6  O   UNL     1       6.752   5.391  19.812  0.00  0.00    +0.000 OA
ATOM      7  O   UNL     1       5.413   3.294  19.299  0.00  0.00    +0.000 OA
ATOM      8  C   UNL     1       5.769   5.048  17.491  0.00  0.00    +0.000 A 
ATOM      9  S   UNL     1       7.063   4.419  16.596  0.00  0.00    +0.000 S 
ATOM     10  C   UNL     1       6.493   5.197  15.196  0.00  0.00    +0.000 A 
ATOM     11 CL   UNL     1       7.352   5.020  13.719  0.00  0.00    +0.000 Cl
ATOM     12  C   UNL     1       5.343   5.927  15.394  0.00  0.00    +0.000 A 
ATOM     13  C   UNL     1       4.919   5.809  16.741  0.00  0.00    +0.000 A 
ATOM     14  N   UNL     1       3.823   6.357  17.303  0.00  0.00    +0.000 N 
ATOM     15  H   UNL     1       1.651   6.657  18.294  0.00  0.00    +0.000 HD
ATOM     16  H   UNL     1       3.268   7.059  16.831  0.00  0.00    +0.000 HD
ENDROOT
TORSDOF 0
ENDMDL
MODEL 4
REMARK VINA RESULT:      -5.8      3.586      4.416
REMARK  Name = 
REMARK  1 active torsions:
REMARK  status: ('A' for Active; 'I' for Inactive)
REMARK    1  A    between atoms: C_1  and  N_2
REMARK                            x       y       z     vdW  Elec       q    Type
REMARK                         _______ _______ _______ _____ _____    ______ ____
ROOT
ATOM      1  C   UNL     1       7.156   4.575  16.838  0.00  0.00    +0.000 C 
ATOM      2  N   UNL     1       6.612   3.991  18.053  0.00  0.00    +0.000 N 
ATOM      3  C   UNL     1       5.256   3.998  18.296  0.00  0.00    +0.000 C 
ATOM      4  N   UNL     1       4.437   4.518  17.438  0.00  0.00    +0.000 NA
ATOM      5  S   UNL     1       2.830   4.518  17.638  0.00  0.00    +0.000 S 
ATOM      6  O   UNL     1       2.354   5.863  17.880  0.00  0.00    +0.000 OA
ATOM      7  O   UNL     1       2.208   3.630  16.678  0.00  0.00    +0.000 OA
ATOM      8  C   UNL     1       2.699   3.700  19.173  0.00  0.00    +0.000 A 
ATOM      9  S   UNL     1       1.184   3.403  19.872  0.00  0.00    +0.000 S 
ATOM     10  C   UNL     1       1.929   2.693  21.224  0.00  0.00    +0.000 A 
ATOM     11 CL   UNL     1       0.958   2.079  22.501  0.00  0.00    +0.000 Cl
ATOM     12  C   UNL     1       3.303   2.680  21.159  0.00  0.00    +0.000 A 
ATOM     13  C   UNL     1       3.738   3.252  19.938  0.00  0.00    +0.000 A 
ATOM     14  N   UNL     1       5.007   3.388  19.506  0.00  0.00    +0.000 N 
ATOM     15  H   UNL     1       7.066   3.115  18.291  0.00  0.00    +0.000 HD
ATOM     16  H   UNL     1       5.804   3.229  20.110  0.00  0.00    +0.000 HD
ENDROOT
TORSDOF 0
ENDMDL
MODEL 5
REMARK VINA RESULT:      -5.7      1.722      1.897
REMARK  Name = 
REMARK  1 active torsions:
REMARK  status: ('A' for Active; 'I' for Inactive)
REMARK    1  A    between atoms: C_1  and  N_2
REMARK                            x       y       z     vdW  Elec       q    Type
REMARK                         _______ _______ _______ _____ _____    ______ ____
ROOT
ATOM      1  C   UNL     1       6.848   4.267  13.566  0.00  0.00    +0.000 C 
ATOM      2  N   UNL     1       6.156   3.530  14.610  0.00  0.00    +0.000 N 
ATOM      3  C   UNL     1       5.713   4.165  15.749  0.00  0.00    +0.000 C 
ATOM      4  N   UNL     1       5.897   5.437  15.908  0.00  0.00    +0.000 NA
ATOM      5  S   UNL     1       5.361   6.254  17.199  0.00  0.00    +0.000 S 
ATOM      6  O   UNL     1       6.474   6.685  18.018  0.00  0.00    +0.000 OA
ATOM      7  O   UNL     1       4.284   7.143  16.816  0.00  0.00    +0.000 OA
ATOM      8  C   UNL     1       4.599   4.967  18.097  0.00  0.00    +0.000 A 
ATOM      9  S   UNL     1       3.832   5.278  19.576  0.00  0.00    +0.000 S 
ATOM     10  C   UNL     1       3.461   3.629  19.748  0.00  0.00    +0.000 A 
ATOM     11 CL   UNL     1       2.598   3.095  21.134  0.00  0.00    +0.000 Cl
ATOM     12  C   UNL     1       3.910   2.846  18.709  0.00  0.00    +0.000 A 
ATOM     13  C   UNL     1       4.554   3.651  17.737  0.00  0.00    +0.000 A 
ATOM     14  N   UNL     1       5.096   3.247  16.572  0.00  0.00    +0.000 N 
ATOM     15  H   UNL     1       5.493   2.863  14.230  0.00  0.00    +0.000 HD
ATOM     16  H   UNL     1       5.235   2.269  16.350  0.00  0.00    +0.000 HD
ENDROOT
TORSDOF 0
ENDMDL
MODEL 6
REMARK VINA RESULT:      -5.6      4.350      5.793
REMARK  Name = 
REMARK  1 active torsions:
REMARK  status: ('A' for Active; 'I' for Inactive)
REMARK    1  A    between atoms: C_1  and  N_2
REMARK                            x       y       z     vdW  Elec       q    Type
REMARK                         _______ _______ _______ _____ _____    ______ ____
ROOT
ATOM      1  C   UNL     1       1.206   2.580  21.903  0.00  0.00    +0.000 C 
ATOM      2  N   UNL     1       2.298   3.480  21.571  0.00  0.00    +0.000 N 
ATOM      3  C   UNL     1       2.872   3.464  20.320  0.00  0.00    +0.000 C 
ATOM      4  N   UNL     1       2.442   2.650  19.409  0.00  0.00    +0.000 NA
ATOM      5  S   UNL     1       3.040   2.611  17.904  0.00  0.00    +0.000 S 
ATOM      6  O   UNL     1       3.773   1.383  17.686  0.00  0.00    +0.000 OA
ATOM      7  O   UNL     1       2.058   3.112  16.964  0.00  0.00    +0.000 OA
ATOM      8  C   UNL     1       4.253   3.859  18.010  0.00  0.00    +0.000 A 
ATOM      9  S   UNL     1       5.202   4.264  16.665  0.00  0.00    +0.000 S 
ATOM     10  C   UNL     1       6.053   5.408  17.589  0.00  0.00    +0.000 A 
ATOM     11 CL   UNL     1       7.304   6.329  16.856  0.00  0.00    +0.000 Cl
ATOM     12  C   UNL     1       5.636   5.487  18.898  0.00  0.00    +0.000 A 
ATOM     13  C   UNL     1       4.563   4.589  19.122  0.00  0.00    +0.000 A 
ATOM     14  N   UNL     1       3.877   4.405  20.267  0.00  0.00    +0.000 N 
ATOM     15  H   UNL     1       2.148   4.413  21.941  0.00  0.00    +0.000 HD
ATOM     16  H   UNL     1       4.184   4.796  21.149  0.00  0.00    +0.000 HD
ENDROOT
TORSDOF 0
ENDMDL
MODEL 7
REMARK VINA RESULT:      -5.6      3.713      5.283
REMARK  Name = 
REMARK  1 active torsions:
REMARK  status: ('A' for Active; 'I' for Inactive)
REMARK    1  A    between atoms: C_1  and  N_2
REMARK                            x       y       z     vdW  Elec       q    Type
REMARK                         _______ _______ _______ _____ _____    ______ ____
ROOT
ATOM      1  C   UNL     1       1.807   7.259  20.403  0.00  0.00    +0.000 C 
ATOM      2  N   UNL     1       2.548   7.425  19.163  0.00  0.00    +0.000 N 
ATOM      3  C   UNL     1       3.295   6.393  18.642  0.00  0.00    +0.000 C 
ATOM      4  N   UNL     1       3.343   5.246  19.242  0.00  0.00    +0.000 NA
ATOM      5  S   UNL     1       4.163   3.977  18.659  0.00  0.00    +0.000 S 
ATOM      6  O   UNL     1       5.310   3.693  19.495  0.00  0.00    +0.000 OA
ATOM      7  O   UNL     1       3.243   2.948  18.221  0.00  0.00    +0.000 OA
ATOM      8  C   UNL     1       4.817   4.663  17.196  0.00  0.00    +0.000 A 
ATOM      9  S   UNL     1       5.774   3.731  16.153  0.00  0.00    +0.000 S 
ATOM     10  C   UNL     1       5.993   5.071  15.131  0.00  0.00    +0.000 A 
ATOM     11 CL   UNL     1       6.940   4.906  13.707  0.00  0.00    +0.000 Cl
ATOM     12  C   UNL     1       5.358   6.212  15.565  0.00  0.00    +0.000 A 
ATOM     13  C   UNL     1       4.652   5.949  16.766  0.00  0.00    +0.000 A 
ATOM     14  N   UNL     1       3.893   6.809  17.472  0.00  0.00    +0.000 N 
ATOM     15  H   UNL     1       2.016   7.938  18.468  0.00  0.00    +0.000 HD
ATOM     16  H   UNL     1       3.885   7.804  17.284  0.00  0.00    +0.000 HD
ENDROOT
TORSDOF 0
ENDMDL
MODEL 8
REMARK VINA RESULT:      -5.6      4.493      6.079
REMARK  Name = 
REMARK  1 active torsions:
REMARK  status: ('A' for Active; 'I' for Inactive)
REMARK    1  A    between atoms: C_1  and  N_2
REMARK                            x       y       z     vdW  Elec       q    Type
REMARK                         _______ _______ _______ _____ _____    ______ ____
ROOT
ATOM      1  C   UNL     1       1.048   7.987  21.229  0.00  0.00    +0.000 C 
ATOM      2  N   UNL     1       2.007   7.816  20.151  0.00  0.00    +0.000 N 
ATOM      3  C   UNL     1       2.365   6.560  19.715  0.00  0.00    +0.000 C 
ATOM      4  N   UNL     1       1.843   5.503  20.253  0.00  0.00    +0.000 NA
ATOM      5  S   UNL     1       2.183   3.999  19.757  0.00  0.00    +0.000 S 
ATOM      6  O   UNL     1       2.949   3.299  20.765  0.00  0.00    +0.000 OA
ATOM      7  O   UNL     1       1.028   3.415  19.108  0.00  0.00    +0.000 OA
ATOM      8  C   UNL     1       3.312   4.335  18.470  0.00  0.00    +0.000 A 
ATOM      9  S   UNL     1       3.995   3.075  17.565  0.00  0.00    +0.000 S 
ATOM     10  C   UNL     1       4.911   4.193  16.671  0.00  0.00    +0.000 A 
ATOM     11 CL   UNL     1       5.958   3.631  15.430  0.00  0.00    +0.000 Cl
ATOM     12  C   UNL     1       4.713   5.501  17.047  0.00  0.00    +0.000 A 
ATOM     13  C   UNL     1       3.754   5.569  18.088  0.00  0.00    +0.000 A 
ATOM     14  N   UNL     1       3.282   6.676  18.693  0.00  0.00    +0.000 N 
ATOM     15  H   UNL     1       1.860   8.483  19.401  0.00  0.00    +0.000 HD
ATOM     16  H   UNL     1       3.705   7.587  18.561  0.00  0.00    +0.000 HD
ENDROOT
TORSDOF 0
ENDMDL
MODEL 9
REMARK VINA RESULT:      -5.6      3.169      4.751
REMARK  Name = 
REMARK  1 active torsions:
REMARK  status: ('A' for Active; 'I' for Inactive)
REMARK    1  A    between atoms: C_1  and  N_2
REMARK                            x       y       z     vdW  Elec       q    Type
REMARK                         _______ _______ _______ _____ _____    ______ ____
ROOT
ATOM      1  C   UNL     1       2.297   2.023  19.876  0.00  0.00    +0.000 C 
ATOM      2  N   UNL     1       2.965   2.082  18.587  0.00  0.00    +0.000 N 
ATOM      3  C   UNL     1       3.831   3.110  18.286  0.00  0.00    +0.000 C 
ATOM      4  N   UNL     1       4.076   4.040  19.153  0.00  0.00    +0.000 NA
ATOM      5  S   UNL     1       5.118   5.249  18.881  0.00  0.00    +0.000 S 
ATOM      6  O   UNL     1       4.409   6.504  18.752  0.00  0.00    +0.000 OA
ATOM      7  O   UNL     1       6.288   5.097  19.721  0.00  0.00    +0.000 OA
ATOM      8  C   UNL     1       5.654   4.854  17.269  0.00  0.00    +0.000 A 
ATOM      9  S   UNL     1       6.804   5.814  16.478  0.00  0.00    +0.000 S 
ATOM     10  C   UNL     1       6.699   4.829  15.097  0.00  0.00    +0.000 A 
ATOM     11 CL   UNL     1       7.666   5.189  13.724  0.00  0.00    +0.000 Cl
ATOM     12  C   UNL     1       5.807   3.789  15.222  0.00  0.00    +0.000 A 
ATOM     13  C   UNL     1       5.220   3.804  16.512  0.00  0.00    +0.000 A 
ATOM     14  N   UNL     1       4.324   2.931  17.011  0.00  0.00    +0.000 N 
ATOM     15  H   UNL     1       3.291   1.170  18.285  0.00  0.00    +0.000 HD
ATOM     16  H   UNL     1       3.853   2.248  16.431  0.00  0.00    +0.000 HD
ENDROOT
TORSDOF 0
ENDMDL
