MODEL 1
REMARK VINA RESULT:      -6.2      0.000      0.000
REMARK  Name = 
REMARK  10 active torsions:
REMARK  status: ('A' for Active; 'I' for Inactive)
REMARK    1  A    between atoms: N_1  and  CA_2
REMARK    2  A    between atoms: CA_2  and  C_3
REMARK    3  A    between atoms: CA_2  and  C_15
REMARK    4  A    between atoms: C_3  and  C_4
REMARK    5  A    between atoms: C_6  and  O_7
REMARK    6  A    between atoms: O_7  and  C_8
REMARK    7  A    between atoms: C_8  and  P_9
REMARK    8  A    between atoms: P_9  and  O_11
REMARK    9  A    between atoms: P_9  and  O_12
REMARK   10  A    between atoms: C_15  and  OXT_17
REMARK                            x       y       z     vdW  Elec       q    Type
REMARK                         _______ _______ _______ _____ _____    ______ ____
ROOT
ATOM      1  C   UNL     1       3.391   4.613  19.797  0.00  0.00    +0.000 A 
ATOM      2  C   UNL     1       4.427   5.257  19.164  0.00  0.00    +0.000 A 
ATOM      3  C   UNL     1       5.423   4.277  19.071  0.00  0.00    +0.000 A 
ATOM      4  N   UNL     1       5.057   3.119  19.626  0.00  0.00    +0.000 NA
ATOM      5  O   UNL     1       3.772   3.336  20.096  0.00  0.00    +0.000 OA
ENDROOT
BRANCH   1   6
ATOM      6  C   UNL     1       2.009   4.996  20.186  0.00  0.00    +0.000 C 
BRANCH   6   7
ATOM      7  CA  UNL     1       0.969   3.893  19.935  0.00  0.00    +0.000 C 
BRANCH   7   8
ATOM      8  N   UNL     1       0.924   2.827  20.985  0.00  0.00    +0.000 NA
ATOM      9  H1  UNL     1       1.871   2.450  21.092  0.00  0.00    +0.000 HD
ATOM     10  H2  UNL     1       0.388   2.030  20.617  0.00  0.00    +0.000 HD
ENDBRANCH   7   8
BRANCH   7  11
ATOM     11  C   UNL     1       1.160   3.221  18.565  0.00  0.00    +0.000 C 
ATOM     12  O   UNL     1       1.086   3.781  17.484  0.00  0.00    +0.000 OA
BRANCH  11  13
ATOM     13  OXT UNL     1       1.405   1.893  18.704  0.00  0.00    +0.000 OA
ATOM     14  HXT UNL     1       2.342   1.809  19.012  0.00  0.00    +0.000 HD
ENDBRANCH  11  13
ENDBRANCH   7  11
ENDBRANCH   6   7
ENDBRANCH   1   6
BRANCH   3  15
ATOM     15  O   UNL     1       6.633   4.435  18.504  0.00  0.00    +0.000 OA
BRANCH  15  16
ATOM     16  C   UNL     1       6.763   5.561  17.628  0.00  0.00    +0.000 C 
BRANCH  16  17
ATOM     17  P   UNL     1       6.604   5.044  15.925  0.00  0.00    +0.000 P 
ATOM     18  O   UNL     1       7.732   5.337  14.992  0.00  0.00    +0.000 OA
BRANCH  17  19
ATOM     19  O   UNL     1       6.167   3.499  15.941  0.00  0.00    +0.000 OA
ATOM     20  H   UNL     1       5.393   3.332  16.525  0.00  0.00    +0.000 HD
ENDBRANCH  17  19
BRANCH  17  21
ATOM     21  O   UNL     1       5.218   5.702  15.444  0.00  0.00    +0.000 OA
ATOM     22  H   UNL     1       5.065   6.547  15.913  0.00  0.00    +0.000 HD
ENDBRANCH  17  21
ENDBRANCH  16  17
ENDBRANCH  15  16
ENDBRANCH   3  15
TORSDOF 10
ENDMDL
MODEL 2
REMARK VINA RESULT:      -6.2      0.182      1.115
REMARK  Name = 
REMARK  10 active torsions:
REMARK  status: ('A' for Active; 'I' for Inactive)
REMARK    1  A    between atoms: N_1  and  CA_2
REMARK    2  A    between atoms: CA_2  and  C_3
REMARK    3  A    between atoms: CA_2  and  C_15
REMARK    4  A    between atoms: C_3  and  C_4
REMARK    5  A    between atoms: C_6  and  O_7
REMARK    6  A    between atoms: O_7  and  C_8
REMARK    7  A    between atoms: C_8  and  P_9
REMARK    8  A    between atoms: P_9  and  O_11
REMARK    9  A    between atoms: P_9  and  O_12
REMARK   10  A    between atoms: C_15  and  OXT_17
REMARK                            x       y       z     vdW  Elec       q    Type
REMARK                         _______ _______ _______ _____ _____    ______ ____
ROOT
ATOM      1  C   UNL     1       3.414   4.639  19.761  0.00  0.00    +0.000 A 
ATOM      2  C   UNL     1       4.441   5.295  19.127  0.00  0.00    +0.000 A 
ATOM      3  C   UNL     1       5.437   4.318  19.006  0.00  0.00    +0.000 A 
ATOM      4  N   UNL     1       5.078   3.150  19.547  0.00  0.00    +0.000 NA
ATOM      5  O   UNL     1       3.799   3.358  20.034  0.00  0.00    +0.000 OA
ENDROOT
BRANCH   1   6
ATOM      6  C   UNL     1       2.036   5.015  20.171  0.00  0.00    +0.000 C 
BRANCH   6   7
ATOM      7  CA  UNL     1       0.999   3.905  19.941  0.00  0.00    +0.000 C 
BRANCH   7   8
ATOM      8  N   UNL     1       0.984   2.836  20.990  0.00  0.00    +0.000 NA
ATOM      9  H1  UNL     1       1.891   2.850  21.466  0.00  0.00    +0.000 HD
ATOM     10  H2  UNL     1       0.972   1.921  20.522  0.00  0.00    +0.000 HD
ENDBRANCH   7   8
BRANCH   7  11
ATOM     11  C   UNL     1       1.166   3.236  18.566  0.00  0.00    +0.000 C 
ATOM     12  O   UNL     1       1.074   3.798  17.488  0.00  0.00    +0.000 OA
BRANCH  11  13
ATOM     13  OXT UNL     1       1.413   1.907  18.698  0.00  0.00    +0.000 OA
ATOM     14  HXT UNL     1       0.839   1.584  19.436  0.00  0.00    +0.000 HD
ENDBRANCH  11  13
ENDBRANCH   7  11
ENDBRANCH   6   7
ENDBRANCH   1   6
BRANCH   3  15
ATOM     15  O   UNL     1       6.641   4.486  18.428  0.00  0.00    +0.000 OA
BRANCH  15  16
ATOM     16  C   UNL     1       6.746   5.599  17.533  0.00  0.00    +0.000 C 
BRANCH  16  17
ATOM     17  P   UNL     1       6.413   5.078  15.856  0.00  0.00    +0.000 P 
ATOM     18  O   UNL     1       5.993   3.663  15.629  0.00  0.00    +0.000 OA
BRANCH  17  19
ATOM     19  O   UNL     1       5.410   6.157  15.218  0.00  0.00    +0.000 OA
ATOM     20  H   UNL     1       5.884   6.909  14.795  0.00  0.00    +0.000 HD
ENDBRANCH  17  19
BRANCH  17  21
ATOM     21  O   UNL     1       7.753   5.461  15.054  0.00  0.00    +0.000 OA
ATOM     22  H   UNL     1       7.528   5.942  14.232  0.00  0.00    +0.000 HD
ENDBRANCH  17  21
ENDBRANCH  16  17
ENDBRANCH  15  16
ENDBRANCH   3  15
TORSDOF 10
ENDMDL
MODEL 3
REMARK VINA RESULT:      -6.2      1.843      2.164
REMARK  Name = 
REMARK  10 active torsions:
REMARK  status: ('A' for Active; 'I' for Inactive)
REMARK    1  A    between atoms: N_1  and  CA_2
REMARK    2  A    between atoms: CA_2  and  C_3
REMARK    3  A    between atoms: CA_2  and  C_15
REMARK    4  A    between atoms: C_3  and  C_4
REMARK    5  A    between atoms: C_6  and  O_7
REMARK    6  A    between atoms: O_7  and  C_8
REMARK    7  A    between atoms: C_8  and  P_9
REMARK    8  A    between atoms: P_9  and  O_11
REMARK    9  A    between atoms: P_9  and  O_12
REMARK   10  A    between atoms: C_15  and  OXT_17
REMARK                            x       y       z     vdW  Elec       q    Type
REMARK                         _______ _______ _______ _____ _____    ______ ____
ROOT
ATOM      1  C   UNL     1       3.865   2.952  18.891  0.00  0.00    +0.000 A 
ATOM      2  C   UNL     1       3.863   3.996  17.998  0.00  0.00    +0.000 A 
ATOM      3  C   UNL     1       5.064   4.666  18.264  0.00  0.00    +0.000 A 
ATOM      4  N   UNL     1       5.752   4.108  19.264  0.00  0.00    +0.000 NA
ATOM      5  O   UNL     1       4.985   3.028  19.668  0.00  0.00    +0.000 OA
ENDROOT
BRANCH   1   6
ATOM      6  C   UNL     1       2.954   1.809  19.158  0.00  0.00    +0.000 C 
BRANCH   6   7
ATOM      7  CA  UNL     1       1.540   2.233  19.583  0.00  0.00    +0.000 C 
BRANCH   7   8
ATOM      8  N   UNL     1       0.706   2.817  18.485  0.00  0.00    +0.000 NA
ATOM      9  H1  UNL     1       0.991   3.793  18.359  0.00  0.00    +0.000 HD
ATOM     10  H2  UNL     1      -0.264   2.891  18.817  0.00  0.00    +0.000 HD
ENDBRANCH   7   8
BRANCH   7  11
ATOM     11  C   UNL     1       1.564   3.226  20.758  0.00  0.00    +0.000 C 
ATOM     12  O   UNL     1       1.202   4.389  20.711  0.00  0.00    +0.000 OA
BRANCH  11  13
ATOM     13  OXT UNL     1       2.068   2.644  21.877  0.00  0.00    +0.000 OA
ATOM     14  HXT UNL     1       3.034   2.508  21.714  0.00  0.00    +0.000 HD
ENDBRANCH  11  13
ENDBRANCH   7  11
ENDBRANCH   6   7
ENDBRANCH   1   6
BRANCH   3  15
ATOM     15  O   UNL     1       5.516   5.759  17.621  0.00  0.00    +0.000 OA
BRANCH  15  16
ATOM     16  C   UNL     1       5.486   5.691  16.192  0.00  0.00    +0.000 C 
BRANCH  16  17
ATOM     17  P   UNL     1       6.895   4.773  15.585  0.00  0.00    +0.000 P 
ATOM     18  O   UNL     1       7.618   5.302  14.391  0.00  0.00    +0.000 OA
BRANCH  17  19
ATOM     19  O   UNL     1       7.851   4.490  16.843  0.00  0.00    +0.000 OA
ATOM     20  H   UNL     1       8.393   3.677  16.729  0.00  0.00    +0.000 HD
ENDBRANCH  17  19
BRANCH  17  21
ATOM     21  O   UNL     1       6.324   3.288  15.352  0.00  0.00    +0.000 OA
ATOM     22  H   UNL     1       6.391   3.046  14.406  0.00  0.00    +0.000 HD
ENDBRANCH  17  21
ENDBRANCH  16  17
ENDBRANCH  15  16
ENDBRANCH   3  15
TORSDOF 10
ENDMDL
MODEL 4
REMARK VINA RESULT:      -6.2      1.598      1.997
REMARK  Name = 
REMARK  10 active torsions:
REMARK  status: ('A' for Active; 'I' for Inactive)
REMARK    1  A    between atoms: N_1  and  CA_2
REMARK    2  A    between atoms: CA_2  and  C_3
REMARK    3  A    between atoms: CA_2  and  C_15
REMARK    4  A    between atoms: C_3  and  C_4
REMARK    5  A    between atoms: C_6  and  O_7
REMARK    6  A    between atoms: O_7  and  C_8
REMARK    7  A    between atoms: C_8  and  P_9
REMARK    8  A    between atoms: P_9  and  O_11
REMARK    9  A    between atoms: P_9  and  O_12
REMARK   10  A    between atoms: C_15  and  OXT_17
REMARK                            x       y       z     vdW  Elec       q    Type
REMARK                         _______ _______ _______ _____ _____    ______ ____
ROOT
ATOM      1  C   UNL     1       2.443   4.996  19.353  0.00  0.00    +0.000 A 
ATOM      2  C   UNL     1       2.585   5.256  18.011  0.00  0.00    +0.000 A 
ATOM      3  C   UNL     1       3.956   5.499  17.861  0.00  0.00    +0.000 A 
ATOM      4  N   UNL     1       4.619   5.428  19.018  0.00  0.00    +0.000 NA
ATOM      5  O   UNL     1       3.657   5.119  19.965  0.00  0.00    +0.000 OA
ENDROOT
BRANCH   1   6
ATOM      6  C   UNL     1       1.302   4.611  20.224  0.00  0.00    +0.000 C 
BRANCH   6   7
ATOM      7  CA  UNL     1       1.234   3.105  20.523  0.00  0.00    +0.000 C 
BRANCH   7   8
ATOM      8  N   UNL     1       2.365   2.583  21.354  0.00  0.00    +0.000 NA
ATOM      9  H1  UNL     1       2.628   3.313  22.022  0.00  0.00    +0.000 HD
ATOM     10  H2  UNL     1       3.195   2.494  20.754  0.00  0.00    +0.000 HD
ENDBRANCH   7   8
BRANCH   7  11
ATOM     11  C   UNL     1       1.144   2.265  19.238  0.00  0.00    +0.000 C 
ATOM     12  O   UNL     1       0.193   2.235  18.475  0.00  0.00    +0.000 OA
BRANCH  11  13
ATOM     13  OXT UNL     1       2.270   1.526  19.060  0.00  0.00    +0.000 OA
ATOM     14  HXT UNL     1       2.685   1.423  19.952  0.00  0.00    +0.000 HD
ENDBRANCH  11  13
ENDBRANCH   7  11
ENDBRANCH   6   7
ENDBRANCH   1   6
BRANCH   3  15
ATOM     15  O   UNL     1       4.584   5.785  16.705  0.00  0.00    +0.000 OA
BRANCH  15  16
ATOM     16  C   UNL     1       5.330   4.710  16.124  0.00  0.00    +0.000 C 
BRANCH  16  17
ATOM     17  P   UNL     1       7.042   5.182  15.923  0.00  0.00    +0.000 P 
ATOM     18  O   UNL     1       7.600   5.229  14.539  0.00  0.00    +0.000 OA
BRANCH  17  19
ATOM     19  O   UNL     1       7.257   6.542  16.749  0.00  0.00    +0.000 OA
ATOM     20  H   UNL     1       8.204   6.715  16.949  0.00  0.00    +0.000 HD
ENDBRANCH  17  19
BRANCH  17  21
ATOM     21  O   UNL     1       7.843   4.167  16.878  0.00  0.00    +0.000 OA
ATOM     22  H   UNL     1       7.487   3.261  16.780  0.00  0.00    +0.000 HD
ENDBRANCH  17  21
ENDBRANCH  16  17
ENDBRANCH  15  16
ENDBRANCH   3  15
TORSDOF 10
ENDMDL
MODEL 5
REMARK VINA RESULT:      -6.1      3.346      6.369
REMARK  Name = 
REMARK  10 active torsions:
REMARK  status: ('A' for Active; 'I' for Inactive)
REMARK    1  A    between atoms: N_1  and  CA_2
REMARK    2  A    between atoms: CA_2  and  C_3
REMARK    3  A    between atoms: CA_2  and  C_15
REMARK    4  A    between atoms: C_3  and  C_4
REMARK    5  A    between atoms: C_6  and  O_7
REMARK    6  A    between atoms: O_7  and  C_8
REMARK    7  A    between atoms: C_8  and  P_9
REMARK    8  A    between atoms: P_9  and  O_11
REMARK    9  A    between atoms: P_9  and  O_12
REMARK   10  A    between atoms: C_15  and  OXT_17
REMARK                            x       y       z     vdW  Elec       q    Type
REMARK                         _______ _______ _______ _____ _____    ______ ____
ROOT
ATOM      1  C   UNL     1       5.122   4.190  16.695  0.00  0.00    +0.000 A 
ATOM      2  C   UNL     1       4.219   3.507  17.473  0.00  0.00    +0.000 A 
ATOM      3  C   UNL     1       4.753   3.602  18.765  0.00  0.00    +0.000 A 
ATOM      4  N   UNL     1       5.913   4.264  18.793  0.00  0.00    +0.000 NA
ATOM      5  O   UNL     1       6.150   4.627  17.478  0.00  0.00    +0.000 OA
ENDROOT
BRANCH   1   6
ATOM      6  C   UNL     1       5.193   4.546  15.254  0.00  0.00    +0.000 C 
BRANCH   6   7
ATOM      7  CA  UNL     1       6.558   4.251  14.612  0.00  0.00    +0.000 C 
BRANCH   7   8
ATOM      8  N   UNL     1       7.592   5.312  14.829  0.00  0.00    +0.000 NA
ATOM      9  H1  UNL     1       7.790   5.358  15.833  0.00  0.00    +0.000 HD
ATOM     10  H2  UNL     1       7.168   6.226  14.626  0.00  0.00    +0.000 HD
ENDBRANCH   7   8
BRANCH   7  11
ATOM     11  C   UNL     1       6.440   3.985  13.102  0.00  0.00    +0.000 C 
ATOM     12  O   UNL     1       5.579   3.308  12.565  0.00  0.00    +0.000 OA
BRANCH  11  13
ATOM     13  OXT UNL     1       7.446   4.592  12.421  0.00  0.00    +0.000 OA
ATOM     14  HXT UNL     1       7.026   5.077  11.668  0.00  0.00    +0.000 HD
ENDBRANCH  11  13
ENDBRANCH   7  11
ENDBRANCH   6   7
ENDBRANCH   1   6
BRANCH   3  15
ATOM     15  O   UNL     1       4.204   3.093  19.884  0.00  0.00    +0.000 OA
BRANCH  15  16
ATOM     16  C   UNL     1       2.856   2.628  19.755  0.00  0.00    +0.000 C 
BRANCH  16  17
ATOM     17  P   UNL     1       1.835   3.323  21.047  0.00  0.00    +0.000 P 
ATOM     18  O   UNL     1       1.620   2.516  22.284  0.00  0.00    +0.000 OA
BRANCH  17  19
ATOM     19  O   UNL     1       2.381   4.806  21.333  0.00  0.00    +0.000 OA
ATOM     20  H   UNL     1       1.769   5.330  21.898  0.00  0.00    +0.000 HD
ENDBRANCH  17  19
BRANCH  17  21
ATOM     21  O   UNL     1       0.458   3.691  20.302  0.00  0.00    +0.000 OA
ATOM     22  H   UNL     1       0.632   3.924  19.368  0.00  0.00    +0.000 HD
ENDBRANCH  17  21
ENDBRANCH  16  17
ENDBRANCH  15  16
ENDBRANCH   3  15
TORSDOF 10
ENDMDL
MODEL 6
REMARK VINA RESULT:      -6.1      3.141      6.318
REMARK  Name = 
REMARK  10 active torsions:
REMARK  status: ('A' for Active; 'I' for Inactive)
REMARK    1  A    between atoms: N_1  and  CA_2
REMARK    2  A    between atoms: CA_2  and  C_3
REMARK    3  A    between atoms: CA_2  and  C_15
REMARK    4  A    between atoms: C_3  and  C_4
REMARK    5  A    between atoms: C_6  and  O_7
REMARK    6  A    between atoms: O_7  and  C_8
REMARK    7  A    between atoms: C_8  and  P_9
REMARK    8  A    between atoms: P_9  and  O_11
REMARK    9  A    between atoms: P_9  and  O_12
REMARK   10  A    between atoms: C_15  and  OXT_17
REMARK                            x       y       z     vdW  Elec       q    Type
REMARK                         _______ _______ _______ _____ _____    ______ ____
ROOT
ATOM      1  C   UNL     1       4.409   5.013  16.827  0.00  0.00    +0.000 A 
ATOM      2  C   UNL     1       3.959   3.752  17.132  0.00  0.00    +0.000 A 
ATOM      3  C   UNL     1       2.811   3.983  17.901  0.00  0.00    +0.000 A 
ATOM      4  N   UNL     1       2.575   5.284  18.091  0.00  0.00    +0.000 NA
ATOM      5  O   UNL     1       3.595   5.936  17.418  0.00  0.00    +0.000 OA
ENDROOT
BRANCH   1   6
ATOM      6  C   UNL     1       5.532   5.550  16.014  0.00  0.00    +0.000 C 
BRANCH   6   7
ATOM      7  CA  UNL     1       6.576   4.491  15.629  0.00  0.00    +0.000 C 
BRANCH   7   8
ATOM      8  N   UNL     1       7.836   4.534  16.438  0.00  0.00    +0.000 NA
ATOM      9  H1  UNL     1       8.560   4.028  15.920  0.00  0.00    +0.000 HD
ATOM     10  H2  UNL     1       7.701   3.962  17.282  0.00  0.00    +0.000 HD
ENDBRANCH   7   8
BRANCH   7  11
ATOM     11  C   UNL     1       6.950   4.564  14.140  0.00  0.00    +0.000 C 
ATOM     12  O   UNL     1       7.605   5.449  13.615  0.00  0.00    +0.000 OA
BRANCH  11  13
ATOM     13  OXT UNL     1       6.434   3.510  13.456  0.00  0.00    +0.000 OA
ATOM     14  HXT UNL     1       6.634   3.668  12.499  0.00  0.00    +0.000 HD
ENDBRANCH  11  13
ENDBRANCH   7  11
ENDBRANCH   6   7
ENDBRANCH   1   6
BRANCH   3  15
ATOM     15  O   UNL     1       2.008   3.038  18.422  0.00  0.00    +0.000 OA
BRANCH  15  16
ATOM     16  C   UNL     1       2.461   2.447  19.645  0.00  0.00    +0.000 C 
BRANCH  16  17
ATOM     17  P   UNL     1       1.722   3.276  21.046  0.00  0.00    +0.000 P 
ATOM     18  O   UNL     1       1.506   2.489  22.296  0.00  0.00    +0.000 OA
BRANCH  17  19
ATOM     19  O   UNL     1       2.543   4.636  21.276  0.00  0.00    +0.000 OA
ATOM     20  H   UNL     1       3.099   4.876  20.500  0.00  0.00    +0.000 HD
ENDBRANCH  17  19
BRANCH  17  21
ATOM     21  O   UNL     1       0.356   3.892  20.460  0.00  0.00    +0.000 OA
ATOM     22  H   UNL     1      -0.343   3.871  21.144  0.00  0.00    +0.000 HD
ENDBRANCH  17  21
ENDBRANCH  16  17
ENDBRANCH  15  16
ENDBRANCH   3  15
TORSDOF 10
ENDMDL
MODEL 7
REMARK VINA RESULT:      -6.1      1.979      2.400
REMARK  Name = 
REMARK  10 active torsions:
REMARK  status: ('A' for Active; 'I' for Inactive)
REMARK    1  A    between atoms: N_1  and  CA_2
REMARK    2  A    between atoms: CA_2  and  C_3
REMARK    3  A    between atoms: CA_2  and  C_15
REMARK    4  A    between atoms: C_3  and  C_4
REMARK    5  A    between atoms: C_6  and  O_7
REMARK    6  A    between atoms: O_7  and  C_8
REMARK    7  A    between atoms: C_8  and  P_9
REMARK    8  A    between atoms: P_9  and  O_11
REMARK    9  A    between atoms: P_9  and  O_12
REMARK   10  A    between atoms: C_15  and  OXT_17
REMARK                            x       y       z     vdW  Elec       q    Type
REMARK                         _______ _______ _______ _____ _____    ______ ____
ROOT
ATOM      1  C   UNL     1       4.053   3.169  18.827  0.00  0.00    +0.000 A 
ATOM      2  C   UNL     1       4.069   4.243  17.970  0.00  0.00    +0.000 A 
ATOM      3  C   UNL     1       5.302   4.856  18.226  0.00  0.00    +0.000 A 
ATOM      4  N   UNL     1       5.993   4.237  19.187  0.00  0.00    +0.000 NA
ATOM      5  O   UNL     1       5.195   3.173  19.574  0.00  0.00    +0.000 OA
ENDROOT
BRANCH   1   6
ATOM      6  C   UNL     1       3.104   2.053  19.079  0.00  0.00    +0.000 C 
BRANCH   6   7
ATOM      7  CA  UNL     1       1.841   2.478  19.844  0.00  0.00    +0.000 C 
BRANCH   7   8
ATOM      8  N   UNL     1       0.843   3.238  19.027  0.00  0.00    +0.000 NA
ATOM      9  H1  UNL     1      -0.075   2.807  19.170  0.00  0.00    +0.000 HD
ATOM     10  H2  UNL     1       1.037   3.065  18.032  0.00  0.00    +0.000 HD
ENDBRANCH   7   8
BRANCH   7  11
ATOM     11  C   UNL     1       2.176   3.303  21.097  0.00  0.00    +0.000 C 
ATOM     12  O   UNL     1       2.017   4.506  21.218  0.00  0.00    +0.000 OA
BRANCH  11  13
ATOM     13  OXT UNL     1       2.703   2.517  22.072  0.00  0.00    +0.000 OA
ATOM     14  HXT UNL     1       3.227   1.813  21.615  0.00  0.00    +0.000 HD
ENDBRANCH  11  13
ENDBRANCH   7  11
ENDBRANCH   6   7
ENDBRANCH   1   6
BRANCH   3  15
ATOM     15  O   UNL     1       5.780   5.952  17.609  0.00  0.00    +0.000 OA
BRANCH  15  16
ATOM     16  C   UNL     1       5.659   5.961  16.182  0.00  0.00    +0.000 C 
BRANCH  16  17
ATOM     17  P   UNL     1       6.777   4.769  15.458  0.00  0.00    +0.000 P 
ATOM     18  O   UNL     1       6.201   3.506  14.910  0.00  0.00    +0.000 OA
BRANCH  17  19
ATOM     19  O   UNL     1       7.699   5.563  14.411  0.00  0.00    +0.000 OA
ATOM     20  H   UNL     1       7.177   6.156  13.824  0.00  0.00    +0.000 HD
ENDBRANCH  17  19
BRANCH  17  21
ATOM     21  O   UNL     1       7.865   4.502  16.612  0.00  0.00    +0.000 OA
ATOM     22  H   UNL     1       8.670   5.033  16.446  0.00  0.00    +0.000 HD
ENDBRANCH  17  21
ENDBRANCH  16  17
ENDBRANCH  15  16
ENDBRANCH   3  15
TORSDOF 10
ENDMDL
MODEL 8
REMARK VINA RESULT:      -6.1      2.928      6.185
REMARK  Name = 
REMARK  10 active torsions:
REMARK  status: ('A' for Active; 'I' for Inactive)
REMARK    1  A    between atoms: N_1  and  CA_2
REMARK    2  A    between atoms: CA_2  and  C_3
REMARK    3  A    between atoms: CA_2  and  C_15
REMARK    4  A    between atoms: C_3  and  C_4
REMARK    5  A    between atoms: C_6  and  O_7
REMARK    6  A    between atoms: O_7  and  C_8
REMARK    7  A    between atoms: C_8  and  P_9
REMARK    8  A    between atoms: P_9  and  O_11
REMARK    9  A    between atoms: P_9  and  O_12
REMARK   10  A    between atoms: C_15  and  OXT_17
REMARK                            x       y       z     vdW  Elec       q    Type
REMARK                         _______ _______ _______ _____ _____    ______ ____
ROOT
ATOM      1  C   UNL     1       4.929   4.809  17.484  0.00  0.00    +0.000 A 
ATOM      2  C   UNL     1       3.899   3.905  17.387  0.00  0.00    +0.000 A 
ATOM      3  C   UNL     1       3.958   3.200  18.597  0.00  0.00    +0.000 A 
ATOM      4  N   UNL     1       4.963   3.607  19.378  0.00  0.00    +0.000 NA
ATOM      5  O   UNL     1       5.583   4.620  18.667  0.00  0.00    +0.000 OA
ENDROOT
BRANCH   1   6
ATOM      6  C   UNL     1       5.437   5.905  16.618  0.00  0.00    +0.000 C 
BRANCH   6   7
ATOM      7  CA  UNL     1       6.970   5.967  16.537  0.00  0.00    +0.000 C 
BRANCH   7   8
ATOM      8  N   UNL     1       7.662   4.663  16.788  0.00  0.00    +0.000 NA
ATOM      9  H1  UNL     1       6.943   3.940  16.895  0.00  0.00    +0.000 HD
ATOM     10  H2  UNL     1       8.103   4.702  17.716  0.00  0.00    +0.000 HD
ENDBRANCH   7   8
BRANCH   7  11
ATOM     11  C   UNL     1       7.556   7.021  17.490  0.00  0.00    +0.000 C 
ATOM     12  O   UNL     1       7.687   8.208  17.241  0.00  0.00    +0.000 OA
BRANCH  11  13
ATOM     13  OXT UNL     1       7.940   6.457  18.665  0.00  0.00    +0.000 OA
ATOM     14  HXT UNL     1       7.120   6.351  19.208  0.00  0.00    +0.000 HD
ENDBRANCH  11  13
ENDBRANCH   7  11
ENDBRANCH   6   7
ENDBRANCH   1   6
BRANCH   3  15
ATOM     15  O   UNL     1       3.128   2.211  18.973  0.00  0.00    +0.000 OA
BRANCH  15  16
ATOM     16  C   UNL     1       1.902   2.631  19.582  0.00  0.00    +0.000 C 
BRANCH  16  17
ATOM     17  P   UNL     1       2.139   2.896  21.334  0.00  0.00    +0.000 P 
ATOM     18  O   UNL     1       1.029   2.519  22.258  0.00  0.00    +0.000 OA
BRANCH  17  19
ATOM     19  O   UNL     1       3.551   2.239  21.723  0.00  0.00    +0.000 OA
ATOM     20  H   UNL     1       3.898   1.647  21.018  0.00  0.00    +0.000 HD
ENDBRANCH  17  19
BRANCH  17  21
ATOM     21  O   UNL     1       2.534   4.450  21.445  0.00  0.00    +0.000 OA
ATOM     22  H   UNL     1       1.783   5.010  21.161  0.00  0.00    +0.000 HD
ENDBRANCH  17  21
ENDBRANCH  16  17
ENDBRANCH  15  16
ENDBRANCH   3  15
TORSDOF 10
ENDMDL
MODEL 9
REMARK VINA RESULT:      -6.1      3.057      6.308
REMARK  Name = 
REMARK  10 active torsions:
REMARK  status: ('A' for Active; 'I' for Inactive)
REMARK    1  A    between atoms: N_1  and  CA_2
REMARK    2  A    between atoms: CA_2  and  C_3
REMARK    3  A    between atoms: CA_2  and  C_15
REMARK    4  A    between atoms: C_3  and  C_4
REMARK    5  A    between atoms: C_6  and  O_7
REMARK    6  A    between atoms: O_7  and  C_8
REMARK    7  A    between atoms: C_8  and  P_9
REMARK    8  A    between atoms: P_9  and  O_11
REMARK    9  A    between atoms: P_9  and  O_12
REMARK   10  A    between atoms: C_15  and  OXT_17
REMARK                            x       y       z     vdW  Elec       q    Type
REMARK                         _______ _______ _______ _____ _____    ______ ____
ROOT
ATOM      1  C   UNL     1       5.203   4.093  17.071  0.00  0.00    +0.000 A 
ATOM      2  C   UNL     1       4.325   3.219  17.665  0.00  0.00    +0.000 A 
ATOM      3  C   UNL     1       4.669   3.271  19.022  0.00  0.00    +0.000 A 
ATOM      4  N   UNL     1       5.700   4.087  19.259  0.00  0.00    +0.000 NA
ATOM      5  O   UNL     1       6.044   4.600  18.020  0.00  0.00    +0.000 OA
ENDROOT
BRANCH   1   6
ATOM      6  C   UNL     1       5.401   4.587  15.684  0.00  0.00    +0.000 C 
BRANCH   6   7
ATOM      7  CA  UNL     1       6.875   4.818  15.315  0.00  0.00    +0.000 C 
BRANCH   7   8
ATOM      8  N   UNL     1       7.467   6.076  15.870  0.00  0.00    +0.000 NA
ATOM      9  H1  UNL     1       6.818   6.843  15.673  0.00  0.00    +0.000 HD
ATOM     10  H2  UNL     1       8.299   6.316  15.316  0.00  0.00    +0.000 HD
ENDBRANCH   7   8
BRANCH   7  11
ATOM     11  C   UNL     1       7.098   4.803  13.794  0.00  0.00    +0.000 C 
ATOM     12  O   UNL     1       7.856   5.536  13.181  0.00  0.00    +0.000 OA
BRANCH  11  13
ATOM     13  OXT UNL     1       6.315   3.869  13.195  0.00  0.00    +0.000 OA
ATOM     14  HXT UNL     1       6.276   4.105  12.235  0.00  0.00    +0.000 HD
ENDBRANCH  11  13
ENDBRANCH   7  11
ENDBRANCH   6   7
ENDBRANCH   1   6
BRANCH   3  15
ATOM     15  O   UNL     1       4.069   2.587  20.014  0.00  0.00    +0.000 OA
BRANCH  15  16
ATOM     16  C   UNL     1       2.670   2.340  19.835  0.00  0.00    +0.000 C 
BRANCH  16  17
ATOM     17  P   UNL     1       1.711   3.397  20.912  0.00  0.00    +0.000 P 
ATOM     18  O   UNL     1       2.270   4.736  21.264  0.00  0.00    +0.000 OA
BRANCH  17  19
ATOM     19  O   UNL     1       0.224   3.458  20.310  0.00  0.00    +0.000 OA
ATOM     20  H   UNL     1      -0.422   3.850  20.940  0.00  0.00    +0.000 HD
ENDBRANCH  17  19
BRANCH  17  21
ATOM     21  O   UNL     1       1.431   2.485  22.207  0.00  0.00    +0.000 OA
ATOM     22  H   UNL     1       1.629   2.988  23.022  0.00  0.00    +0.000 HD
ENDBRANCH  17  21
ENDBRANCH  16  17
ENDBRANCH  15  16
ENDBRANCH   3  15
TORSDOF 10
ENDMDL
