MODEL 1
REMARK VINA RESULT:      -6.7      0.000      0.000
REMARK  Name = 
REMARK  4 active torsions:
REMARK  status: ('A' for Active; 'I' for Inactive)
REMARK    1  A    between atoms: C_1  and  C_2
REMARK    2  A    between atoms: C_2  and  N_3
REMARK    3  A    between atoms: C_2  and  C_4
REMARK    4  A    between atoms: C_4  and  C_5
REMARK                            x       y       z     vdW  Elec       q    Type
REMARK                         _______ _______ _______ _____ _____    ______ ____
ROOT
ATOM      1  C   UNL     1       4.081   4.461  17.396  0.00  0.00    +0.000 A 
ATOM      2  C   UNL     1       5.052   4.551  16.396  0.00  0.00    +0.000 A 
ATOM      3  C   UNL     1       5.425   5.781  15.846  0.00  0.00    +0.000 A 
ATOM      4  C   UNL     1       4.872   6.979  16.245  0.00  0.00    +0.000 A 
ATOM      5  C   UNL     1       3.899   6.900  17.230  0.00  0.00    +0.000 A 
ATOM      6  C   UNL     1       3.527   5.678  17.793  0.00  0.00    +0.000 A 
ATOM      7  O   UNL     1       2.585   5.803  18.784  0.00  0.00    +0.000 OA
ATOM      8  C   UNL     1       2.295   7.218  18.862  0.00  0.00    +0.000 C 
ATOM      9  C   UNL     1       3.137   8.002  17.857  0.00  0.00    +0.000 C 
ATOM     10  O   UNL     1       6.414   5.688  14.901  0.00  0.00    +0.000 OA
ATOM     11  C   UNL     1       6.478   4.276  14.612  0.00  0.00    +0.000 C 
ATOM     12  C   UNL     1       5.907   3.497  15.797  0.00  0.00    +0.000 C 
ENDROOT
BRANCH   1  13
ATOM     13  C   UNL     1       3.716   3.154  18.050  0.00  0.00    +0.000 C 
BRANCH  13  15
ATOM     14  C   UNL     1       2.892   2.764  20.442  0.00  0.00    +0.000 C 
ATOM     15  C   UNL     1       4.101   3.011  19.541  0.00  0.00    +0.000 C 
BRANCH  15  16
ATOM     16  N   UNL     1       5.030   1.880  19.713  0.00  0.00    +0.000 NA
ATOM     17  H   UNL     1       5.179   1.701  20.705  0.00  0.00    +0.000 HD
ATOM     18  H   UNL     1       4.590   1.038  19.342  0.00  0.00    +0.000 HD
ENDBRANCH  15  16
ENDBRANCH  13  15
ENDBRANCH   1  13
TORSDOF 3
ENDMDL
MODEL 2
REMARK VINA RESULT:      -6.6      2.781      4.802
REMARK  Name = 
REMARK  4 active torsions:
REMARK  status: ('A' for Active; 'I' for Inactive)
REMARK    1  A    between atoms: C_1  and  C_2
REMARK    2  A    between atoms: C_2  and  N_3
REMARK    3  A    between atoms: C_2  and  C_4
REMARK    4  A    between atoms: C_4  and  C_5
REMARK                            x       y       z     vdW  Elec       q    Type
REMARK                         _______ _______ _______ _____ _____    ______ ____
ROOT
ATOM      1  C   UNL     1       5.204   4.611  16.662  0.00  0.00    +0.000 A 
ATOM      2  C   UNL     1       4.198   3.859  17.273  0.00  0.00    +0.000 A 
ATOM      3  C   UNL     1       4.141   3.704  18.661  0.00  0.00    +0.000 A 
ATOM      4  C   UNL     1       5.057   4.276  19.517  0.00  0.00    +0.000 A 
ATOM      5  C   UNL     1       6.067   5.017  18.920  0.00  0.00    +0.000 A 
ATOM      6  C   UNL     1       6.127   5.186  17.535  0.00  0.00    +0.000 A 
ATOM      7  O   UNL     1       7.166   5.988  17.133  0.00  0.00    +0.000 OA
ATOM      8  C   UNL     1       7.860   6.355  18.348  0.00  0.00    +0.000 C 
ATOM      9  C   UNL     1       7.178   5.744  19.570  0.00  0.00    +0.000 C 
ATOM     10  O   UNL     1       3.071   2.963  19.093  0.00  0.00    +0.000 OA
ATOM     11  C   UNL     1       2.570   2.354  17.884  0.00  0.00    +0.000 C 
ATOM     12  C   UNL     1       3.015   3.187  16.682  0.00  0.00    +0.000 C 
ENDROOT
BRANCH   1  13
ATOM     13  C   UNL     1       5.243   4.848  15.174  0.00  0.00    +0.000 C 
BRANCH  13  15
ATOM     14  C   UNL     1       6.058   3.676  13.051  0.00  0.00    +0.000 C 
ATOM     15  C   UNL     1       6.444   4.234  14.419  0.00  0.00    +0.000 C 
BRANCH  15  16
ATOM     16  N   UNL     1       7.483   5.259  14.212  0.00  0.00    +0.000 NA
ATOM     17  H   UNL     1       7.548   5.491  13.222  0.00  0.00    +0.000 HD
ATOM     18  H   UNL     1       7.192   6.117  14.680  0.00  0.00    +0.000 HD
ENDBRANCH  15  16
ENDBRANCH  13  15
ENDBRANCH   1  13
TORSDOF 3
ENDMDL
MODEL 3
REMARK VINA RESULT:      -6.6      2.841      4.537
REMARK  Name = 
REMARK  4 active torsions:
REMARK  status: ('A' for Active; 'I' for Inactive)
REMARK    1  A    between atoms: C_1  and  C_2
REMARK    2  A    between atoms: C_2  and  N_3
REMARK    3  A    between atoms: C_2  and  C_4
REMARK    4  A    between atoms: C_4  and  C_5
REMARK                            x       y       z     vdW  Elec       q    Type
REMARK                         _______ _______ _______ _____ _____    ______ ____
ROOT
ATOM      1  C   UNL     1       5.298   4.911  16.805  0.00  0.00    +0.000 A 
ATOM      2  C   UNL     1       6.245   5.312  17.750  0.00  0.00    +0.000 A 
ATOM      3  C   UNL     1       6.127   4.960  19.098  0.00  0.00    +0.000 A 
ATOM      4  C   UNL     1       5.086   4.202  19.587  0.00  0.00    +0.000 A 
ATOM      5  C   UNL     1       4.133   3.808  18.658  0.00  0.00    +0.000 A 
ATOM      6  C   UNL     1       4.247   4.145  17.308  0.00  0.00    +0.000 A 
ATOM      7  O   UNL     1       3.238   3.627  16.534  0.00  0.00    +0.000 OA
ATOM      8  C   UNL     1       2.377   2.914  17.453  0.00  0.00    +0.000 C 
ATOM      9  C   UNL     1       2.918   2.995  18.879  0.00  0.00    +0.000 C 
ATOM     10  O   UNL     1       7.161   5.409  19.880  0.00  0.00    +0.000 OA
ATOM     11  C   UNL     1       7.839   6.361  19.034  0.00  0.00    +0.000 C 
ATOM     12  C   UNL     1       7.522   6.047  17.572  0.00  0.00    +0.000 C 
ENDROOT
BRANCH   1  13
ATOM     13  C   UNL     1       5.444   5.219  15.337  0.00  0.00    +0.000 C 
BRANCH  13  15
ATOM     14  C   UNL     1       6.005   3.733  13.331  0.00  0.00    +0.000 C 
ATOM     15  C   UNL     1       6.537   4.427  14.583  0.00  0.00    +0.000 C 
BRANCH  15  16
ATOM     16  N   UNL     1       7.619   5.337  14.167  0.00  0.00    +0.000 NA
ATOM     17  H   UNL     1       8.087   5.717  14.989  0.00  0.00    +0.000 HD
ATOM     18  H   UNL     1       8.327   4.796  13.671  0.00  0.00    +0.000 HD
ENDBRANCH  15  16
ENDBRANCH  13  15
ENDBRANCH   1  13
TORSDOF 3
ENDMDL
MODEL 4
REMARK VINA RESULT:      -6.6      2.771      4.157
REMARK  Name = 
REMARK  4 active torsions:
REMARK  status: ('A' for Active; 'I' for Inactive)
REMARK    1  A    between atoms: C_1  and  C_2
REMARK    2  A    between atoms: C_2  and  N_3
REMARK    3  A    between atoms: C_2  and  C_4
REMARK    4  A    between atoms: C_4  and  C_5
REMARK                            x       y       z     vdW  Elec       q    Type
REMARK                         _______ _______ _______ _____ _____    ______ ____
ROOT
ATOM      1  C   UNL     1       5.236   4.124  17.052  0.00  0.00    +0.000 A 
ATOM      2  C   UNL     1       6.193   4.627  17.937  0.00  0.00    +0.000 A 
ATOM      3  C   UNL     1       5.834   5.145  19.184  0.00  0.00    +0.000 A 
ATOM      4  C   UNL     1       4.531   5.196  19.629  0.00  0.00    +0.000 A 
ATOM      5  C   UNL     1       3.571   4.709  18.753  0.00  0.00    +0.000 A 
ATOM      6  C   UNL     1       3.920   4.180  17.509  0.00  0.00    +0.000 A 
ATOM      7  O   UNL     1       2.843   3.705  16.802  0.00  0.00    +0.000 OA
ATOM      8  C   UNL     1       1.691   3.966  17.637  0.00  0.00    +0.000 C 
ATOM      9  C   UNL     1       2.108   4.630  18.948  0.00  0.00    +0.000 C 
ATOM     10  O   UNL     1       6.901   5.564  19.938  0.00  0.00    +0.000 OA
ATOM     11  C   UNL     1       7.994   5.587  18.996  0.00  0.00    +0.000 C 
ATOM     12  C   UNL     1       7.673   4.650  17.833  0.00  0.00    +0.000 C 
ENDROOT
BRANCH   1  13
ATOM     13  C   UNL     1       5.609   3.497  15.733  0.00  0.00    +0.000 C 
BRANCH  13  15
ATOM     14  C   UNL     1       6.228   3.898  13.283  0.00  0.00    +0.000 C 
ATOM     15  C   UNL     1       6.310   4.424  14.714  0.00  0.00    +0.000 C 
BRANCH  15  16
ATOM     16  N   UNL     1       5.687   5.760  14.739  0.00  0.00    +0.000 NA
ATOM     17  H   UNL     1       5.358   5.971  15.680  0.00  0.00    +0.000 HD
ATOM     18  H   UNL     1       6.401   6.457  14.531  0.00  0.00    +0.000 HD
ENDBRANCH  15  16
ENDBRANCH  13  15
ENDBRANCH   1  13
TORSDOF 3
ENDMDL
MODEL 5
REMARK VINA RESULT:      -6.6      1.873      4.531
REMARK  Name = 
REMARK  4 active torsions:
REMARK  status: ('A' for Active; 'I' for Inactive)
REMARK    1  A    between atoms: C_1  and  C_2
REMARK    2  A    between atoms: C_2  and  N_3
REMARK    3  A    between atoms: C_2  and  C_4
REMARK    4  A    between atoms: C_4  and  C_5
REMARK                            x       y       z     vdW  Elec       q    Type
REMARK                         _______ _______ _______ _____ _____    ______ ____
ROOT
ATOM      1  C   UNL     1       4.031   4.845  17.349  0.00  0.00    +0.000 A 
ATOM      2  C   UNL     1       3.479   6.043  17.808  0.00  0.00    +0.000 A 
ATOM      3  C   UNL     1       2.510   6.065  18.814  0.00  0.00    +0.000 A 
ATOM      4  C   UNL     1       2.035   4.924  19.423  0.00  0.00    +0.000 A 
ATOM      5  C   UNL     1       2.569   3.726  18.968  0.00  0.00    +0.000 A 
ATOM      6  C   UNL     1       3.544   3.694  17.970  0.00  0.00    +0.000 A 
ATOM      7  O   UNL     1       3.985   2.426  17.685  0.00  0.00    +0.000 OA
ATOM      8  C   UNL     1       3.220   1.551  18.546  0.00  0.00    +0.000 C 
ATOM      9  C   UNL     1       2.263   2.354  19.425  0.00  0.00    +0.000 C 
ATOM     10  O   UNL     1       2.103   7.327  19.165  0.00  0.00    +0.000 OA
ATOM     11  C   UNL     1       2.631   8.159  18.110  0.00  0.00    +0.000 C 
ATOM     12  C   UNL     1       3.810   7.445  17.452  0.00  0.00    +0.000 C 
ENDROOT
BRANCH   1  13
ATOM     13  C   UNL     1       5.126   4.804  16.316  0.00  0.00    +0.000 C 
BRANCH  13  15
ATOM     14  C   UNL     1       7.171   6.183  16.999  0.00  0.00    +0.000 C 
ATOM     15  C   UNL     1       6.573   4.785  16.860  0.00  0.00    +0.000 C 
BRANCH  15  16
ATOM     16  N   UNL     1       6.600   4.149  18.190  0.00  0.00    +0.000 NA
ATOM     17  H   UNL     1       5.914   3.396  18.228  0.00  0.00    +0.000 HD
ATOM     18  H   UNL     1       7.508   3.705  18.321  0.00  0.00    +0.000 HD
ENDBRANCH  15  16
ENDBRANCH  13  15
ENDBRANCH   1  13
TORSDOF 3
ENDMDL
MODEL 6
REMARK VINA RESULT:      -6.6      2.301      4.584
REMARK  Name = 
REMARK  4 active torsions:
REMARK  status: ('A' for Active; 'I' for Inactive)
REMARK    1  A    between atoms: C_1  and  C_2
REMARK    2  A    between atoms: C_2  and  N_3
REMARK    3  A    between atoms: C_2  and  C_4
REMARK    4  A    between atoms: C_4  and  C_5
REMARK                            x       y       z     vdW  Elec       q    Type
REMARK                         _______ _______ _______ _____ _____    ______ ____
ROOT
ATOM      1  C   UNL     1       3.443   5.235  18.379  0.00  0.00    +0.000 A 
ATOM      2  C   UNL     1       2.967   6.546  18.467  0.00  0.00    +0.000 A 
ATOM      3  C   UNL     1       2.193   6.972  19.549  0.00  0.00    +0.000 A 
ATOM      4  C   UNL     1       1.850   6.146  20.597  0.00  0.00    +0.000 A 
ATOM      5  C   UNL     1       2.308   4.839  20.516  0.00  0.00    +0.000 A 
ATOM      6  C   UNL     1       3.091   4.406  19.443  0.00  0.00    +0.000 A 
ATOM      7  O   UNL     1       3.490   3.097  19.560  0.00  0.00    +0.000 OA
ATOM      8  C   UNL     1       2.902   2.625  20.794  0.00  0.00    +0.000 C 
ATOM      9  C   UNL     1       2.106   3.734  21.478  0.00  0.00    +0.000 C 
ATOM     10  O   UNL     1       1.839   8.296  19.490  0.00  0.00    +0.000 OA
ATOM     11  C   UNL     1       2.159   8.673  18.134  0.00  0.00    +0.000 C 
ATOM     12  C   UNL     1       3.212   7.712  17.583  0.00  0.00    +0.000 C 
ENDROOT
BRANCH   1  13
ATOM     13  C   UNL     1       4.337   4.775  17.257  0.00  0.00    +0.000 C 
BRANCH  13  15
ATOM     14  C   UNL     1       6.425   6.166  17.766  0.00  0.00    +0.000 C 
ATOM     15  C   UNL     1       5.854   4.765  17.558  0.00  0.00    +0.000 C 
BRANCH  15  16
ATOM     16  N   UNL     1       6.117   3.985  18.781  0.00  0.00    +0.000 NA
ATOM     17  H   UNL     1       5.624   3.095  18.737  0.00  0.00    +0.000 HD
ATOM     18  H   UNL     1       7.109   3.752  18.811  0.00  0.00    +0.000 HD
ENDBRANCH  15  16
ENDBRANCH  13  15
ENDBRANCH   1  13
TORSDOF 3
ENDMDL
MODEL 7
REMARK VINA RESULT:      -6.6      1.769      4.147
REMARK  Name = 
REMARK  4 active torsions:
REMARK  status: ('A' for Active; 'I' for Inactive)
REMARK    1  A    between atoms: C_1  and  C_2
REMARK    2  A    between atoms: C_2  and  N_3
REMARK    3  A    between atoms: C_2  and  C_4
REMARK    4  A    between atoms: C_4  and  C_5
REMARK                            x       y       z     vdW  Elec       q    Type
REMARK                         _______ _______ _______ _____ _____    ______ ____
ROOT
ATOM      1  C   UNL     1       3.383   4.586  19.152  0.00  0.00    +0.000 A 
ATOM      2  C   UNL     1       2.695   5.733  19.554  0.00  0.00    +0.000 A 
ATOM      3  C   UNL     1       2.781   6.928  18.835  0.00  0.00    +0.000 A 
ATOM      4  C   UNL     1       3.536   7.062  17.691  0.00  0.00    +0.000 A 
ATOM      5  C   UNL     1       4.233   5.932  17.287  0.00  0.00    +0.000 A 
ATOM      6  C   UNL     1       4.146   4.731  17.993  0.00  0.00    +0.000 A 
ATOM      7  O   UNL     1       4.865   3.712  17.417  0.00  0.00    +0.000 OA
ATOM      8  C   UNL     1       5.495   4.298  16.254  0.00  0.00    +0.000 C 
ATOM      9  C   UNL     1       5.114   5.769  16.111  0.00  0.00    +0.000 C 
ATOM     10  O   UNL     1       2.016   7.943  19.353  0.00  0.00    +0.000 OA
ATOM     11  C   UNL     1       1.642   7.454  20.658  0.00  0.00    +0.000 C 
ATOM     12  C   UNL     1       1.733   5.929  20.667  0.00  0.00    +0.000 C 
ENDROOT
BRANCH   1  13
ATOM     13  C   UNL     1       3.248   3.270  19.872  0.00  0.00    +0.000 C 
BRANCH  13  15
ATOM     14  C   UNL     1       1.075   2.885  18.578  0.00  0.00    +0.000 C 
ATOM     15  C   UNL     1       2.296   2.237  19.227  0.00  0.00    +0.000 C 
BRANCH  15  16
ATOM     16  N   UNL     1       3.011   1.479  18.185  0.00  0.00    +0.000 NA
ATOM     17  H   UNL     1       3.268   0.559  18.540  0.00  0.00    +0.000 HD
ATOM     18  H   UNL     1       2.371   1.308  17.410  0.00  0.00    +0.000 HD
ENDBRANCH  15  16
ENDBRANCH  13  15
ENDBRANCH   1  13
TORSDOF 3
ENDMDL
MODEL 8
REMARK VINA RESULT:      -6.5      0.997      1.187
REMARK  Name = 
REMARK  4 active torsions:
REMARK  status: ('A' for Active; 'I' for Inactive)
REMARK    1  A    between atoms: C_1  and  C_2
REMARK    2  A    between atoms: C_2  and  N_3
REMARK    3  A    between atoms: C_2  and  C_4
REMARK    4  A    between atoms: C_4  and  C_5
REMARK                            x       y       z     vdW  Elec       q    Type
REMARK                         _______ _______ _______ _____ _____    ______ ____
ROOT
ATOM      1  C   UNL     1       4.400   4.518  18.099  0.00  0.00    +0.000 A 
ATOM      2  C   UNL     1       5.111   4.740  16.917  0.00  0.00    +0.000 A 
ATOM      3  C   UNL     1       5.036   5.957  16.235  0.00  0.00    +0.000 A 
ATOM      4  C   UNL     1       4.269   7.015  16.672  0.00  0.00    +0.000 A 
ATOM      5  C   UNL     1       3.551   6.803  17.840  0.00  0.00    +0.000 A 
ATOM      6  C   UNL     1       3.627   5.594  18.534  0.00  0.00    +0.000 A 
ATOM      7  O   UNL     1       2.886   5.587  19.690  0.00  0.00    +0.000 OA
ATOM      8  C   UNL     1       2.251   6.885  19.747  0.00  0.00    +0.000 C 
ATOM      9  C   UNL     1       2.654   7.741  18.548  0.00  0.00    +0.000 C 
ATOM     10  O   UNL     1       5.822   6.013  15.112  0.00  0.00    +0.000 OA
ATOM     11  C   UNL     1       6.203   4.638  14.895  0.00  0.00    +0.000 C 
ATOM     12  C   UNL     1       6.089   3.873  16.213  0.00  0.00    +0.000 C 
ENDROOT
BRANCH   1  13
ATOM     13  C   UNL     1       4.523   3.240  18.886  0.00  0.00    +0.000 C 
BRANCH  13  15
ATOM     14  C   UNL     1       2.455   2.579  17.532  0.00  0.00    +0.000 C 
ATOM     15  C   UNL     1       3.403   2.197  18.667  0.00  0.00    +0.000 C 
BRANCH  15  16
ATOM     16  N   UNL     1       3.995   0.887  18.337  0.00  0.00    +0.000 NA
ATOM     17  H   UNL     1       4.464   0.503  19.156  0.00  0.00    +0.000 HD
ATOM     18  H   UNL     1       3.242   0.236  18.118  0.00  0.00    +0.000 HD
ENDBRANCH  15  16
ENDBRANCH  13  15
ENDBRANCH   1  13
TORSDOF 3
ENDMDL
MODEL 9
REMARK VINA RESULT:      -6.5      1.247      1.326
REMARK  Name = 
REMARK  4 active torsions:
REMARK  status: ('A' for Active; 'I' for Inactive)
REMARK    1  A    between atoms: C_1  and  C_2
REMARK    2  A    between atoms: C_2  and  N_3
REMARK    3  A    between atoms: C_2  and  C_4
REMARK    4  A    between atoms: C_4  and  C_5
REMARK                            x       y       z     vdW  Elec       q    Type
REMARK                         _______ _______ _______ _____ _____    ______ ____
ROOT
ATOM      1  C   UNL     1       4.262   4.425  17.449  0.00  0.00    +0.000 A 
ATOM      2  C   UNL     1       5.143   4.557  16.372  0.00  0.00    +0.000 A 
ATOM      3  C   UNL     1       5.397   5.799  15.784  0.00  0.00    +0.000 A 
ATOM      4  C   UNL     1       4.811   6.968  16.217  0.00  0.00    +0.000 A 
ATOM      5  C   UNL     1       3.926   6.847  17.279  0.00  0.00    +0.000 A 
ATOM      6  C   UNL     1       3.672   5.613  17.880  0.00  0.00    +0.000 A 
ATOM      7  O   UNL     1       2.808   5.697  18.944  0.00  0.00    +0.000 OA
ATOM      8  C   UNL     1       2.445   7.094  19.033  0.00  0.00    +0.000 C 
ATOM      9  C   UNL     1       3.155   7.912  17.956  0.00  0.00    +0.000 C 
ATOM     10  O   UNL     1       6.311   5.751  14.762  0.00  0.00    +0.000 OA
ATOM     11  C   UNL     1       6.432   4.340  14.481  0.00  0.00    +0.000 C 
ATOM     12  C   UNL     1       6.006   3.546  15.714  0.00  0.00    +0.000 C 
ENDROOT
BRANCH   1  13
ATOM     13  C   UNL     1       4.028   3.108  18.142  0.00  0.00    +0.000 C 
BRANCH  13  15
ATOM     14  C   UNL     1       1.946   2.015  19.152  0.00  0.00    +0.000 C 
ATOM     15  C   UNL     1       2.666   2.430  17.870  0.00  0.00    +0.000 C 
BRANCH  15  16
ATOM     16  N   UNL     1       1.783   3.354  17.137  0.00  0.00    +0.000 NA
ATOM     17  H   UNL     1       0.888   2.904  16.949  0.00  0.00    +0.000 HD
ATOM     18  H   UNL     1       1.572   4.150  17.739  0.00  0.00    +0.000 HD
ENDBRANCH  15  16
ENDBRANCH  13  15
ENDBRANCH   1  13
TORSDOF 3
ENDMDL
