MODEL 1
REMARK VINA RESULT:      -7.9      0.000      0.000
REMARK  Name = 
REMARK  7 active torsions:
REMARK  status: ('A' for Active; 'I' for Inactive)
REMARK    1  A    between atoms: C_1  and  O_2
REMARK    2  A    between atoms: O_2  and  C_3
REMARK    3  A    between atoms: C_5  and  C_6
REMARK    4  A    between atoms: N_8  and  N_9
REMARK    5  A    between atoms: C_10  and  C_11
REMARK    6  A    between atoms: C_10  and  C_12
REMARK    7  A    between atoms: C_24  and  O_25
REMARK                            x       y       z     vdW  Elec       q    Type
REMARK                         _______ _______ _______ _____ _____    ______ ____
ROOT
ATOM      1  C   UNL     1      -0.004   9.024  21.288  0.00  0.00    +0.000 C 
ATOM      2  O   UNL     1      -0.610   8.030  21.686  0.00  0.00    +0.000 OA
ATOM      3  N   UNL     1       1.199   9.014  20.592  0.00  0.00    +0.000 N 
ATOM      4  H   UNL     1       1.688   9.882  20.434  0.00  0.00    +0.000 HD
ENDROOT
BRANCH   1   7
ATOM      5  C   UNL     1      -1.309  12.551  20.694  0.00  0.00    +0.000 A 
ATOM      6  C   UNL     1      -0.779  11.264  20.490  0.00  0.00    +0.000 A 
ATOM      7  C   UNL     1      -0.571  10.383  21.559  0.00  0.00    +0.000 A 
ATOM      8  C   UNL     1      -0.866  10.809  22.860  0.00  0.00    +0.000 A 
ATOM      9  C   UNL     1      -1.390  12.085  23.076  0.00  0.00    +0.000 A 
ATOM     10  C   UNL     1      -1.614  12.952  22.002  0.00  0.00    +0.000 A 
BRANCH   5  12
ATOM     11  C   UNL     1      -0.341  13.385  18.666  0.00  0.00    +0.000 C 
ATOM     12  O   UNL     1      -1.458  13.264  19.535  0.00  0.00    +0.000 OA
ENDBRANCH   5  12
BRANCH  10  13
ATOM     13  O   UNL     1      -2.128  14.191  22.269  0.00  0.00    +0.000 OA
ATOM     14  H   UNL     1      -1.839  14.817  21.586  0.00  0.00    +0.000 HD
ENDBRANCH  10  13
ENDBRANCH   1   7
BRANCH   3  15
ATOM     15  N   UNL     1       1.813   7.837  20.278  0.00  0.00    +0.000 NA
ATOM     16  C   UNL     1       2.169   7.582  19.051  0.00  0.00    +0.000 C 
ATOM     17  C   UNL     1       1.940   8.525  17.880  0.00  0.00    +0.000 C 
BRANCH  16  18
ATOM     18  C   UNL     1       2.882   6.283  18.731  0.00  0.00    +0.000 A 
ATOM     19  C   UNL     1       3.974   6.352  17.844  0.00  0.00    +0.000 A 
ATOM     20  C   UNL     1       4.705   5.216  17.511  0.00  0.00    +0.000 A 
ATOM     21  C   UNL     1       4.371   3.992  18.078  0.00  0.00    +0.000 A 
ATOM     22  C   UNL     1       3.295   3.883  18.969  0.00  0.00    +0.000 A 
ATOM     23  C   UNL     1       3.003   2.627  19.529  0.00  0.00    +0.000 A 
ATOM     24  C   UNL     1       1.938   2.463  20.408  0.00  0.00    +0.000 A 
ATOM     25  C   UNL     1       1.137   3.552  20.719  0.00  0.00    +0.000 A 
ATOM     26  C   UNL     1       1.413   4.806  20.169  0.00  0.00    +0.000 A 
ATOM     27  C   UNL     1       2.513   5.025  19.301  0.00  0.00    +0.000 A 
ENDBRANCH  16  18
ENDBRANCH   3  15
TORSDOF 5
ENDMDL
MODEL 2
REMARK VINA RESULT:      -7.9      3.495      8.472
REMARK  Name = 
REMARK  7 active torsions:
REMARK  status: ('A' for Active; 'I' for Inactive)
REMARK    1  A    between atoms: C_1  and  O_2
REMARK    2  A    between atoms: O_2  and  C_3
REMARK    3  A    between atoms: C_5  and  C_6
REMARK    4  A    between atoms: N_8  and  N_9
REMARK    5  A    between atoms: C_10  and  C_11
REMARK    6  A    between atoms: C_10  and  C_12
REMARK    7  A    between atoms: C_24  and  O_25
REMARK                            x       y       z     vdW  Elec       q    Type
REMARK                         _______ _______ _______ _____ _____    ______ ____
ROOT
ATOM      1  C   UNL     1       2.514   6.668  19.463  0.00  0.00    +0.000 C 
ATOM      2  O   UNL     1       1.749   6.081  20.227  0.00  0.00    +0.000 OA
ATOM      3  N   UNL     1       2.317   7.940  18.940  0.00  0.00    +0.000 N 
ATOM      4  H   UNL     1       2.928   8.278  18.213  0.00  0.00    +0.000 HD
ENDROOT
BRANCH   1   7
ATOM      5  C   UNL     1       5.837   6.055  17.708  0.00  0.00    +0.000 A 
ATOM      6  C   UNL     1       4.640   6.651  18.147  0.00  0.00    +0.000 A 
ATOM      7  C   UNL     1       3.775   5.989  19.026  0.00  0.00    +0.000 A 
ATOM      8  C   UNL     1       4.094   4.692  19.448  0.00  0.00    +0.000 A 
ATOM      9  C   UNL     1       5.277   4.088  19.017  0.00  0.00    +0.000 A 
ATOM     10  C   UNL     1       6.147   4.763  18.156  0.00  0.00    +0.000 A 
BRANCH   5  12
ATOM     11  C   UNL     1       7.597   7.657  17.420  0.00  0.00    +0.000 C 
ATOM     12  O   UNL     1       6.563   6.855  16.867  0.00  0.00    +0.000 OA
ENDBRANCH   5  12
BRANCH  10  13
ATOM     13  O   UNL     1       7.291   4.126  17.763  0.00  0.00    +0.000 OA
ATOM     14  H   UNL     1       7.064   3.302  17.304  0.00  0.00    +0.000 HD
ENDBRANCH  10  13
ENDBRANCH   1   7
BRANCH   3  15
ATOM     15  N   UNL     1       1.209   8.665  19.269  0.00  0.00    +0.000 NA
ATOM     16  C   UNL     1       1.045   9.871  18.805  0.00  0.00    +0.000 C 
ATOM     17  C   UNL     1       2.034  10.580  17.892  0.00  0.00    +0.000 C 
BRANCH  16  18
ATOM     18  C   UNL     1      -0.211  10.645  19.154  0.00  0.00    +0.000 A 
ATOM     19  C   UNL     1      -0.179  11.425  20.327  0.00  0.00    +0.000 A 
ATOM     20  C   UNL     1      -1.275  12.189  20.714  0.00  0.00    +0.000 A 
ATOM     21  C   UNL     1      -2.417  12.205  19.924  0.00  0.00    +0.000 A 
ATOM     22  C   UNL     1      -2.486  11.448  18.747  0.00  0.00    +0.000 A 
ATOM     23  C   UNL     1      -3.657  11.507  17.971  0.00  0.00    +0.000 A 
ATOM     24  C   UNL     1      -3.781  10.764  16.802  0.00  0.00    +0.000 A 
ATOM     25  C   UNL     1      -2.743   9.934  16.408  0.00  0.00    +0.000 A 
ATOM     26  C   UNL     1      -1.574   9.863  17.170  0.00  0.00    +0.000 A 
ATOM     27  C   UNL     1      -1.390  10.635  18.345  0.00  0.00    +0.000 A 
ENDBRANCH  16  18
ENDBRANCH   3  15
TORSDOF 5
ENDMDL
MODEL 3
REMARK VINA RESULT:      -7.9      6.810      8.501
REMARK  Name = 
REMARK  7 active torsions:
REMARK  status: ('A' for Active; 'I' for Inactive)
REMARK    1  A    between atoms: C_1  and  O_2
REMARK    2  A    between atoms: O_2  and  C_3
REMARK    3  A    between atoms: C_5  and  C_6
REMARK    4  A    between atoms: N_8  and  N_9
REMARK    5  A    between atoms: C_10  and  C_11
REMARK    6  A    between atoms: C_10  and  C_12
REMARK    7  A    between atoms: C_24  and  O_25
REMARK                            x       y       z     vdW  Elec       q    Type
REMARK                         _______ _______ _______ _____ _____    ______ ____
ROOT
ATOM      1  C   UNL     1       8.247   9.794  17.887  0.00  0.00    +0.000 C 
ATOM      2  O   UNL     1       7.351  10.356  17.259  0.00  0.00    +0.000 OA
ATOM      3  N   UNL     1       8.379   8.421  18.056  0.00  0.00    +0.000 N 
ATOM      4  H   UNL     1       9.064   8.065  18.704  0.00  0.00    +0.000 HD
ENDROOT
BRANCH   1   7
ATOM      5  C   UNL     1      11.248  12.094  18.336  0.00  0.00    +0.000 A 
ATOM      6  C   UNL     1      10.236  11.304  17.759  0.00  0.00    +0.000 A 
ATOM      7  C   UNL     1       9.304  10.622  18.551  0.00  0.00    +0.000 A 
ATOM      8  C   UNL     1       9.406  10.702  19.945  0.00  0.00    +0.000 A 
ATOM      9  C   UNL     1      10.407  11.480  20.530  0.00  0.00    +0.000 A 
ATOM     10  C   UNL     1      11.322  12.176  19.733  0.00  0.00    +0.000 A 
BRANCH   5  12
ATOM     11  C   UNL     1      11.504  13.725  16.598  0.00  0.00    +0.000 C 
ATOM     12  O   UNL     1      12.056  12.698  17.410  0.00  0.00    +0.000 OA
ENDBRANCH   5  12
BRANCH  10  13
ATOM     13  O   UNL     1      12.284  12.922  20.356  0.00  0.00    +0.000 OA
ATOM     14  H   UNL     1      13.044  12.359  20.571  0.00  0.00    +0.000 HD
ENDBRANCH  10  13
ENDBRANCH   1   7
BRANCH   3  15
ATOM     15  N   UNL     1       7.482   7.560  17.493  0.00  0.00    +0.000 NA
ATOM     16  C   UNL     1       7.283   6.381  18.009  0.00  0.00    +0.000 C 
ATOM     17  C   UNL     1       8.005   5.851  19.238  0.00  0.00    +0.000 C 
BRANCH  16  18
ATOM     18  C   UNL     1       6.256   5.455  17.388  0.00  0.00    +0.000 A 
ATOM     19  C   UNL     1       6.690   4.635  16.328  0.00  0.00    +0.000 A 
ATOM     20  C   UNL     1       5.825   3.735  15.714  0.00  0.00    +0.000 A 
ATOM     21  C   UNL     1       4.515   3.621  16.164  0.00  0.00    +0.000 A 
ATOM     22  C   UNL     1       4.048   4.414  17.220  0.00  0.00    +0.000 A 
ATOM     23  C   UNL     1       2.720   4.254  17.651  0.00  0.00    +0.000 A 
ATOM     24  C   UNL     1       2.203   5.027  18.686  0.00  0.00    +0.000 A 
ATOM     25  C   UNL     1       3.004   5.986  19.286  0.00  0.00    +0.000 A 
ATOM     26  C   UNL     1       4.326   6.158  18.867  0.00  0.00    +0.000 A 
ATOM     27  C   UNL     1       4.904   5.364  17.844  0.00  0.00    +0.000 A 
ENDBRANCH  16  18
ENDBRANCH   3  15
TORSDOF 5
ENDMDL
MODEL 4
REMARK VINA RESULT:      -7.9      3.089      8.420
REMARK  Name = 
REMARK  7 active torsions:
REMARK  status: ('A' for Active; 'I' for Inactive)
REMARK    1  A    between atoms: C_1  and  O_2
REMARK    2  A    between atoms: O_2  and  C_3
REMARK    3  A    between atoms: C_5  and  C_6
REMARK    4  A    between atoms: N_8  and  N_9
REMARK    5  A    between atoms: C_10  and  C_11
REMARK    6  A    between atoms: C_10  and  C_12
REMARK    7  A    between atoms: C_24  and  O_25
REMARK                            x       y       z     vdW  Elec       q    Type
REMARK                         _______ _______ _______ _____ _____    ______ ____
ROOT
ATOM      1  C   UNL     1       1.697   5.784  20.468  0.00  0.00    +0.000 C 
ATOM      2  O   UNL     1       0.497   5.568  20.630  0.00  0.00    +0.000 OA
ATOM      3  N   UNL     1       2.289   7.039  20.379  0.00  0.00    +0.000 N 
ATOM      4  H   UNL     1       3.256   7.112  20.104  0.00  0.00    +0.000 HD
ENDROOT
BRANCH   1   7
ATOM      5  C   UNL     1       4.750   3.732  19.485  0.00  0.00    +0.000 A 
ATOM      6  C   UNL     1       3.833   4.790  19.631  0.00  0.00    +0.000 A 
ATOM      7  C   UNL     1       2.638   4.626  20.342  0.00  0.00    +0.000 A 
ATOM      8  C   UNL     1       2.336   3.373  20.888  0.00  0.00    +0.000 A 
ATOM      9  C   UNL     1       3.236   2.314  20.748  0.00  0.00    +0.000 A 
ATOM     10  C   UNL     1       4.438   2.490  20.055  0.00  0.00    +0.000 A 
BRANCH   5  12
ATOM     11  C   UNL     1       6.488   5.326  19.056  0.00  0.00    +0.000 C 
ATOM     12  O   UNL     1       5.868   4.079  18.775  0.00  0.00    +0.000 OA
ENDBRANCH   5  12
BRANCH  10  13
ATOM     13  O   UNL     1       5.283   1.420  19.946  0.00  0.00    +0.000 OA
ATOM     14  H   UNL     1       6.000   1.634  19.328  0.00  0.00    +0.000 HD
ENDBRANCH  10  13
ENDBRANCH   1   7
BRANCH   3  15
ATOM     15  N   UNL     1       1.539   8.173  20.486  0.00  0.00    +0.000 NA
ATOM     16  C   UNL     1       1.403   8.976  19.470  0.00  0.00    +0.000 C 
ATOM     17  C   UNL     1       2.048   8.753  18.110  0.00  0.00    +0.000 C 
BRANCH  16  18
ATOM     18  C   UNL     1       0.535  10.212  19.601  0.00  0.00    +0.000 A 
ATOM     19  C   UNL     1       0.881  11.135  20.608  0.00  0.00    +0.000 A 
ATOM     20  C   UNL     1       0.159  12.310  20.787  0.00  0.00    +0.000 A 
ATOM     21  C   UNL     1      -0.910  12.596  19.946  0.00  0.00    +0.000 A 
ATOM     22  C   UNL     1      -1.281  11.707  18.929  0.00  0.00    +0.000 A 
ATOM     23  C   UNL     1      -2.360  12.046  18.093  0.00  0.00    +0.000 A 
ATOM     24  C   UNL     1      -2.777  11.191  17.077  0.00  0.00    +0.000 A 
ATOM     25  C   UNL     1      -2.132   9.976  16.902  0.00  0.00    +0.000 A 
ATOM     26  C   UNL     1      -1.060   9.625  17.726  0.00  0.00    +0.000 A 
ATOM     27  C   UNL     1      -0.578  10.484  18.745  0.00  0.00    +0.000 A 
ENDBRANCH  16  18
ENDBRANCH   3  15
TORSDOF 5
ENDMDL
MODEL 5
REMARK VINA RESULT:      -7.8      3.719      8.629
REMARK  Name = 
REMARK  7 active torsions:
REMARK  status: ('A' for Active; 'I' for Inactive)
REMARK    1  A    between atoms: C_1  and  O_2
REMARK    2  A    between atoms: O_2  and  C_3
REMARK    3  A    between atoms: C_5  and  C_6
REMARK    4  A    between atoms: N_8  and  N_9
REMARK    5  A    between atoms: C_10  and  C_11
REMARK    6  A    between atoms: C_10  and  C_12
REMARK    7  A    between atoms: C_24  and  O_25
REMARK                            x       y       z     vdW  Elec       q    Type
REMARK                         _______ _______ _______ _____ _____    ______ ____
ROOT
ATOM      1  C   UNL     1       2.648   6.684  18.093  0.00  0.00    +0.000 C 
ATOM      2  O   UNL     1       1.657   5.956  18.136  0.00  0.00    +0.000 OA
ATOM      3  N   UNL     1       2.678   8.032  18.429  0.00  0.00    +0.000 N 
ATOM      4  H   UNL     1       3.502   8.576  18.226  0.00  0.00    +0.000 HD
ENDROOT
BRANCH   1   7
ATOM      5  C   UNL     1       6.266   6.492  16.921  0.00  0.00    +0.000 A 
ATOM      6  C   UNL     1       5.018   6.980  17.352  0.00  0.00    +0.000 A 
ATOM      7  C   UNL     1       3.955   6.114  17.638  0.00  0.00    +0.000 A 
ATOM      8  C   UNL     1       4.132   4.736  17.456  0.00  0.00    +0.000 A 
ATOM      9  C   UNL     1       5.364   4.239  17.027  0.00  0.00    +0.000 A 
ATOM     10  C   UNL     1       6.427   5.108  16.763  0.00  0.00    +0.000 A 
BRANCH   5  12
ATOM     11  C   UNL     1       7.889   8.007  17.824  0.00  0.00    +0.000 C 
ATOM     12  O   UNL     1       7.188   7.480  16.706  0.00  0.00    +0.000 OA
ENDBRANCH   5  12
BRANCH  10  13
ATOM     13  O   UNL     1       7.612   4.570  16.344  0.00  0.00    +0.000 OA
ATOM     14  H   UNL     1       7.768   4.810  15.416  0.00  0.00    +0.000 HD
ENDBRANCH  10  13
ENDBRANCH   1   7
BRANCH   3  15
ATOM     15  N   UNL     1       1.551   8.667  18.866  0.00  0.00    +0.000 NA
ATOM     16  C   UNL     1       1.368   9.933  18.624  0.00  0.00    +0.000 C 
ATOM     17  C   UNL     1       2.353  10.812  17.868  0.00  0.00    +0.000 C 
BRANCH  16  18
ATOM     18  C   UNL     1       0.093  10.609  19.088  0.00  0.00    +0.000 A 
ATOM     19  C   UNL     1       0.149  11.322  20.302  0.00  0.00    +0.000 A 
ATOM     20  C   UNL     1      -0.964  11.996  20.793  0.00  0.00    +0.000 A 
ATOM     21  C   UNL     1      -2.149  11.988  20.069  0.00  0.00    +0.000 A 
ATOM     22  C   UNL     1      -2.244  11.295  18.855  0.00  0.00    +0.000 A 
ATOM     23  C   UNL     1      -3.460  11.328  18.149  0.00  0.00    +0.000 A 
ATOM     24  C   UNL     1      -3.610  10.646  16.946  0.00  0.00    +0.000 A 
ATOM     25  C   UNL     1      -2.550   9.904  16.447  0.00  0.00    +0.000 A 
ATOM     26  C   UNL     1      -1.336   9.860  17.138  0.00  0.00    +0.000 A 
ATOM     27  C   UNL     1      -1.129  10.574  18.345  0.00  0.00    +0.000 A 
ENDBRANCH  16  18
ENDBRANCH   3  15
TORSDOF 5
ENDMDL
MODEL 6
REMARK VINA RESULT:      -7.8      1.505      3.187
REMARK  Name = 
REMARK  7 active torsions:
REMARK  status: ('A' for Active; 'I' for Inactive)
REMARK    1  A    between atoms: C_1  and  O_2
REMARK    2  A    between atoms: O_2  and  C_3
REMARK    3  A    between atoms: C_5  and  C_6
REMARK    4  A    between atoms: N_8  and  N_9
REMARK    5  A    between atoms: C_10  and  C_11
REMARK    6  A    between atoms: C_10  and  C_12
REMARK    7  A    between atoms: C_24  and  O_25
REMARK                            x       y       z     vdW  Elec       q    Type
REMARK                         _______ _______ _______ _____ _____    ______ ____
ROOT
ATOM      1  C   UNL     1       1.355   8.661  19.965  0.00  0.00    +0.000 C 
ATOM      2  O   UNL     1       1.446   9.008  18.788  0.00  0.00    +0.000 OA
ATOM      3  N   UNL     1       1.879   7.493  20.508  0.00  0.00    +0.000 N 
ATOM      4  H   UNL     1       1.631   7.229  21.448  0.00  0.00    +0.000 HD
ENDROOT
BRANCH   1   7
ATOM      5  C   UNL     1      -0.406  11.705  21.425  0.00  0.00    +0.000 A 
ATOM      6  C   UNL     1       0.285  10.843  20.552  0.00  0.00    +0.000 A 
ATOM      7  C   UNL     1       0.620   9.537  20.931  0.00  0.00    +0.000 A 
ATOM      8  C   UNL     1       0.289   9.095  22.218  0.00  0.00    +0.000 A 
ATOM      9  C   UNL     1      -0.394   9.941  23.094  0.00  0.00    +0.000 A 
ATOM     10  C   UNL     1      -0.744  11.237  22.702  0.00  0.00    +0.000 A 
BRANCH   5  12
ATOM     11  C   UNL     1      -1.874  13.116  20.159  0.00  0.00    +0.000 C 
ATOM     12  O   UNL     1      -0.663  12.934  20.880  0.00  0.00    +0.000 OA
ENDBRANCH   5  12
BRANCH  10  13
ATOM     13  O   UNL     1      -1.411  12.025  23.599  0.00  0.00    +0.000 OA
ATOM     14  H   UNL     1      -2.367  11.890  23.502  0.00  0.00    +0.000 HD
ENDBRANCH  10  13
ENDBRANCH   1   7
BRANCH   3  15
ATOM     15  N   UNL     1       2.577   6.615  19.731  0.00  0.00    +0.000 NA
ATOM     16  C   UNL     1       2.250   5.355  19.699  0.00  0.00    +0.000 C 
ATOM     17  C   UNL     1       1.109   4.745  20.498  0.00  0.00    +0.000 C 
BRANCH  16  18
ATOM     18  C   UNL     1       3.017   4.404  18.801  0.00  0.00    +0.000 A 
ATOM     19  C   UNL     1       2.850   3.025  19.035  0.00  0.00    +0.000 A 
ATOM     20  C   UNL     1       3.493   2.077  18.246  0.00  0.00    +0.000 A 
ATOM     21  C   UNL     1       4.298   2.491  17.192  0.00  0.00    +0.000 A 
ATOM     22  C   UNL     1       4.486   3.853  16.923  0.00  0.00    +0.000 A 
ATOM     23  C   UNL     1       5.298   4.224  15.837  0.00  0.00    +0.000 A 
ATOM     24  C   UNL     1       5.526   5.563  15.536  0.00  0.00    +0.000 A 
ATOM     25  C   UNL     1       4.963   6.547  16.335  0.00  0.00    +0.000 A 
ATOM     26  C   UNL     1       4.155   6.193  17.419  0.00  0.00    +0.000 A 
ATOM     27  C   UNL     1       3.863   4.842  17.735  0.00  0.00    +0.000 A 
ENDBRANCH  16  18
ENDBRANCH   3  15
TORSDOF 5
ENDMDL
MODEL 7
REMARK VINA RESULT:      -7.8      3.184      8.779
REMARK  Name = 
REMARK  7 active torsions:
REMARK  status: ('A' for Active; 'I' for Inactive)
REMARK    1  A    between atoms: C_1  and  O_2
REMARK    2  A    between atoms: O_2  and  C_3
REMARK    3  A    between atoms: C_5  and  C_6
REMARK    4  A    between atoms: N_8  and  N_9
REMARK    5  A    between atoms: C_10  and  C_11
REMARK    6  A    between atoms: C_10  and  C_12
REMARK    7  A    between atoms: C_24  and  O_25
REMARK                            x       y       z     vdW  Elec       q    Type
REMARK                         _______ _______ _______ _____ _____    ______ ____
ROOT
ATOM      1  C   UNL     1       2.420   6.806  19.382  0.00  0.00    +0.000 C 
ATOM      2  O   UNL     1       1.705   6.242  20.208  0.00  0.00    +0.000 OA
ATOM      3  N   UNL     1       2.262   8.110  18.928  0.00  0.00    +0.000 N 
ATOM      4  H   UNL     1       2.811   8.433  18.147  0.00  0.00    +0.000 HD
ENDROOT
BRANCH   1   7
ATOM      5  C   UNL     1       5.095   4.145  18.866  0.00  0.00    +0.000 A 
ATOM      6  C   UNL     1       4.018   4.882  19.393  0.00  0.00    +0.000 A 
ATOM      7  C   UNL     1       3.571   6.059  18.780  0.00  0.00    +0.000 A 
ATOM      8  C   UNL     1       4.233   6.527  17.638  0.00  0.00    +0.000 A 
ATOM      9  C   UNL     1       5.305   5.806  17.107  0.00  0.00    +0.000 A 
ATOM     10  C   UNL     1       5.733   4.621  17.712  0.00  0.00    +0.000 A 
BRANCH   5  12
ATOM     11  C   UNL     1       4.306   2.185  19.999  0.00  0.00    +0.000 C 
ATOM     12  O   UNL     1       5.382   3.016  19.586  0.00  0.00    +0.000 OA
ENDBRANCH   5  12
BRANCH  10  13
ATOM     13  O   UNL     1       6.788   3.954  17.152  0.00  0.00    +0.000 OA
ATOM     14  H   UNL     1       7.615   4.409  17.375  0.00  0.00    +0.000 HD
ENDBRANCH  10  13
ENDBRANCH   1   7
BRANCH   3  15
ATOM     15  N   UNL     1       1.254   8.896  19.406  0.00  0.00    +0.000 NA
ATOM     16  C   UNL     1       1.079  10.102  18.945  0.00  0.00    +0.000 C 
ATOM     17  C   UNL     1       1.949  10.744  17.875  0.00  0.00    +0.000 C 
BRANCH  16  18
ATOM     18  C   UNL     1      -0.068  10.944  19.465  0.00  0.00    +0.000 A 
ATOM     19  C   UNL     1       0.193  11.768  20.578  0.00  0.00    +0.000 A 
ATOM     20  C   UNL     1      -0.790  12.595  21.109  0.00  0.00    +0.000 A 
ATOM     21  C   UNL     1      -2.050  12.632  20.523  0.00  0.00    +0.000 A 
ATOM     22  C   UNL     1      -2.348  11.833  19.411  0.00  0.00    +0.000 A 
ATOM     23  C   UNL     1      -3.630  11.914  18.843  0.00  0.00    +0.000 A 
ATOM     24  C   UNL     1      -3.981  11.132  17.747  0.00  0.00    +0.000 A 
ATOM     25  C   UNL     1      -3.057  10.241  17.222  0.00  0.00    +0.000 A 
ATOM     26  C   UNL     1      -1.778  10.147  17.778  0.00  0.00    +0.000 A 
ATOM     27  C   UNL     1      -1.368  10.956  18.868  0.00  0.00    +0.000 A 
ENDBRANCH  16  18
ENDBRANCH   3  15
TORSDOF 5
ENDMDL
MODEL 8
REMARK VINA RESULT:      -7.8      1.447      2.748
REMARK  Name = 
REMARK  7 active torsions:
REMARK  status: ('A' for Active; 'I' for Inactive)
REMARK    1  A    between atoms: C_1  and  O_2
REMARK    2  A    between atoms: O_2  and  C_3
REMARK    3  A    between atoms: C_5  and  C_6
REMARK    4  A    between atoms: N_8  and  N_9
REMARK    5  A    between atoms: C_10  and  C_11
REMARK    6  A    between atoms: C_10  and  C_12
REMARK    7  A    between atoms: C_24  and  O_25
REMARK                            x       y       z     vdW  Elec       q    Type
REMARK                         _______ _______ _______ _____ _____    ______ ____
ROOT
ATOM      1  C   UNL     1       0.404   8.827  21.128  0.00  0.00    +0.000 C 
ATOM      2  O   UNL     1      -0.289   7.870  21.468  0.00  0.00    +0.000 OA
ATOM      3  N   UNL     1       1.553   8.759  20.349  0.00  0.00    +0.000 N 
ATOM      4  H   UNL     1       2.130   9.579  20.243  0.00  0.00    +0.000 HD
ENDROOT
BRANCH   1   7
ATOM      5  C   UNL     1       0.231  12.627  21.300  0.00  0.00    +0.000 A 
ATOM      6  C   UNL     1       0.562  11.314  20.917  0.00  0.00    +0.000 A 
ATOM      7  C   UNL     1       0.020  10.204  21.575  0.00  0.00    +0.000 A 
ATOM      8  C   UNL     1      -0.842  10.408  22.660  0.00  0.00    +0.000 A 
ATOM      9  C   UNL     1      -1.176  11.707  23.052  0.00  0.00    +0.000 A 
ATOM     10  C   UNL     1      -0.647  12.811  22.377  0.00  0.00    +0.000 A 
BRANCH   5  12
ATOM     11  C   UNL     1       0.146  14.093  19.405  0.00  0.00    +0.000 C 
ATOM     12  O   UNL     1       0.842  13.584  20.535  0.00  0.00    +0.000 OA
ENDBRANCH   5  12
BRANCH  10  13
ATOM     13  O   UNL     1      -1.006  14.060  22.802  0.00  0.00    +0.000 OA
ATOM     14  H   UNL     1      -1.244  14.028  23.742  0.00  0.00    +0.000 HD
ENDBRANCH  10  13
ENDBRANCH   1   7
BRANCH   3  15
ATOM     15  N   UNL     1       2.003   7.562  19.873  0.00  0.00    +0.000 NA
ATOM     16  C   UNL     1       2.327   7.427  18.619  0.00  0.00    +0.000 C 
ATOM     17  C   UNL     1       2.232   8.539  17.585  0.00  0.00    +0.000 C 
BRANCH  16  18
ATOM     18  C   UNL     1       2.858   6.098  18.120  0.00  0.00    +0.000 A 
ATOM     19  C   UNL     1       1.969   5.004  18.137  0.00  0.00    +0.000 A 
ATOM     20  C   UNL     1       2.359   3.752  17.674  0.00  0.00    +0.000 A 
ATOM     21  C   UNL     1       3.640   3.574  17.164  0.00  0.00    +0.000 A 
ATOM     22  C   UNL     1       4.551   4.638  17.125  0.00  0.00    +0.000 A 
ATOM     23  C   UNL     1       5.830   4.415  16.587  0.00  0.00    +0.000 A 
ATOM     24  C   UNL     1       6.776   5.434  16.537  0.00  0.00    +0.000 A 
ATOM     25  C   UNL     1       6.459   6.684  17.048  0.00  0.00    +0.000 A 
ATOM     26  C   UNL     1       5.192   6.920  17.588  0.00  0.00    +0.000 A 
ATOM     27  C   UNL     1       4.186   5.921  17.620  0.00  0.00    +0.000 A 
ENDBRANCH  16  18
ENDBRANCH   3  15
TORSDOF 5
ENDMDL
MODEL 9
REMARK VINA RESULT:      -7.7      2.339      2.672
REMARK  Name = 
REMARK  7 active torsions:
REMARK  status: ('A' for Active; 'I' for Inactive)
REMARK    1  A    between atoms: C_1  and  O_2
REMARK    2  A    between atoms: O_2  and  C_3
REMARK    3  A    between atoms: C_5  and  C_6
REMARK    4  A    between atoms: N_8  and  N_9
REMARK    5  A    between atoms: C_10  and  C_11
REMARK    6  A    between atoms: C_10  and  C_12
REMARK    7  A    between atoms: C_24  and  O_25
REMARK                            x       y       z     vdW  Elec       q    Type
REMARK                         _______ _______ _______ _____ _____    ______ ____
ROOT
ATOM      1  C   UNL     1       1.413  10.699  18.248  0.00  0.00    +0.000 C 
ATOM      2  O   UNL     1       2.500  11.154  17.898  0.00  0.00    +0.000 OA
ATOM      3  N   UNL     1       1.025   9.367  18.160  0.00  0.00    +0.000 N 
ATOM      4  H   UNL     1       0.065   9.117  18.340  0.00  0.00    +0.000 HD
ENDROOT
BRANCH   1   7
ATOM      5  C   UNL     1      -1.977  12.234  19.059  0.00  0.00    +0.000 A 
ATOM      6  C   UNL     1      -0.972  11.392  18.547  0.00  0.00    +0.000 A 
ATOM      7  C   UNL     1       0.382  11.625  18.818  0.00  0.00    +0.000 A 
ATOM      8  C   UNL     1       0.742  12.738  19.588  0.00  0.00    +0.000 A 
ATOM      9  C   UNL     1      -0.246  13.582  20.100  0.00  0.00    +0.000 A 
ATOM     10  C   UNL     1      -1.597  13.332  19.843  0.00  0.00    +0.000 A 
BRANCH   5  12
ATOM     11  C   UNL     1      -3.386  10.831  17.719  0.00  0.00    +0.000 C 
ATOM     12  O   UNL     1      -3.240  11.844  18.705  0.00  0.00    +0.000 OA
ENDBRANCH   5  12
BRANCH  10  13
ATOM     13  O   UNL     1      -2.524  14.190  20.367  0.00  0.00    +0.000 OA
ATOM     14  H   UNL     1      -2.392  15.078  19.997  0.00  0.00    +0.000 HD
ENDBRANCH  10  13
ENDBRANCH   1   7
BRANCH   3  15
ATOM     15  N   UNL     1       1.878   8.424  17.665  0.00  0.00    +0.000 NA
ATOM     16  C   UNL     1       2.385   7.514  18.446  0.00  0.00    +0.000 C 
ATOM     17  C   UNL     1       2.103   7.411  19.937  0.00  0.00    +0.000 C 
BRANCH  16  18
ATOM     18  C   UNL     1       3.302   6.455  17.867  0.00  0.00    +0.000 A 
ATOM     19  C   UNL     1       4.536   6.891  17.344  0.00  0.00    +0.000 A 
ATOM     20  C   UNL     1       5.453   5.989  16.816  0.00  0.00    +0.000 A 
ATOM     21  C   UNL     1       5.164   4.630  16.820  0.00  0.00    +0.000 A 
ATOM     22  C   UNL     1       3.951   4.156  17.336  0.00  0.00    +0.000 A 
ATOM     23  C   UNL     1       3.708   2.772  17.333  0.00  0.00    +0.000 A 
ATOM     24  C   UNL     1       2.513   2.251  17.821  0.00  0.00    +0.000 A 
ATOM     25  C   UNL     1       1.538   3.114  18.297  0.00  0.00    +0.000 A 
ATOM     26  C   UNL     1       1.764   4.493  18.304  0.00  0.00    +0.000 A 
ATOM     27  C   UNL     1       2.983   5.061  17.854  0.00  0.00    +0.000 A 
ENDBRANCH  16  18
ENDBRANCH   3  15
TORSDOF 5
ENDMDL
