MODEL 1
REMARK VINA RESULT:      -6.9      0.000      0.000
REMARK  Name = 
REMARK  5 active torsions:
REMARK  status: ('A' for Active; 'I' for Inactive)
REMARK    1  A    between atoms: C_3  and  C_4
REMARK    2  A    between atoms: C_4  and  C_5
REMARK    3  A    between atoms: C_16  and  C_17
REMARK    4  A    between atoms: N_24  and  C_25
REMARK    5  A    between atoms: C_25  and  C_26
REMARK                            x       y       z     vdW  Elec       q    Type
REMARK                         _______ _______ _______ _____ _____    ______ ____
ROOT
ATOM      1  O   UNL     1      -0.344  10.688  23.124  0.00  0.00    +0.000 OA
ATOM      2  C   UNL     1      -0.420  11.625  22.323  0.00  0.00    +0.000 C 
ATOM      3  C   UNL     1      -1.372  12.831  22.577  0.00  0.00    +0.000 C 
ATOM      4  N   UNL     1      -1.196  14.019  21.701  0.00  0.00    +0.000 NA
ATOM      5  C   UNL     1      -1.358  13.919  20.263  0.00  0.00    +0.000 C 
ATOM      6  C   UNL     1      -2.507  13.084  19.817  0.00  0.00    +0.000 C 
ATOM      7  C   UNL     1      -2.409  11.854  19.290  0.00  0.00    +0.000 C 
ATOM      8  C   UNL     1      -1.123  11.141  18.979  0.00  0.00    +0.000 C 
ATOM      9  C   UNL     1      -0.324  10.521  20.168  0.00  0.00    +0.000 C 
ATOM     10  N   UNL     1       0.223  11.549  21.095  0.00  0.00    +0.000 N 
ATOM     11  H   UNL     1      -0.290  14.429  21.905  0.00  0.00    +0.000 HD
ENDROOT
BRANCH   9  12
ATOM     12  C   UNL     1       0.698   9.500  19.653  0.00  0.00    +0.000 A 
ATOM     13  C   UNL     1       1.148   9.503  18.319  0.00  0.00    +0.000 A 
ATOM     14  C   UNL     1       1.999   8.507  17.840  0.00  0.00    +0.000 A 
ATOM     15  C   UNL     1       2.437   7.507  18.699  0.00  0.00    +0.000 A 
ATOM     16 CL   UNL     1       3.457   6.257  18.097  0.00  0.00    +0.000 Cl
ATOM     17  C   UNL     1       2.049   7.510  20.037  0.00  0.00    +0.000 A 
ATOM     18  C   UNL     1       1.186   8.503  20.515  0.00  0.00    +0.000 A 
ENDBRANCH   9  12
BRANCH   3  19
ATOM     19  C   UNL     1      -2.811  12.272  22.754  0.00  0.00    +0.000 C 
BRANCH  19  20
ATOM     20  C   UNL     1      -3.967  13.184  23.111  0.00  0.00    +0.000 A 
ATOM     21  C   UNL     1      -5.272  13.025  22.637  0.00  0.00    +0.000 A 
ATOM     22  C   UNL     1      -6.258  13.975  22.922  0.00  0.00    +0.000 A 
ATOM     23  C   UNL     1      -5.951  15.097  23.687  0.00  0.00    +0.000 A 
ATOM     24  C   UNL     1      -4.668  15.251  24.200  0.00  0.00    +0.000 A 
ATOM     25  C   UNL     1      -3.688  14.297  23.923  0.00  0.00    +0.000 A 
ENDBRANCH  19  20
ENDBRANCH   3  19
BRANCH  10  26
ATOM     26  C   UNL     1       1.638  11.948  21.006  0.00  0.00    +0.000 C 
BRANCH  26  27
ATOM     27  C   UNL     1       1.963  13.115  20.091  0.00  0.00    +0.000 A 
ATOM     28  C   UNL     1       2.173  14.392  20.641  0.00  0.00    +0.000 A 
ATOM     29  C   UNL     1       2.468  15.485  19.825  0.00  0.00    +0.000 A 
ATOM     30  C   UNL     1       2.546  15.320  18.444  0.00  0.00    +0.000 A 
ATOM     31  C   UNL     1       2.345  14.056  17.882  0.00  0.00    +0.000 A 
ATOM     32  C   UNL     1       2.070  12.958  18.703  0.00  0.00    +0.000 A 
ENDBRANCH  26  27
ENDBRANCH  10  26
TORSDOF 5
ENDMDL
MODEL 2
REMARK VINA RESULT:      -6.9      0.205      1.236
REMARK  Name = 
REMARK  5 active torsions:
REMARK  status: ('A' for Active; 'I' for Inactive)
REMARK    1  A    between atoms: C_3  and  C_4
REMARK    2  A    between atoms: C_4  and  C_5
REMARK    3  A    between atoms: C_16  and  C_17
REMARK    4  A    between atoms: N_24  and  C_25
REMARK    5  A    between atoms: C_25  and  C_26
REMARK                            x       y       z     vdW  Elec       q    Type
REMARK                         _______ _______ _______ _____ _____    ______ ____
ROOT
ATOM      1  O   UNL     1      -0.339  10.702  23.087  0.00  0.00    +0.000 OA
ATOM      2  C   UNL     1      -0.407  11.640  22.287  0.00  0.00    +0.000 C 
ATOM      3  C   UNL     1      -1.360  12.847  22.533  0.00  0.00    +0.000 C 
ATOM      4  N   UNL     1      -1.176  14.035  21.659  0.00  0.00    +0.000 NA
ATOM      5  C   UNL     1      -1.326  13.936  20.220  0.00  0.00    +0.000 C 
ATOM      6  C   UNL     1      -2.472  13.103  19.764  0.00  0.00    +0.000 C 
ATOM      7  C   UNL     1      -2.371  11.873  19.237  0.00  0.00    +0.000 C 
ATOM      8  C   UNL     1      -1.083  11.159  18.937  0.00  0.00    +0.000 C 
ATOM      9  C   UNL     1      -0.294  10.537  20.132  0.00  0.00    +0.000 C 
ATOM     10  N   UNL     1       0.246  11.564  21.064  0.00  0.00    +0.000 N 
ATOM     11  H   UNL     1      -0.270  14.444  21.871  0.00  0.00    +0.000 HD
ENDROOT
BRANCH   9  12
ATOM     12  C   UNL     1       0.730   9.516  19.625  0.00  0.00    +0.000 A 
ATOM     13  C   UNL     1       1.216   9.539  18.303  0.00  0.00    +0.000 A 
ATOM     14  C   UNL     1       2.069   8.542  17.828  0.00  0.00    +0.000 A 
ATOM     15  C   UNL     1       2.474   7.523  18.679  0.00  0.00    +0.000 A 
ATOM     16 CL   UNL     1       3.497   6.274  18.081  0.00  0.00    +0.000 Cl
ATOM     17  C   UNL     1       2.050   7.504  20.007  0.00  0.00    +0.000 A 
ATOM     18  C   UNL     1       1.185   8.498  20.480  0.00  0.00    +0.000 A 
ENDBRANCH   9  12
BRANCH   3  19
ATOM     19  C   UNL     1      -2.801  12.289  22.698  0.00  0.00    +0.000 C 
BRANCH  19  20
ATOM     20  C   UNL     1      -3.979  13.216  22.922  0.00  0.00    +0.000 A 
ATOM     21  C   UNL     1      -3.957  14.327  23.770  0.00  0.00    +0.000 A 
ATOM     22  C   UNL     1      -5.119  15.066  24.011  0.00  0.00    +0.000 A 
ATOM     23  C   UNL     1      -6.320  14.704  23.406  0.00  0.00    +0.000 A 
ATOM     24  C   UNL     1      -6.352  13.625  22.529  0.00  0.00    +0.000 A 
ATOM     25  C   UNL     1      -5.189  12.895  22.281  0.00  0.00    +0.000 A 
ENDBRANCH  19  20
ENDBRANCH   3  19
BRANCH  10  26
ATOM     26  C   UNL     1       1.661  11.961  20.986  0.00  0.00    +0.000 C 
BRANCH  26  27
ATOM     27  C   UNL     1       1.987  13.170  20.127  0.00  0.00    +0.000 A 
ATOM     28  C   UNL     1       2.066  13.030  18.730  0.00  0.00    +0.000 A 
ATOM     29  C   UNL     1       2.369  14.122  17.916  0.00  0.00    +0.000 A 
ATOM     30  C   UNL     1       2.608  15.369  18.486  0.00  0.00    +0.000 A 
ATOM     31  C   UNL     1       2.528  15.527  19.873  0.00  0.00    +0.000 A 
ATOM     32  C   UNL     1       2.204  14.436  20.686  0.00  0.00    +0.000 A 
ENDBRANCH  26  27
ENDBRANCH  10  26
TORSDOF 5
ENDMDL
MODEL 3
REMARK VINA RESULT:      -6.8      2.535      4.917
REMARK  Name = 
REMARK  5 active torsions:
REMARK  status: ('A' for Active; 'I' for Inactive)
REMARK    1  A    between atoms: C_3  and  C_4
REMARK    2  A    between atoms: C_4  and  C_5
REMARK    3  A    between atoms: C_16  and  C_17
REMARK    4  A    between atoms: N_24  and  C_25
REMARK    5  A    between atoms: C_25  and  C_26
REMARK                            x       y       z     vdW  Elec       q    Type
REMARK                         _______ _______ _______ _____ _____    ______ ____
ROOT
ATOM      1  O   UNL     1      -0.398  12.772  18.142  0.00  0.00    +0.000 OA
ATOM      2  C   UNL     1      -1.167  12.482  19.064  0.00  0.00    +0.000 C 
ATOM      3  C   UNL     1      -2.104  13.549  19.703  0.00  0.00    +0.000 C 
ATOM      4  N   UNL     1      -3.168  13.048  20.611  0.00  0.00    +0.000 NA
ATOM      5  C   UNL     1      -2.838  12.308  21.815  0.00  0.00    +0.000 C 
ATOM      6  C   UNL     1      -1.679  12.842  22.582  0.00  0.00    +0.000 C 
ATOM      7  C   UNL     1      -0.459  12.288  22.624  0.00  0.00    +0.000 C 
ATOM      8  C   UNL     1      -0.072  10.987  21.976  0.00  0.00    +0.000 C 
ATOM      9  C   UNL     1       0.152  10.978  20.431  0.00  0.00    +0.000 C 
ATOM     10  N   UNL     1      -1.097  11.232  19.664  0.00  0.00    +0.000 N 
ATOM     11  H   UNL     1      -3.824  12.505  20.058  0.00  0.00    +0.000 HD
ENDROOT
BRANCH   9  12
ATOM     12  C   UNL     1       0.930   9.725  20.010  0.00  0.00    +0.000 A 
ATOM     13  C   UNL     1       1.462   9.577  18.715  0.00  0.00    +0.000 A 
ATOM     14  C   UNL     1       2.078   8.390  18.317  0.00  0.00    +0.000 A 
ATOM     15  C   UNL     1       2.198   7.342  19.221  0.00  0.00    +0.000 A 
ATOM     16 CL   UNL     1       2.924   5.865  18.717  0.00  0.00    +0.000 Cl
ATOM     17  C   UNL     1       1.726   7.481  20.525  0.00  0.00    +0.000 A 
ATOM     18  C   UNL     1       1.098   8.667  20.921  0.00  0.00    +0.000 A 
ENDBRANCH   9  12
BRANCH   3  19
ATOM     19  C   UNL     1      -1.217  14.721  20.208  0.00  0.00    +0.000 C 
BRANCH  19  20
ATOM     20  C   UNL     1      -1.274  16.085  19.552  0.00  0.00    +0.000 A 
ATOM     21  C   UNL     1      -2.200  17.080  19.878  0.00  0.00    +0.000 A 
ATOM     22  C   UNL     1      -2.260  18.270  19.148  0.00  0.00    +0.000 A 
ATOM     23  C   UNL     1      -1.392  18.483  18.080  0.00  0.00    +0.000 A 
ATOM     24  C   UNL     1      -0.438  17.521  17.765  0.00  0.00    +0.000 A 
ATOM     25  C   UNL     1      -0.373  16.338  18.501  0.00  0.00    +0.000 A 
ENDBRANCH  19  20
ENDBRANCH   3  19
BRANCH  10  26
ATOM     26  C   UNL     1      -1.837  10.110  19.062  0.00  0.00    +0.000 C 
BRANCH  26  27
ATOM     27  C   UNL     1      -2.599  10.402  17.782  0.00  0.00    +0.000 A 
ATOM     28  C   UNL     1      -2.048  10.029  16.544  0.00  0.00    +0.000 A 
ATOM     29  C   UNL     1      -2.723  10.290  15.350  0.00  0.00    +0.000 A 
ATOM     30  C   UNL     1      -3.955  10.938  15.376  0.00  0.00    +0.000 A 
ATOM     31  C   UNL     1      -4.520  11.311  16.600  0.00  0.00    +0.000 A 
ATOM     32  C   UNL     1      -3.851  11.030  17.796  0.00  0.00    +0.000 A 
ENDBRANCH  26  27
ENDBRANCH  10  26
TORSDOF 5
ENDMDL
MODEL 4
REMARK VINA RESULT:      -6.7      2.334      5.305
REMARK  Name = 
REMARK  5 active torsions:
REMARK  status: ('A' for Active; 'I' for Inactive)
REMARK    1  A    between atoms: C_3  and  C_4
REMARK    2  A    between atoms: C_4  and  C_5
REMARK    3  A    between atoms: C_16  and  C_17
REMARK    4  A    between atoms: N_24  and  C_25
REMARK    5  A    between atoms: C_25  and  C_26
REMARK                            x       y       z     vdW  Elec       q    Type
REMARK                         _______ _______ _______ _____ _____    ______ ____
ROOT
ATOM      1  O   UNL     1       0.269  12.513  18.150  0.00  0.00    +0.000 OA
ATOM      2  C   UNL     1      -0.667  12.362  18.943  0.00  0.00    +0.000 C 
ATOM      3  C   UNL     1      -1.540  13.567  19.403  0.00  0.00    +0.000 C 
ATOM      4  N   UNL     1      -2.791  13.244  20.138  0.00  0.00    +0.000 NA
ATOM      5  C   UNL     1      -2.755  12.516  21.393  0.00  0.00    +0.000 C 
ATOM      6  C   UNL     1      -1.670  12.925  22.325  0.00  0.00    +0.000 C 
ATOM      7  C   UNL     1      -0.557  12.219  22.573  0.00  0.00    +0.000 C 
ATOM      8  C   UNL     1      -0.252  10.855  22.020  0.00  0.00    +0.000 C 
ATOM      9  C   UNL     1       0.208  10.754  20.531  0.00  0.00    +0.000 C 
ATOM     10  N   UNL     1      -0.861  11.139  19.569  0.00  0.00    +0.000 N 
ATOM     11  H   UNL     1      -3.419  12.769  19.497  0.00  0.00    +0.000 HD
ENDROOT
BRANCH   9  12
ATOM     12  C   UNL     1       0.866   9.395  20.264  0.00  0.00    +0.000 A 
ATOM     13  C   UNL     1       0.847   8.357  21.215  0.00  0.00    +0.000 A 
ATOM     14  C   UNL     1       1.537   7.164  20.998  0.00  0.00    +0.000 A 
ATOM     15  C   UNL     1       2.232   6.980  19.810  0.00  0.00    +0.000 A 
ATOM     16 CL   UNL     1       3.114   5.523  19.559  0.00  0.00    +0.000 Cl
ATOM     17  C   UNL     1       2.224   7.970  18.829  0.00  0.00    +0.000 A 
ATOM     18  C   UNL     1       1.541   9.172  19.052  0.00  0.00    +0.000 A 
ENDBRANCH   9  12
BRANCH   3  19
ATOM     19  C   UNL     1      -0.593  14.632  20.022  0.00  0.00    +0.000 C 
BRANCH  19  20
ATOM     20  C   UNL     1      -0.091  15.804  19.203  0.00  0.00    +0.000 A 
ATOM     21  C   UNL     1      -0.916  16.768  18.618  0.00  0.00    +0.000 A 
ATOM     22  C   UNL     1      -0.384  17.754  17.782  0.00  0.00    +0.000 A 
ATOM     23  C   UNL     1       0.983  17.789  17.519  0.00  0.00    +0.000 A 
ATOM     24  C   UNL     1       1.825  16.861  18.124  0.00  0.00    +0.000 A 
ATOM     25  C   UNL     1       1.293  15.884  18.966  0.00  0.00    +0.000 A 
ENDBRANCH  19  20
ENDBRANCH   3  19
BRANCH  10  26
ATOM     26  C   UNL     1      -1.641  10.099  18.877  0.00  0.00    +0.000 C 
BRANCH  26  27
ATOM     27  C   UNL     1      -2.568  10.564  17.769  0.00  0.00    +0.000 A 
ATOM     28  C   UNL     1      -2.163  10.445  16.428  0.00  0.00    +0.000 A 
ATOM     29  C   UNL     1      -2.992  10.869  15.388  0.00  0.00    +0.000 A 
ATOM     30  C   UNL     1      -4.234  11.430  15.674  0.00  0.00    +0.000 A 
ATOM     31  C   UNL     1      -4.654  11.551  17.002  0.00  0.00    +0.000 A 
ATOM     32  C   UNL     1      -3.831  11.107  18.041  0.00  0.00    +0.000 A 
ENDBRANCH  26  27
ENDBRANCH  10  26
TORSDOF 5
ENDMDL
MODEL 5
REMARK VINA RESULT:      -6.6      2.500      4.952
REMARK  Name = 
REMARK  5 active torsions:
REMARK  status: ('A' for Active; 'I' for Inactive)
REMARK    1  A    between atoms: C_3  and  C_4
REMARK    2  A    between atoms: C_4  and  C_5
REMARK    3  A    between atoms: C_16  and  C_17
REMARK    4  A    between atoms: N_24  and  C_25
REMARK    5  A    between atoms: C_25  and  C_26
REMARK                            x       y       z     vdW  Elec       q    Type
REMARK                         _______ _______ _______ _____ _____    ______ ____
ROOT
ATOM      1  O   UNL     1      -0.303  12.602  18.221  0.00  0.00    +0.000 OA
ATOM      2  C   UNL     1      -1.132  12.367  19.106  0.00  0.00    +0.000 C 
ATOM      3  C   UNL     1      -2.044  13.491  19.679  0.00  0.00    +0.000 C 
ATOM      4  N   UNL     1      -3.178  13.060  20.539  0.00  0.00    +0.000 NA
ATOM      5  C   UNL     1      -2.948  12.325  21.768  0.00  0.00    +0.000 C 
ATOM      6  C   UNL     1      -1.805  12.814  22.587  0.00  0.00    +0.000 C 
ATOM      7  C   UNL     1      -0.618  12.199  22.701  0.00  0.00    +0.000 C 
ATOM      8  C   UNL     1      -0.266  10.870  22.093  0.00  0.00    +0.000 C 
ATOM      9  C   UNL     1       0.036  10.822  20.562  0.00  0.00    +0.000 C 
ATOM     10  N   UNL     1      -1.157  11.126  19.728  0.00  0.00    +0.000 N 
ATOM     11  H   UNL     1      -3.832  12.541  19.960  0.00  0.00    +0.000 HD
ENDROOT
BRANCH   9  12
ATOM     12  C   UNL     1       0.769   9.524  20.201  0.00  0.00    +0.000 A 
ATOM     13  C   UNL     1       0.889   8.456  21.112  0.00  0.00    +0.000 A 
ATOM     14  C   UNL     1       1.646   7.325  20.804  0.00  0.00    +0.000 A 
ATOM     15  C   UNL     1       2.269   7.231  19.567  0.00  0.00    +0.000 A 
ATOM     16 CL   UNL     1       3.232   5.852  19.204  0.00  0.00    +0.000 Cl
ATOM     17  C   UNL     1       2.124   8.250  18.627  0.00  0.00    +0.000 A 
ATOM     18  C   UNL     1       1.374   9.391  18.939  0.00  0.00    +0.000 A 
ENDBRANCH   9  12
BRANCH   3  19
ATOM     19  C   UNL     1      -1.125  14.625  20.213  0.00  0.00    +0.000 C 
BRANCH  19  20
ATOM     20  C   UNL     1      -1.092  15.985  19.546  0.00  0.00    +0.000 A 
ATOM     21  C   UNL     1      -0.317  16.295  18.426  0.00  0.00    +0.000 A 
ATOM     22  C   UNL     1      -0.254  17.604  17.939  0.00  0.00    +0.000 A 
ATOM     23  C   UNL     1      -0.967  18.622  18.567  0.00  0.00    +0.000 A 
ATOM     24  C   UNL     1      -1.775  18.325  19.659  0.00  0.00    +0.000 A 
ATOM     25  C   UNL     1      -1.845  17.016  20.138  0.00  0.00    +0.000 A 
ENDBRANCH  19  20
ENDBRANCH   3  19
BRANCH  10  26
ATOM     26  C   UNL     1      -1.922  10.033  19.104  0.00  0.00    +0.000 C 
BRANCH  26  27
ATOM     27  C   UNL     1      -2.627  10.350  17.798  0.00  0.00    +0.000 A 
ATOM     28  C   UNL     1      -3.879  10.990  17.821  0.00  0.00    +0.000 A 
ATOM     29  C   UNL     1      -4.554  11.288  16.636  0.00  0.00    +0.000 A 
ATOM     30  C   UNL     1      -3.992  10.942  15.410  0.00  0.00    +0.000 A 
ATOM     31  C   UNL     1      -2.746  10.310  15.369  0.00  0.00    +0.000 A 
ATOM     32  C   UNL     1      -2.062  10.029  16.556  0.00  0.00    +0.000 A 
ENDBRANCH  26  27
ENDBRANCH  10  26
TORSDOF 5
ENDMDL
MODEL 6
REMARK VINA RESULT:      -6.6      2.345      5.283
REMARK  Name = 
REMARK  5 active torsions:
REMARK  status: ('A' for Active; 'I' for Inactive)
REMARK    1  A    between atoms: C_3  and  C_4
REMARK    2  A    between atoms: C_4  and  C_5
REMARK    3  A    between atoms: C_16  and  C_17
REMARK    4  A    between atoms: N_24  and  C_25
REMARK    5  A    between atoms: C_25  and  C_26
REMARK                            x       y       z     vdW  Elec       q    Type
REMARK                         _______ _______ _______ _____ _____    ______ ____
ROOT
ATOM      1  O   UNL     1       0.319  12.553  18.087  0.00  0.00    +0.000 OA
ATOM      2  C   UNL     1      -0.618  12.400  18.878  0.00  0.00    +0.000 C 
ATOM      3  C   UNL     1      -1.521  13.595  19.303  0.00  0.00    +0.000 C 
ATOM      4  N   UNL     1      -2.769  13.262  20.040  0.00  0.00    +0.000 NA
ATOM      5  C   UNL     1      -2.724  12.567  21.312  0.00  0.00    +0.000 C 
ATOM      6  C   UNL     1      -1.653  13.024  22.240  0.00  0.00    +0.000 C 
ATOM      7  C   UNL     1      -0.526  12.349  22.511  0.00  0.00    +0.000 C 
ATOM      8  C   UNL     1      -0.187  10.979  21.994  0.00  0.00    +0.000 C 
ATOM      9  C   UNL     1       0.284  10.853  20.510  0.00  0.00    +0.000 C 
ATOM     10  N   UNL     1      -0.788  11.188  19.534  0.00  0.00    +0.000 N 
ATOM     11  H   UNL     1      -3.382  12.758  19.407  0.00  0.00    +0.000 HD
ENDROOT
BRANCH   9  12
ATOM     12  C   UNL     1       0.974   9.503  20.281  0.00  0.00    +0.000 A 
ATOM     13  C   UNL     1       1.648   9.204  19.080  0.00  0.00    +0.000 A 
ATOM     14  C   UNL     1       2.183   7.937  18.847  0.00  0.00    +0.000 A 
ATOM     15  C   UNL     1       2.078   6.957  19.826  0.00  0.00    +0.000 A 
ATOM     16 CL   UNL     1       2.705   5.383  19.521  0.00  0.00    +0.000 Cl
ATOM     17  C   UNL     1       1.462   7.241  21.043  0.00  0.00    +0.000 A 
ATOM     18  C   UNL     1       0.915   8.509  21.273  0.00  0.00    +0.000 A 
ENDBRANCH   9  12
BRANCH   3  19
ATOM     19  C   UNL     1      -0.603  14.697  19.900  0.00  0.00    +0.000 C 
BRANCH  19  20
ATOM     20  C   UNL     1       0.049  15.739  19.014  0.00  0.00    +0.000 A 
ATOM     21  C   UNL     1       1.423  15.817  18.768  0.00  0.00    +0.000 A 
ATOM     22  C   UNL     1       1.958  16.877  18.031  0.00  0.00    +0.000 A 
ATOM     23  C   UNL     1       1.127  17.874  17.528  0.00  0.00    +0.000 A 
ATOM     24  C   UNL     1      -0.247  17.791  17.729  0.00  0.00    +0.000 A 
ATOM     25  C   UNL     1      -0.782  16.727  18.457  0.00  0.00    +0.000 A 
ENDBRANCH  19  20
ENDBRANCH   3  19
BRANCH  10  26
ATOM     26  C   UNL     1      -1.540  10.115  18.863  0.00  0.00    +0.000 C 
BRANCH  26  27
ATOM     27  C   UNL     1      -2.485  10.533  17.752  0.00  0.00    +0.000 A 
ATOM     28  C   UNL     1      -3.774  10.994  18.072  0.00  0.00    +0.000 A 
ATOM     29  C   UNL     1      -4.667  11.380  17.071  0.00  0.00    +0.000 A 
ATOM     30  C   UNL     1      -4.289  11.299  15.734  0.00  0.00    +0.000 A 
ATOM     31  C   UNL     1      -3.009  10.848  15.398  0.00  0.00    +0.000 A 
ATOM     32  C   UNL     1      -2.109  10.481  16.403  0.00  0.00    +0.000 A 
ENDBRANCH  26  27
ENDBRANCH  10  26
TORSDOF 5
ENDMDL
MODEL 7
REMARK VINA RESULT:      -6.4      2.594      5.670
REMARK  Name = 
REMARK  5 active torsions:
REMARK  status: ('A' for Active; 'I' for Inactive)
REMARK    1  A    between atoms: C_3  and  C_4
REMARK    2  A    between atoms: C_4  and  C_5
REMARK    3  A    between atoms: C_16  and  C_17
REMARK    4  A    between atoms: N_24  and  C_25
REMARK    5  A    between atoms: C_25  and  C_26
REMARK                            x       y       z     vdW  Elec       q    Type
REMARK                         _______ _______ _______ _____ _____    ______ ____
ROOT
ATOM      1  O   UNL     1      -0.518  13.639  18.430  0.00  0.00    +0.000 OA
ATOM      2  C   UNL     1      -1.286  13.848  19.375  0.00  0.00    +0.000 C 
ATOM      3  C   UNL     1      -1.842  15.274  19.665  0.00  0.00    +0.000 C 
ATOM      4  N   UNL     1      -2.954  15.372  20.647  0.00  0.00    +0.000 NA
ATOM      5  C   UNL     1      -2.783  14.927  22.017  0.00  0.00    +0.000 C 
ATOM      6  C   UNL     1      -1.480  15.291  22.638  0.00  0.00    +0.000 C 
ATOM      7  C   UNL     1      -0.469  14.441  22.867  0.00  0.00    +0.000 C 
ATOM      8  C   UNL     1      -0.506  12.958  22.617  0.00  0.00    +0.000 C 
ATOM      9  C   UNL     1      -0.380  12.461  21.143  0.00  0.00    +0.000 C 
ATOM     10  N   UNL     1      -1.544  12.847  20.301  0.00  0.00    +0.000 N 
ATOM     11  H   UNL     1      -3.767  14.912  20.248  0.00  0.00    +0.000 HD
ENDROOT
BRANCH   9  12
ATOM     12  C   UNL     1      -0.017  10.971  21.109  0.00  0.00    +0.000 A 
ATOM     13  C   UNL     1      -0.450  10.075  22.107  0.00  0.00    +0.000 A 
ATOM     14  C   UNL     1      -0.028   8.746  22.117  0.00  0.00    +0.000 A 
ATOM     15  C   UNL     1       0.811   8.284  21.110  0.00  0.00    +0.000 A 
ATOM     16 CL   UNL     1       1.361   6.653  21.145  0.00  0.00    +0.000 Cl
ATOM     17  C   UNL     1       1.211   9.136  20.083  0.00  0.00    +0.000 A 
ATOM     18  C   UNL     1       0.797  10.473  20.078  0.00  0.00    +0.000 A 
ENDBRANCH   9  12
BRANCH   3  19
ATOM     19  C   UNL     1      -0.631  16.229  19.849  0.00  0.00    +0.000 C 
BRANCH  19  20
ATOM     20  C   UNL     1      -0.143  17.103  18.712  0.00  0.00    +0.000 A 
ATOM     21  C   UNL     1      -0.965  17.940  17.952  0.00  0.00    +0.000 A 
ATOM     22  C   UNL     1      -0.458  18.629  16.846  0.00  0.00    +0.000 A 
ATOM     23  C   UNL     1       0.879  18.490  16.484  0.00  0.00    +0.000 A 
ATOM     24  C   UNL     1       1.721  17.693  17.252  0.00  0.00    +0.000 A 
ATOM     25  C   UNL     1       1.217  17.014  18.362  0.00  0.00    +0.000 A 
ENDBRANCH  19  20
ENDBRANCH   3  19
BRANCH  10  26
ATOM     26  C   UNL     1      -2.605  11.867  20.013  0.00  0.00    +0.000 C 
BRANCH  26  27
ATOM     27  C   UNL     1      -2.681  11.338  18.593  0.00  0.00    +0.000 A 
ATOM     28  C   UNL     1      -1.735  10.397  18.150  0.00  0.00    +0.000 A 
ATOM     29  C   UNL     1      -1.776   9.897  16.848  0.00  0.00    +0.000 A 
ATOM     30  C   UNL     1      -2.758  10.338  15.964  0.00  0.00    +0.000 A 
ATOM     31  C   UNL     1      -3.710  11.269  16.390  0.00  0.00    +0.000 A 
ATOM     32  C   UNL     1      -3.679  11.754  17.702  0.00  0.00    +0.000 A 
ENDBRANCH  26  27
ENDBRANCH  10  26
TORSDOF 5
ENDMDL
MODEL 8
REMARK VINA RESULT:      -6.3      2.593      5.657
REMARK  Name = 
REMARK  5 active torsions:
REMARK  status: ('A' for Active; 'I' for Inactive)
REMARK    1  A    between atoms: C_3  and  C_4
REMARK    2  A    between atoms: C_4  and  C_5
REMARK    3  A    between atoms: C_16  and  C_17
REMARK    4  A    between atoms: N_24  and  C_25
REMARK    5  A    between atoms: C_25  and  C_26
REMARK                            x       y       z     vdW  Elec       q    Type
REMARK                         _______ _______ _______ _____ _____    ______ ____
ROOT
ATOM      1  O   UNL     1       1.758  12.210  18.191  0.00  0.00    +0.000 OA
ATOM      2  C   UNL     1       0.602  12.112  18.614  0.00  0.00    +0.000 C 
ATOM      3  C   UNL     1      -0.249  13.374  18.943  0.00  0.00    +0.000 C 
ATOM      4  N   UNL     1      -1.699  13.157  19.189  0.00  0.00    +0.000 NA
ATOM      5  C   UNL     1      -2.156  12.305  20.270  0.00  0.00    +0.000 C 
ATOM      6  C   UNL     1      -1.408  12.457  21.548  0.00  0.00    +0.000 C 
ATOM      7  C   UNL     1      -0.517  11.578  22.031  0.00  0.00    +0.000 C 
ATOM      8  C   UNL     1      -0.184  10.249  21.411  0.00  0.00    +0.000 C 
ATOM      9  C   UNL     1       0.733  10.240  20.148  0.00  0.00    +0.000 C 
ATOM     10  N   UNL     1       0.089  10.870  18.963  0.00  0.00    +0.000 N 
ATOM     11  H   UNL     1      -2.123  12.846  18.320  0.00  0.00    +0.000 HD
ENDROOT
BRANCH   9  12
ATOM     12  C   UNL     1       1.303   8.837  19.909  0.00  0.00    +0.000 A 
ATOM     13  C   UNL     1       1.184   7.810  20.866  0.00  0.00    +0.000 A 
ATOM     14  C   UNL     1       1.796   6.571  20.678  0.00  0.00    +0.000 A 
ATOM     15  C   UNL     1       2.512   6.329  19.512  0.00  0.00    +0.000 A 
ATOM     16 CL   UNL     1       3.298   4.813  19.298  0.00  0.00    +0.000 Cl
ATOM     17  C   UNL     1       2.602   7.309  18.526  0.00  0.00    +0.000 A 
ATOM     18  C   UNL     1       1.997   8.557  18.720  0.00  0.00    +0.000 A 
ENDBRANCH   9  12
BRANCH   3  19
ATOM     19  C   UNL     1       0.539  14.224  19.978  0.00  0.00    +0.000 C 
BRANCH  19  20
ATOM     20  C   UNL     1       1.677  15.126  19.546  0.00  0.00    +0.000 A 
ATOM     21  C   UNL     1       1.588  16.071  18.520  0.00  0.00    +0.000 A 
ATOM     22  C   UNL     1       2.716  16.785  18.105  0.00  0.00    +0.000 A 
ATOM     23  C   UNL     1       3.949  16.564  18.711  0.00  0.00    +0.000 A 
ATOM     24  C   UNL     1       4.048  15.657  19.761  0.00  0.00    +0.000 A 
ATOM     25  C   UNL     1       2.920  14.952  20.181  0.00  0.00    +0.000 A 
ENDBRANCH  19  20
ENDBRANCH   3  19
BRANCH  10  26
ATOM     26  C   UNL     1      -0.515  10.030  17.916  0.00  0.00    +0.000 C 
BRANCH  26  27
ATOM     27  C   UNL     1      -1.933  10.374  17.496  0.00  0.00    +0.000 A 
ATOM     28  C   UNL     1      -3.017   9.920  18.268  0.00  0.00    +0.000 A 
ATOM     29  C   UNL     1      -4.331  10.215  17.903  0.00  0.00    +0.000 A 
ATOM     30  C   UNL     1      -4.582  10.962  16.754  0.00  0.00    +0.000 A 
ATOM     31  C   UNL     1      -3.516  11.426  15.979  0.00  0.00    +0.000 A 
ATOM     32  C   UNL     1      -2.199  11.146  16.357  0.00  0.00    +0.000 A 
ENDBRANCH  26  27
ENDBRANCH  10  26
TORSDOF 5
ENDMDL
MODEL 9
REMARK VINA RESULT:      -6.2      2.614      5.559
REMARK  Name = 
REMARK  5 active torsions:
REMARK  status: ('A' for Active; 'I' for Inactive)
REMARK    1  A    between atoms: C_3  and  C_4
REMARK    2  A    between atoms: C_4  and  C_5
REMARK    3  A    between atoms: C_16  and  C_17
REMARK    4  A    between atoms: N_24  and  C_25
REMARK    5  A    between atoms: C_25  and  C_26
REMARK                            x       y       z     vdW  Elec       q    Type
REMARK                         _______ _______ _______ _____ _____    ______ ____
ROOT
ATOM      1  O   UNL     1       1.626  12.312  18.114  0.00  0.00    +0.000 OA
ATOM      2  C   UNL     1       0.497  12.131  18.581  0.00  0.00    +0.000 C 
ATOM      3  C   UNL     1      -0.415  13.329  18.982  0.00  0.00    +0.000 C 
ATOM      4  N   UNL     1      -1.838  13.017  19.280  0.00  0.00    +0.000 NA
ATOM      5  C   UNL     1      -2.196  12.109  20.353  0.00  0.00    +0.000 C 
ATOM      6  C   UNL     1      -1.405  12.271  21.603  0.00  0.00    +0.000 C 
ATOM      7  C   UNL     1      -0.443  11.436  22.023  0.00  0.00    +0.000 C 
ATOM      8  C   UNL     1      -0.056  10.148  21.351  0.00  0.00    +0.000 C 
ATOM      9  C   UNL     1       0.805  10.230  20.051  0.00  0.00    +0.000 C 
ATOM     10  N   UNL     1       0.075  10.851  18.913  0.00  0.00    +0.000 N 
ATOM     11  H   UNL     1      -2.278  12.704  18.420  0.00  0.00    +0.000 HD
ENDROOT
BRANCH   9  12
ATOM     12  C   UNL     1       1.448   8.871  19.748  0.00  0.00    +0.000 A 
ATOM     13  C   UNL     1       2.090   8.607  18.522  0.00  0.00    +0.000 A 
ATOM     14  C   UNL     1       2.580   7.335  18.222  0.00  0.00    +0.000 A 
ATOM     15  C   UNL     1       2.462   6.316  19.158  0.00  0.00    +0.000 A 
ATOM     16 CL   UNL     1       3.033   4.739  18.771  0.00  0.00    +0.000 Cl
ATOM     17  C   UNL     1       1.878   6.564  20.399  0.00  0.00    +0.000 A 
ATOM     18  C   UNL     1       1.376   7.836  20.696  0.00  0.00    +0.000 A 
ENDBRANCH   9  12
BRANCH   3  19
ATOM     19  C   UNL     1       0.363  14.197  20.009  0.00  0.00    +0.000 C 
BRANCH  19  20
ATOM     20  C   UNL     1       1.454  15.149  19.562  0.00  0.00    +0.000 A 
ATOM     21  C   UNL     1       1.294  16.123  18.572  0.00  0.00    +0.000 A 
ATOM     22  C   UNL     1       2.381  16.886  18.136  0.00  0.00    +0.000 A 
ATOM     23  C   UNL     1       3.645  16.686  18.686  0.00  0.00    +0.000 A 
ATOM     24  C   UNL     1       3.815  15.750  19.700  0.00  0.00    +0.000 A 
ATOM     25  C   UNL     1       2.727  14.996  20.141  0.00  0.00    +0.000 A 
ENDBRANCH  19  20
ENDBRANCH   3  19
BRANCH  10  26
ATOM     26  C   UNL     1      -0.522  10.004  17.867  0.00  0.00    +0.000 C 
BRANCH  26  27
ATOM     27  C   UNL     1      -1.954  10.314  17.471  0.00  0.00    +0.000 A 
ATOM     28  C   UNL     1      -2.207  11.111  16.341  0.00  0.00    +0.000 A 
ATOM     29  C   UNL     1      -3.513  11.417  15.956  0.00  0.00    +0.000 A 
ATOM     30  C   UNL     1      -4.587  10.939  16.701  0.00  0.00    +0.000 A 
ATOM     31  C   UNL     1      -4.354  10.140  17.825  0.00  0.00    +0.000 A 
ATOM     32  C   UNL     1      -3.045   9.818  18.197  0.00  0.00    +0.000 A 
ENDBRANCH  26  27
ENDBRANCH  10  26
TORSDOF 5
ENDMDL
