MODEL 1
REMARK VINA RESULT:      -7.6      0.000      0.000
REMARK  Name = 
REMARK  11 active torsions:
REMARK  status: ('A' for Active; 'I' for Inactive)
REMARK    1  A    between atoms: C_1  and  C_2
REMARK    2  A    between atoms: C_2  and  C_3
REMARK    3  A    between atoms: C_3  and  C_4
REMARK    4  A    between atoms: C_3  and  C_6
REMARK    5  A    between atoms: C_4  and  C_5
REMARK    6  A    between atoms: C_6  and  C_7
REMARK    7  A    between atoms: C_6  and  N_23
REMARK    8  A    between atoms: C_7  and  N_8
REMARK    9  A    between atoms: N_11  and  C_12
REMARK   10  A    between atoms: C_14  and  S_15
REMARK   11  A    between atoms: S_15  and  C_16
REMARK                            x       y       z     vdW  Elec       q    Type
REMARK                         _______ _______ _______ _____ _____    ______ ____
ROOT
ATOM      1  N   UNL     1       1.589   8.680  19.266  0.00  0.00    +0.000 N 
ATOM      2  C   UNL     1       2.308   7.937  18.359  0.00  0.00    +0.000 C 
ATOM      3  O   UNL     1       2.592   8.391  17.260  0.00  0.00    +0.000 OA
ATOM      4  N   UNL     1       2.639   6.689  18.821  0.00  0.00    +0.000 N 
ATOM      5  H   UNL     1       1.337   8.278  20.153  0.00  0.00    +0.000 HD
ATOM      6  H   UNL     1       2.195   6.358  19.667  0.00  0.00    +0.000 HD
ENDROOT
BRANCH   4   7
ATOM      7  C   UNL     1       3.435   5.746  18.119  0.00  0.00    +0.000 A 
ATOM      8  C   UNL     1       4.784   5.983  17.845  0.00  0.00    +0.000 A 
ATOM      9  C   UNL     1       5.541   5.062  17.121  0.00  0.00    +0.000 A 
ATOM     10  C   UNL     1       4.982   3.860  16.692  0.00  0.00    +0.000 A 
ATOM     11  C   UNL     1       3.642   3.593  16.987  0.00  0.00    +0.000 A 
ATOM     12  C   UNL     1       2.874   4.528  17.693  0.00  0.00    +0.000 A 
ATOM     13 CL   UNL     1       1.213   4.158  18.000  0.00  0.00    +0.000 Cl
BRANCH   9  14
ATOM     14  S   UNL     1       7.232   5.465  16.781  0.00  0.00    +0.000 S 
ATOM     15  C   UNL     1       7.546   6.936  17.723  0.00  0.00    +0.000 C 
ATOM     16  O   UNL     1       8.042   4.382  17.316  0.00  0.00    +0.000 OA
ATOM     17  O   UNL     1       7.315   5.825  15.378  0.00  0.00    +0.000 OA
ENDBRANCH   9  14
ENDBRANCH   4   7
BRANCH   1  18
ATOM     18  C   UNL     1       1.285  10.069  18.954  0.00  0.00    +0.000 C 
BRANCH  18  19
ATOM     19  C   UNL     1      -0.170  10.522  19.237  0.00  0.00    +0.000 C 
BRANCH  19  20
ATOM     20  N   UNL     1      -0.948  10.947  18.040  0.00  0.00    +0.000 NA
ATOM     21  C   UNL     1      -1.972  11.972  18.325  0.00  0.00    +0.000 C 
ATOM     22  C   UNL     1      -3.293  11.235  18.478  0.00  0.00    +0.000 C 
ATOM     23  C   UNL     1      -3.153  10.041  17.560  0.00  0.00    +0.000 C 
ATOM     24  C   UNL     1      -1.660   9.918  17.276  0.00  0.00    +0.000 C 
ENDBRANCH  19  20
BRANCH  19  25
ATOM     25  C   UNL     1      -0.267  11.487  20.484  0.00  0.00    +0.000 C 
BRANCH  25  27
ATOM     26  C   UNL     1       0.691  13.859  20.089  0.00  0.00    +0.000 C 
ATOM     27  C   UNL     1       0.936  12.451  20.620  0.00  0.00    +0.000 C 
ENDBRANCH  25  27
BRANCH  25  28
ATOM     28  C   UNL     1      -0.542  10.768  21.825  0.00  0.00    +0.000 C 
ATOM     29  C   UNL     1      -1.439  11.538  22.786  0.00  0.00    +0.000 C 
ENDBRANCH  25  28
ENDBRANCH  19  25
ENDBRANCH  18  19
ENDBRANCH   1  18
TORSDOF 8
ENDMDL
MODEL 2
REMARK VINA RESULT:      -7.3      3.669      8.730
REMARK  Name = 
REMARK  11 active torsions:
REMARK  status: ('A' for Active; 'I' for Inactive)
REMARK    1  A    between atoms: C_1  and  C_2
REMARK    2  A    between atoms: C_2  and  C_3
REMARK    3  A    between atoms: C_3  and  C_4
REMARK    4  A    between atoms: C_3  and  C_6
REMARK    5  A    between atoms: C_4  and  C_5
REMARK    6  A    between atoms: C_6  and  C_7
REMARK    7  A    between atoms: C_6  and  N_23
REMARK    8  A    between atoms: C_7  and  N_8
REMARK    9  A    between atoms: N_11  and  C_12
REMARK   10  A    between atoms: C_14  and  S_15
REMARK   11  A    between atoms: S_15  and  C_16
REMARK                            x       y       z     vdW  Elec       q    Type
REMARK                         _______ _______ _______ _____ _____    ______ ____
ROOT
ATOM      1  N   UNL     1       2.504   8.287  17.649  0.00  0.00    +0.000 N 
ATOM      2  C   UNL     1       1.622   8.883  18.520  0.00  0.00    +0.000 C 
ATOM      3  O   UNL     1       1.654   8.631  19.716  0.00  0.00    +0.000 OA
ATOM      4  N   UNL     1       0.749   9.743  17.905  0.00  0.00    +0.000 N 
ATOM      5  H   UNL     1       2.441   8.482  16.663  0.00  0.00    +0.000 HD
ATOM      6  H   UNL     1       0.696   9.730  16.895  0.00  0.00    +0.000 HD
ENDROOT
BRANCH   4   7
ATOM      7  C   UNL     1      -0.217  10.540  18.574  0.00  0.00    +0.000 A 
ATOM      8  C   UNL     1       0.088  11.228  19.750  0.00  0.00    +0.000 A 
ATOM      9  C   UNL     1      -0.884  11.976  20.415  0.00  0.00    +0.000 A 
ATOM     10  C   UNL     1      -2.172  12.092  19.898  0.00  0.00    +0.000 A 
ATOM     11  C   UNL     1      -2.484  11.436  18.704  0.00  0.00    +0.000 A 
ATOM     12  C   UNL     1      -1.516  10.665  18.048  0.00  0.00    +0.000 A 
ATOM     13 CL   UNL     1      -1.968   9.849  16.592  0.00  0.00    +0.000 Cl
BRANCH   9  14
ATOM     14  S   UNL     1      -0.421  12.780  21.925  0.00  0.00    +0.000 S 
ATOM     15  C   UNL     1      -1.615  14.077  22.131  0.00  0.00    +0.000 C 
ATOM     16  O   UNL     1      -0.592  11.809  22.993  0.00  0.00    +0.000 OA
ATOM     17  O   UNL     1       0.867  13.411  21.699  0.00  0.00    +0.000 OA
ENDBRANCH   9  14
ENDBRANCH   4   7
BRANCH   1  18
ATOM     18  C   UNL     1       3.568   7.452  18.187  0.00  0.00    +0.000 C 
BRANCH  18  19
ATOM     19  C   UNL     1       3.948   6.212  17.338  0.00  0.00    +0.000 C 
BRANCH  19  20
ATOM     20  N   UNL     1       3.771   4.899  18.018  0.00  0.00    +0.000 NA
ATOM     21  C   UNL     1       2.868   3.973  17.304  0.00  0.00    +0.000 C 
ATOM     22  C   UNL     1       1.507   4.097  17.969  0.00  0.00    +0.000 C 
ATOM     23  C   UNL     1       1.832   4.430  19.408  0.00  0.00    +0.000 C 
ATOM     24  C   UNL     1       3.284   4.895  19.400  0.00  0.00    +0.000 C 
ENDBRANCH  19  20
BRANCH  19  25
ATOM     25  C   UNL     1       5.320   6.401  16.578  0.00  0.00    +0.000 C 
BRANCH  25  27
ATOM     26  C   UNL     1       6.293   4.282  15.452  0.00  0.00    +0.000 C 
ATOM     27  C   UNL     1       5.446   5.541  15.297  0.00  0.00    +0.000 C 
ENDBRANCH  25  27
BRANCH  25  28
ATOM     28  C   UNL     1       6.571   6.231  17.471  0.00  0.00    +0.000 C 
ATOM     29  C   UNL     1       7.508   7.431  17.486  0.00  0.00    +0.000 C 
ENDBRANCH  25  28
ENDBRANCH  19  25
ENDBRANCH  18  19
ENDBRANCH   1  18
TORSDOF 8
ENDMDL
MODEL 3
REMARK VINA RESULT:      -7.2      0.749      1.152
REMARK  Name = 
REMARK  11 active torsions:
REMARK  status: ('A' for Active; 'I' for Inactive)
REMARK    1  A    between atoms: C_1  and  C_2
REMARK    2  A    between atoms: C_2  and  C_3
REMARK    3  A    between atoms: C_3  and  C_4
REMARK    4  A    between atoms: C_3  and  C_6
REMARK    5  A    between atoms: C_4  and  C_5
REMARK    6  A    between atoms: C_6  and  C_7
REMARK    7  A    between atoms: C_6  and  N_23
REMARK    8  A    between atoms: C_7  and  N_8
REMARK    9  A    between atoms: N_11  and  C_12
REMARK   10  A    between atoms: C_14  and  S_15
REMARK   11  A    between atoms: S_15  and  C_16
REMARK                            x       y       z     vdW  Elec       q    Type
REMARK                         _______ _______ _______ _____ _____    ______ ____
ROOT
ATOM      1  N   UNL     1       1.889   8.789  19.259  0.00  0.00    +0.000 N 
ATOM      2  C   UNL     1       2.425   7.928  18.330  0.00  0.00    +0.000 C 
ATOM      3  O   UNL     1       2.437   8.215  17.141  0.00  0.00    +0.000 OA
ATOM      4  N   UNL     1       2.911   6.770  18.880  0.00  0.00    +0.000 N 
ATOM      5  H   UNL     1       1.858   8.522  20.229  0.00  0.00    +0.000 HD
ATOM      6  H   UNL     1       2.681   6.563  19.842  0.00  0.00    +0.000 HD
ENDROOT
BRANCH   4   7
ATOM      7  C   UNL     1       3.577   5.743  18.160  0.00  0.00    +0.000 A 
ATOM      8  C   UNL     1       4.883   5.904  17.692  0.00  0.00    +0.000 A 
ATOM      9  C   UNL     1       5.508   4.899  16.954  0.00  0.00    +0.000 A 
ATOM     10  C   UNL     1       4.862   3.692  16.703  0.00  0.00    +0.000 A 
ATOM     11  C   UNL     1       3.566   3.502  17.192  0.00  0.00    +0.000 A 
ATOM     12  C   UNL     1       2.928   4.519  17.913  0.00  0.00    +0.000 A 
ATOM     13 CL   UNL     1       1.313   4.242  18.465  0.00  0.00    +0.000 Cl
BRANCH   9  14
ATOM     14  S   UNL     1       7.150   5.206  16.362  0.00  0.00    +0.000 S 
ATOM     15  C   UNL     1       7.093   4.801  14.635  0.00  0.00    +0.000 C 
ATOM     16  O   UNL     1       7.393   6.633  16.503  0.00  0.00    +0.000 OA
ATOM     17  O   UNL     1       8.026   4.242  17.003  0.00  0.00    +0.000 OA
ENDBRANCH   9  14
ENDBRANCH   4   7
BRANCH   1  18
ATOM     18  C   UNL     1       1.456  10.110  18.826  0.00  0.00    +0.000 C 
BRANCH  18  19
ATOM     19  C   UNL     1      -0.009  10.485  19.166  0.00  0.00    +0.000 C 
BRANCH  19  20
ATOM     20  N   UNL     1      -0.842  10.909  18.006  0.00  0.00    +0.000 NA
ATOM     21  C   UNL     1      -1.762  12.024  18.306  0.00  0.00    +0.000 C 
ATOM     22  C   UNL     1      -3.119  11.401  18.594  0.00  0.00    +0.000 C 
ATOM     23  C   UNL     1      -3.138  10.156  17.737  0.00  0.00    +0.000 C 
ATOM     24  C   UNL     1      -1.684   9.902  17.354  0.00  0.00    +0.000 C 
ENDBRANCH  19  20
BRANCH  19  25
ATOM     25  C   UNL     1      -0.113  11.406  20.445  0.00  0.00    +0.000 C 
BRANCH  25  27
ATOM     26  C   UNL     1       0.959  13.757  20.622  0.00  0.00    +0.000 C 
ATOM     27  C   UNL     1       1.159  12.248  20.711  0.00  0.00    +0.000 C 
ENDBRANCH  25  27
BRANCH  25  28
ATOM     28  C   UNL     1      -0.552  10.665  21.730  0.00  0.00    +0.000 C 
ATOM     29  C   UNL     1      -0.493   9.146  21.638  0.00  0.00    +0.000 C 
ENDBRANCH  25  28
ENDBRANCH  19  25
ENDBRANCH  18  19
ENDBRANCH   1  18
TORSDOF 8
ENDMDL
MODEL 4
REMARK VINA RESULT:      -7.2      3.746      9.028
REMARK  Name = 
REMARK  11 active torsions:
REMARK  status: ('A' for Active; 'I' for Inactive)
REMARK    1  A    between atoms: C_1  and  C_2
REMARK    2  A    between atoms: C_2  and  C_3
REMARK    3  A    between atoms: C_3  and  C_4
REMARK    4  A    between atoms: C_3  and  C_6
REMARK    5  A    between atoms: C_4  and  C_5
REMARK    6  A    between atoms: C_6  and  C_7
REMARK    7  A    between atoms: C_6  and  N_23
REMARK    8  A    between atoms: C_7  and  N_8
REMARK    9  A    between atoms: N_11  and  C_12
REMARK   10  A    between atoms: C_14  and  S_15
REMARK   11  A    between atoms: S_15  and  C_16
REMARK                            x       y       z     vdW  Elec       q    Type
REMARK                         _______ _______ _______ _____ _____    ______ ____
ROOT
ATOM      1  N   UNL     1       2.534   7.854  18.832  0.00  0.00    +0.000 N 
ATOM      2  C   UNL     1       1.773   8.926  18.427  0.00  0.00    +0.000 C 
ATOM      3  O   UNL     1       1.935   9.429  17.324  0.00  0.00    +0.000 OA
ATOM      4  N   UNL     1       0.867   9.337  19.370  0.00  0.00    +0.000 N 
ATOM      5  H   UNL     1       2.409   7.474  19.756  0.00  0.00    +0.000 HD
ATOM      6  H   UNL     1       0.950   8.967  20.307  0.00  0.00    +0.000 HD
ENDROOT
BRANCH   4   7
ATOM      7  C   UNL     1      -0.087  10.372  19.186  0.00  0.00    +0.000 A 
ATOM      8  C   UNL     1      -1.269  10.163  18.471  0.00  0.00    +0.000 A 
ATOM      9  C   UNL     1      -2.176  11.203  18.268  0.00  0.00    +0.000 A 
ATOM     10  C   UNL     1      -1.949  12.464  18.812  0.00  0.00    +0.000 A 
ATOM     11  C   UNL     1      -0.787  12.681  19.557  0.00  0.00    +0.000 A 
ATOM     12  C   UNL     1       0.138  11.645  19.742  0.00  0.00    +0.000 A 
ATOM     13 CL   UNL     1       1.574  11.980  20.645  0.00  0.00    +0.000 Cl
BRANCH   9  14
ATOM     14  S   UNL     1      -3.628  10.859  17.312  0.00  0.00    +0.000 S 
ATOM     15  C   UNL     1      -3.081  10.906  15.624  0.00  0.00    +0.000 C 
ATOM     16  O   UNL     1      -4.039   9.503  17.636  0.00  0.00    +0.000 OA
ATOM     17  O   UNL     1      -4.541  11.972  17.501  0.00  0.00    +0.000 OA
ENDBRANCH   9  14
ENDBRANCH   4   7
BRANCH   1  18
ATOM     18  C   UNL     1       3.445   7.236  17.879  0.00  0.00    +0.000 C 
BRANCH  18  19
ATOM     19  C   UNL     1       3.970   5.829  18.262  0.00  0.00    +0.000 C 
BRANCH  19  20
ATOM     20  N   UNL     1       5.189   5.386  17.529  0.00  0.00    +0.000 NA
ATOM     21  C   UNL     1       6.217   4.774  18.395  0.00  0.00    +0.000 C 
ATOM     22  C   UNL     1       7.232   5.864  18.699  0.00  0.00    +0.000 C 
ATOM     23  C   UNL     1       7.207   6.741  17.467  0.00  0.00    +0.000 C 
ATOM     24  C   UNL     1       5.919   6.378  16.735  0.00  0.00    +0.000 C 
ENDBRANCH  19  20
BRANCH  19  25
ATOM     25  C   UNL     1       2.811   4.760  18.357  0.00  0.00    +0.000 C 
BRANCH  25  27
ATOM     26  C   UNL     1       1.400   4.644  20.524  0.00  0.00    +0.000 C 
ATOM     27  C   UNL     1       2.634   4.158  19.772  0.00  0.00    +0.000 C 
ENDBRANCH  25  27
BRANCH  25  28
ATOM     28  C   UNL     1       2.892   3.638  17.296  0.00  0.00    +0.000 C 
ATOM     29  C   UNL     1       2.441   2.268  17.785  0.00  0.00    +0.000 C 
ENDBRANCH  25  28
ENDBRANCH  19  25
ENDBRANCH  18  19
ENDBRANCH   1  18
TORSDOF 8
ENDMDL
MODEL 5
REMARK VINA RESULT:      -7.1      3.657      8.647
REMARK  Name = 
REMARK  11 active torsions:
REMARK  status: ('A' for Active; 'I' for Inactive)
REMARK    1  A    between atoms: C_1  and  C_2
REMARK    2  A    between atoms: C_2  and  C_3
REMARK    3  A    between atoms: C_3  and  C_4
REMARK    4  A    between atoms: C_3  and  C_6
REMARK    5  A    between atoms: C_4  and  C_5
REMARK    6  A    between atoms: C_6  and  C_7
REMARK    7  A    between atoms: C_6  and  N_23
REMARK    8  A    between atoms: C_7  and  N_8
REMARK    9  A    between atoms: N_11  and  C_12
REMARK   10  A    between atoms: C_14  and  S_15
REMARK   11  A    between atoms: S_15  and  C_16
REMARK                            x       y       z     vdW  Elec       q    Type
REMARK                         _______ _______ _______ _____ _____    ______ ____
ROOT
ATOM      1  N   UNL     1       2.062   7.683  18.925  0.00  0.00    +0.000 N 
ATOM      2  C   UNL     1       1.836   9.003  18.609  0.00  0.00    +0.000 C 
ATOM      3  O   UNL     1       2.365   9.513  17.632  0.00  0.00    +0.000 OA
ATOM      4  N   UNL     1       0.994   9.635  19.488  0.00  0.00    +0.000 N 
ATOM      5  H   UNL     1       1.644   7.289  19.751  0.00  0.00    +0.000 HD
ATOM      6  H   UNL     1       0.768   9.167  20.355  0.00  0.00    +0.000 HD
ENDROOT
BRANCH   4   7
ATOM      7  C   UNL     1       0.540  10.973  19.359  0.00  0.00    +0.000 A 
ATOM      8  C   UNL     1       1.162  12.028  20.031  0.00  0.00    +0.000 A 
ATOM      9  C   UNL     1       0.678  13.331  19.923  0.00  0.00    +0.000 A 
ATOM     10  C   UNL     1      -0.411  13.622  19.105  0.00  0.00    +0.000 A 
ATOM     11  C   UNL     1      -1.025  12.583  18.400  0.00  0.00    +0.000 A 
ATOM     12  C   UNL     1      -0.556  11.270  18.527  0.00  0.00    +0.000 A 
ATOM     13 CL   UNL     1      -1.375  10.020  17.656  0.00  0.00    +0.000 Cl
BRANCH   9  14
ATOM     14  S   UNL     1       1.502  14.600  20.846  0.00  0.00    +0.000 S 
ATOM     15  C   UNL     1       3.230  14.228  20.683  0.00  0.00    +0.000 C 
ATOM     16  O   UNL     1       1.227  15.860  20.174  0.00  0.00    +0.000 OA
ATOM     17  O   UNL     1       1.150  14.415  22.241  0.00  0.00    +0.000 OA
ENDBRANCH   9  14
ENDBRANCH   4   7
BRANCH   1  18
ATOM     18  C   UNL     1       2.833   6.861  18.003  0.00  0.00    +0.000 C 
BRANCH  18  19
ATOM     19  C   UNL     1       3.885   5.925  18.651  0.00  0.00    +0.000 C 
BRANCH  19  20
ATOM     20  N   UNL     1       5.229   5.940  18.010  0.00  0.00    +0.000 NA
ATOM     21  C   UNL     1       5.233   6.500  16.643  0.00  0.00    +0.000 C 
ATOM     22  C   UNL     1       5.186   5.316  15.690  0.00  0.00    +0.000 C 
ATOM     23  C   UNL     1       5.913   4.219  16.434  0.00  0.00    +0.000 C 
ATOM     24  C   UNL     1       5.954   4.672  17.889  0.00  0.00    +0.000 C 
ENDBRANCH  19  20
BRANCH  19  25
ATOM     25  C   UNL     1       3.302   4.492  18.966  0.00  0.00    +0.000 C 
BRANCH  25  27
ATOM     26  C   UNL     1       2.513   2.501  17.510  0.00  0.00    +0.000 C 
ATOM     27  C   UNL     1       2.324   3.967  17.887  0.00  0.00    +0.000 C 
ENDBRANCH  25  27
BRANCH  25  28
ATOM     28  C   UNL     1       2.681   4.352  20.376  0.00  0.00    +0.000 C 
ATOM     29  C   UNL     1       1.160   4.414  20.408  0.00  0.00    +0.000 C 
ENDBRANCH  25  28
ENDBRANCH  19  25
ENDBRANCH  18  19
ENDBRANCH   1  18
TORSDOF 8
ENDMDL
MODEL 6
REMARK VINA RESULT:      -7.1      3.745      8.933
REMARK  Name = 
REMARK  11 active torsions:
REMARK  status: ('A' for Active; 'I' for Inactive)
REMARK    1  A    between atoms: C_1  and  C_2
REMARK    2  A    between atoms: C_2  and  C_3
REMARK    3  A    between atoms: C_3  and  C_4
REMARK    4  A    between atoms: C_3  and  C_6
REMARK    5  A    between atoms: C_4  and  C_5
REMARK    6  A    between atoms: C_6  and  C_7
REMARK    7  A    between atoms: C_6  and  N_23
REMARK    8  A    between atoms: C_7  and  N_8
REMARK    9  A    between atoms: N_11  and  C_12
REMARK   10  A    between atoms: C_14  and  S_15
REMARK   11  A    between atoms: S_15  and  C_16
REMARK                            x       y       z     vdW  Elec       q    Type
REMARK                         _______ _______ _______ _____ _____    ______ ____
ROOT
ATOM      1  N   UNL     1       2.607   7.796  18.862  0.00  0.00    +0.000 N 
ATOM      2  C   UNL     1       1.810   8.821  18.410  0.00  0.00    +0.000 C 
ATOM      3  O   UNL     1       1.840   9.168  17.237  0.00  0.00    +0.000 OA
ATOM      4  N   UNL     1       1.028   9.374  19.390  0.00  0.00    +0.000 N 
ATOM      5  H   UNL     1       2.594   7.545  19.837  0.00  0.00    +0.000 HD
ATOM      6  H   UNL     1       1.222   9.131  20.352  0.00  0.00    +0.000 HD
ENDROOT
BRANCH   4   7
ATOM      7  C   UNL     1       0.066  10.397  19.184  0.00  0.00    +0.000 A 
ATOM      8  C   UNL     1      -1.117  10.161  18.480  0.00  0.00    +0.000 A 
ATOM      9  C   UNL     1      -2.033  11.189  18.254  0.00  0.00    +0.000 A 
ATOM     10  C   UNL     1      -1.813  12.465  18.765  0.00  0.00    +0.000 A 
ATOM     11  C   UNL     1      -0.650  12.710  19.500  0.00  0.00    +0.000 A 
ATOM     12  C   UNL     1       0.283  11.686  19.707  0.00  0.00    +0.000 A 
ATOM     13 CL   UNL     1       1.720  12.054  20.596  0.00  0.00    +0.000 Cl
BRANCH   9  14
ATOM     14  S   UNL     1      -3.486  10.810  17.312  0.00  0.00    +0.000 S 
ATOM     15  C   UNL     1      -2.965  10.904  15.618  0.00  0.00    +0.000 C 
ATOM     16  O   UNL     1      -3.844   9.435  17.619  0.00  0.00    +0.000 OA
ATOM     17  O   UNL     1      -4.434  11.887  17.533  0.00  0.00    +0.000 OA
ENDBRANCH   9  14
ENDBRANCH   4   7
BRANCH   1  18
ATOM     18  C   UNL     1       3.391   7.035  17.899  0.00  0.00    +0.000 C 
BRANCH  18  19
ATOM     19  C   UNL     1       4.271   5.904  18.488  0.00  0.00    +0.000 C 
BRANCH  19  20
ATOM     20  N   UNL     1       5.498   5.582  17.706  0.00  0.00    +0.000 NA
ATOM     21  C   UNL     1       6.529   4.862  18.482  0.00  0.00    +0.000 C 
ATOM     22  C   UNL     1       7.531   5.908  18.945  0.00  0.00    +0.000 C 
ATOM     23  C   UNL     1       7.502   6.952  17.850  0.00  0.00    +0.000 C 
ATOM     24  C   UNL     1       6.222   6.685  17.067  0.00  0.00    +0.000 C 
ENDBRANCH  19  20
BRANCH  19  25
ATOM     25  C   UNL     1       3.418   4.658  18.951  0.00  0.00    +0.000 C 
BRANCH  25  27
ATOM     26  C   UNL     1       2.433   2.818  17.418  0.00  0.00    +0.000 C 
ATOM     27  C   UNL     1       2.319   4.246  17.942  0.00  0.00    +0.000 C 
ENDBRANCH  25  27
BRANCH  25  28
ATOM     28  C   UNL     1       2.829   4.784  20.375  0.00  0.00    +0.000 C 
ATOM     29  C   UNL     1       1.321   4.589  20.457  0.00  0.00    +0.000 C 
ENDBRANCH  25  28
ENDBRANCH  19  25
ENDBRANCH  18  19
ENDBRANCH   1  18
TORSDOF 8
ENDMDL
MODEL 7
REMARK VINA RESULT:      -7.1      0.951      1.058
REMARK  Name = 
REMARK  11 active torsions:
REMARK  status: ('A' for Active; 'I' for Inactive)
REMARK    1  A    between atoms: C_1  and  C_2
REMARK    2  A    between atoms: C_2  and  C_3
REMARK    3  A    between atoms: C_3  and  C_4
REMARK    4  A    between atoms: C_3  and  C_6
REMARK    5  A    between atoms: C_4  and  C_5
REMARK    6  A    between atoms: C_6  and  C_7
REMARK    7  A    between atoms: C_6  and  N_23
REMARK    8  A    between atoms: C_7  and  N_8
REMARK    9  A    between atoms: N_11  and  C_12
REMARK   10  A    between atoms: C_14  and  S_15
REMARK   11  A    between atoms: S_15  and  C_16
REMARK                            x       y       z     vdW  Elec       q    Type
REMARK                         _______ _______ _______ _____ _____    ______ ____
ROOT
ATOM      1  N   UNL     1       1.524   8.718  19.595  0.00  0.00    +0.000 N 
ATOM      2  C   UNL     1       2.309   7.817  18.914  0.00  0.00    +0.000 C 
ATOM      3  O   UNL     1       2.619   8.010  17.747  0.00  0.00    +0.000 OA
ATOM      4  N   UNL     1       2.671   6.732  19.671  0.00  0.00    +0.000 N 
ATOM      5  H   UNL     1       1.251   8.526  20.545  0.00  0.00    +0.000 HD
ATOM      6  H   UNL     1       2.206   6.590  20.558  0.00  0.00    +0.000 HD
ENDROOT
BRANCH   4   7
ATOM      7  C   UNL     1       3.533   5.690  19.240  0.00  0.00    +0.000 A 
ATOM      8  C   UNL     1       4.898   5.903  19.036  0.00  0.00    +0.000 A 
ATOM      9  C   UNL     1       5.722   4.876  18.576  0.00  0.00    +0.000 A 
ATOM     10  C   UNL     1       5.213   3.600  18.350  0.00  0.00    +0.000 A 
ATOM     11  C   UNL     1       3.855   3.362  18.580  0.00  0.00    +0.000 A 
ATOM     12  C   UNL     1       3.021   4.397  19.020  0.00  0.00    +0.000 A 
ATOM     13 CL   UNL     1       1.343   4.053  19.256  0.00  0.00    +0.000 Cl
BRANCH   9  14
ATOM     14  S   UNL     1       7.433   5.247  18.303  0.00  0.00    +0.000 S 
ATOM     15  C   UNL     1       7.443   6.909  17.681  0.00  0.00    +0.000 C 
ATOM     16  O   UNL     1       8.084   5.228  19.603  0.00  0.00    +0.000 OA
ATOM     17  O   UNL     1       7.896   4.383  17.233  0.00  0.00    +0.000 OA
ENDBRANCH   9  14
ENDBRANCH   4   7
BRANCH   1  18
ATOM     18  C   UNL     1       1.176   9.976  18.950  0.00  0.00    +0.000 C 
BRANCH  18  19
ATOM     19  C   UNL     1      -0.208  10.566  19.322  0.00  0.00    +0.000 C 
BRANCH  19  20
ATOM     20  N   UNL     1      -1.014  11.066  18.173  0.00  0.00    +0.000 NA
ATOM     21  C   UNL     1      -2.001  12.102  18.542  0.00  0.00    +0.000 C 
ATOM     22  C   UNL     1      -3.335  11.391  18.705  0.00  0.00    +0.000 C 
ATOM     23  C   UNL     1      -3.257  10.239  17.728  0.00  0.00    +0.000 C 
ATOM     24  C   UNL     1      -1.778  10.094  17.387  0.00  0.00    +0.000 C 
ENDBRANCH  19  20
BRANCH  19  25
ATOM     25  C   UNL     1      -0.135  11.532  20.569  0.00  0.00    +0.000 C 
BRANCH  25  27
ATOM     26  C   UNL     1       1.037  13.745  19.909  0.00  0.00    +0.000 C 
ATOM     27  C   UNL     1       1.149  12.396  20.613  0.00  0.00    +0.000 C 
ENDBRANCH  25  27
BRANCH  25  28
ATOM     28  C   UNL     1      -0.366  10.834  21.929  0.00  0.00    +0.000 C 
ATOM     29  C   UNL     1      -1.532  11.389  22.737  0.00  0.00    +0.000 C 
ENDBRANCH  25  28
ENDBRANCH  19  25
ENDBRANCH  18  19
ENDBRANCH   1  18
TORSDOF 8
ENDMDL
MODEL 8
REMARK VINA RESULT:      -7.0      1.493      3.065
REMARK  Name = 
REMARK  11 active torsions:
REMARK  status: ('A' for Active; 'I' for Inactive)
REMARK    1  A    between atoms: C_1  and  C_2
REMARK    2  A    between atoms: C_2  and  C_3
REMARK    3  A    between atoms: C_3  and  C_4
REMARK    4  A    between atoms: C_3  and  C_6
REMARK    5  A    between atoms: C_4  and  C_5
REMARK    6  A    between atoms: C_6  and  C_7
REMARK    7  A    between atoms: C_6  and  N_23
REMARK    8  A    between atoms: C_7  and  N_8
REMARK    9  A    between atoms: N_11  and  C_12
REMARK   10  A    between atoms: C_14  and  S_15
REMARK   11  A    between atoms: S_15  and  C_16
REMARK                            x       y       z     vdW  Elec       q    Type
REMARK                         _______ _______ _______ _____ _____    ______ ____
ROOT
ATOM      1  N   UNL     1       1.223   8.922  18.722  0.00  0.00    +0.000 N 
ATOM      2  C   UNL     1       1.997   7.835  19.053  0.00  0.00    +0.000 C 
ATOM      3  O   UNL     1       1.988   7.381  20.189  0.00  0.00    +0.000 OA
ATOM      4  N   UNL     1       2.743   7.360  18.005  0.00  0.00    +0.000 N 
ATOM      5  H   UNL     1       1.268   9.303  17.791  0.00  0.00    +0.000 HD
ATOM      6  H   UNL     1       2.809   7.925  17.170  0.00  0.00    +0.000 HD
ENDROOT
BRANCH   4   7
ATOM      7  C   UNL     1       3.574   6.210  18.053  0.00  0.00    +0.000 A 
ATOM      8  C   UNL     1       4.946   6.305  18.294  0.00  0.00    +0.000 A 
ATOM      9  C   UNL     1       5.753   5.167  18.299  0.00  0.00    +0.000 A 
ATOM     10  C   UNL     1       5.203   3.901  18.109  0.00  0.00    +0.000 A 
ATOM     11  C   UNL     1       3.826   3.786  17.900  0.00  0.00    +0.000 A 
ATOM     12  C   UNL     1       3.018   4.930  17.870  0.00  0.00    +0.000 A 
ATOM     13 CL   UNL     1       1.325   4.730  17.574  0.00  0.00    +0.000 Cl
BRANCH   9  14
ATOM     14  S   UNL     1       7.491   5.385  18.569  0.00  0.00    +0.000 S 
ATOM     15  C   UNL     1       7.834   7.032  18.003  0.00  0.00    +0.000 C 
ATOM     16  O   UNL     1       7.708   5.326  20.005  0.00  0.00    +0.000 OA
ATOM     17  O   UNL     1       8.182   4.470  17.679  0.00  0.00    +0.000 OA
ENDBRANCH   9  14
ENDBRANCH   4   7
BRANCH   1  18
ATOM     18  C   UNL     1       0.286   9.445  19.706  0.00  0.00    +0.000 C 
BRANCH  18  19
ATOM     19  C   UNL     1       0.466  10.937  20.084  0.00  0.00    +0.000 C 
BRANCH  19  20
ATOM     20  N   UNL     1       0.619  11.209  21.540  0.00  0.00    +0.000 NA
ATOM     21  C   UNL     1       0.766   9.991  22.364  0.00  0.00    +0.000 C 
ATOM     22  C   UNL     1      -0.611   9.682  22.931  0.00  0.00    +0.000 C 
ATOM     23  C   UNL     1      -1.259  11.041  23.077  0.00  0.00    +0.000 C 
ATOM     24  C   UNL     1      -0.427  11.984  22.214  0.00  0.00    +0.000 C 
ENDBRANCH  19  20
BRANCH  19  25
ATOM     25  C   UNL     1      -0.551  11.877  19.324  0.00  0.00    +0.000 C 
BRANCH  25  27
ATOM     26  C   UNL     1      -2.993  11.685  18.486  0.00  0.00    +0.000 C 
ATOM     27  C   UNL     1      -1.581  11.110  18.459  0.00  0.00    +0.000 C 
ENDBRANCH  25  27
BRANCH  25  28
ATOM     28  C   UNL     1       0.117  13.003  18.501  0.00  0.00    +0.000 C 
ATOM     29  C   UNL     1      -0.139  14.410  19.026  0.00  0.00    +0.000 C 
ENDBRANCH  25  28
ENDBRANCH  19  25
ENDBRANCH  18  19
ENDBRANCH   1  18
TORSDOF 8
ENDMDL
MODEL 9
REMARK VINA RESULT:      -7.0      3.661      8.685
REMARK  Name = 
REMARK  11 active torsions:
REMARK  status: ('A' for Active; 'I' for Inactive)
REMARK    1  A    between atoms: C_1  and  C_2
REMARK    2  A    between atoms: C_2  and  C_3
REMARK    3  A    between atoms: C_3  and  C_4
REMARK    4  A    between atoms: C_3  and  C_6
REMARK    5  A    between atoms: C_4  and  C_5
REMARK    6  A    between atoms: C_6  and  C_7
REMARK    7  A    between atoms: C_6  and  N_23
REMARK    8  A    between atoms: C_7  and  N_8
REMARK    9  A    between atoms: N_11  and  C_12
REMARK   10  A    between atoms: C_14  and  S_15
REMARK   11  A    between atoms: S_15  and  C_16
REMARK                            x       y       z     vdW  Elec       q    Type
REMARK                         _______ _______ _______ _____ _____    ______ ____
ROOT
ATOM      1  N   UNL     1       1.865   7.722  19.417  0.00  0.00    +0.000 N 
ATOM      2  C   UNL     1       1.693   9.011  18.969  0.00  0.00    +0.000 C 
ATOM      3  O   UNL     1       2.207   9.387  17.925  0.00  0.00    +0.000 OA
ATOM      4  N   UNL     1       0.919   9.777  19.803  0.00  0.00    +0.000 N 
ATOM      5  H   UNL     1       1.461   7.440  20.295  0.00  0.00    +0.000 HD
ATOM      6  H   UNL     1       0.704   9.416  20.722  0.00  0.00    +0.000 HD
ENDROOT
BRANCH   4   7
ATOM      7  C   UNL     1       0.527  11.117  19.547  0.00  0.00    +0.000 A 
ATOM      8  C   UNL     1       1.147  12.196  20.180  0.00  0.00    +0.000 A 
ATOM      9  C   UNL     1       0.723  13.505  19.945  0.00  0.00    +0.000 A 
ATOM     10  C   UNL     1      -0.299  13.771  19.037  0.00  0.00    +0.000 A 
ATOM     11  C   UNL     1      -0.908  12.703  18.371  0.00  0.00    +0.000 A 
ATOM     12  C   UNL     1      -0.500  11.388  18.624  0.00  0.00    +0.000 A 
ATOM     13 CL   UNL     1      -1.311  10.105  17.795  0.00  0.00    +0.000 Cl
BRANCH   9  14
ATOM     14  S   UNL     1       1.537  14.810  20.825  0.00  0.00    +0.000 S 
ATOM     15  C   UNL     1       0.243  15.954  21.235  0.00  0.00    +0.000 C 
ATOM     16  O   UNL     1       2.060  14.232  22.052  0.00  0.00    +0.000 OA
ATOM     17  O   UNL     1       2.421  15.475  19.886  0.00  0.00    +0.000 OA
ENDBRANCH   9  14
ENDBRANCH   4   7
BRANCH   1  18
ATOM     18  C   UNL     1       2.557   6.767  18.563  0.00  0.00    +0.000 C 
BRANCH  18  19
ATOM     19  C   UNL     1       3.472   5.750  19.291  0.00  0.00    +0.000 C 
BRANCH  19  20
ATOM     20  N   UNL     1       4.865   5.662  18.770  0.00  0.00    +0.000 NA
ATOM     21  C   UNL     1       5.078   6.400  17.509  0.00  0.00    +0.000 C 
ATOM     22  C   UNL     1       4.975   5.380  16.386  0.00  0.00    +0.000 C 
ATOM     23  C   UNL     1       5.475   4.097  17.011  0.00  0.00    +0.000 C 
ATOM     24  C   UNL     1       5.427   4.332  18.517  0.00  0.00    +0.000 C 
ENDBRANCH  19  20
BRANCH  19  25
ATOM     25  C   UNL     1       2.754   4.365  19.539  0.00  0.00    +0.000 C 
BRANCH  25  27
ATOM     26  C   UNL     1       2.229   2.490  17.832  0.00  0.00    +0.000 C 
ATOM     27  C   UNL     1       1.893   3.887  18.344  0.00  0.00    +0.000 C 
ENDBRANCH  25  27
BRANCH  25  28
ATOM     28  C   UNL     1       1.944   4.294  20.854  0.00  0.00    +0.000 C 
ATOM     29  C   UNL     1       1.981   2.941  21.551  0.00  0.00    +0.000 C 
ENDBRANCH  25  28
ENDBRANCH  19  25
ENDBRANCH  18  19
ENDBRANCH   1  18
TORSDOF 8
ENDMDL
