MODEL 1
REMARK VINA RESULT:      -8.2      0.000      0.000
REMARK  Name = 
REMARK  9 active torsions:
REMARK  status: ('A' for Active; 'I' for Inactive)
REMARK    1  A    between atoms: C_1  and  N_2
REMARK    2  A    between atoms: N_2  and  C_15
REMARK    3  A    between atoms: C_3  and  C_5
REMARK    4  A    between atoms: C_5  and  N_6
REMARK    5  A    between atoms: N_6  and  C_7
REMARK    6  A    between atoms: C_15  and  C_16
REMARK    7  A    between atoms: C_15  and  C_23
REMARK    8  A    between atoms: C_16  and  N_17
REMARK    9  A    between atoms: C_20  and  O_21
REMARK                            x       y       z     vdW  Elec       q    Type
REMARK                         _______ _______ _______ _____ _____    ______ ____
ROOT
ATOM      1  C   UNL     1       4.310   6.935  16.708  0.00  0.00    +0.000 C 
ATOM      2  N   UNL     1       4.362   6.242  17.995  0.00  0.00    +0.000 N 
ATOM      3  C   UNL     1       5.554   5.890  18.631  0.00  0.00    +0.000 C 
ATOM      4  O   UNL     1       5.575   5.321  19.728  0.00  0.00    +0.000 OA
ENDROOT
BRANCH   3   5
ATOM      5  C   UNL     1       6.896   6.341  18.007  0.00  0.00    +0.000 C 
BRANCH   5   6
ATOM      6  N   UNL     1       7.534   5.160  17.400  0.00  0.00    +0.000 N 
ATOM      7  H   UNL     1       7.625   4.427  18.104  0.00  0.00    +0.000 HD
BRANCH   6   8
ATOM      8  C   UNL     1       7.086   4.656  16.178  0.00  0.00    +0.000 A 
ATOM      9  C   UNL     1       6.013   3.769  16.060  0.00  0.00    +0.000 A 
ATOM     10  C   UNL     1       5.529   3.376  14.804  0.00  0.00    +0.000 A 
ATOM     11  C   UNL     1       6.105   3.881  13.638  0.00  0.00    +0.000 A 
ATOM     12 CL   UNL     1       5.455   3.361  12.124  0.00  0.00    +0.000 Cl
ATOM     13  C   UNL     1       7.161   4.788  13.733  0.00  0.00    +0.000 A 
ATOM     14 CL   UNL     1       7.923   5.471  12.339  0.00  0.00    +0.000 Cl
ATOM     15  C   UNL     1       7.628   5.182  14.994  0.00  0.00    +0.000 A 
ENDBRANCH   6   8
ENDBRANCH   5   6
ENDBRANCH   3   5
BRANCH   2  16
ATOM     16  C   UNL     1       3.068   5.957  18.699  0.00  0.00    +0.000 C 
BRANCH  16  17
ATOM     17  C   UNL     1       2.275   7.267  18.881  0.00  0.00    +0.000 A 
ATOM     18  C   UNL     1       1.818   7.609  20.169  0.00  0.00    +0.000 A 
ATOM     19  C   UNL     1       1.285   8.875  20.423  0.00  0.00    +0.000 A 
ATOM     20  C   UNL     1       1.184   9.813  19.398  0.00  0.00    +0.000 A 
ATOM     21  C   UNL     1       1.585   9.476  18.108  0.00  0.00    +0.000 A 
ATOM     22  C   UNL     1       2.121   8.213  17.852  0.00  0.00    +0.000 A 
ENDBRANCH  16  17
BRANCH  16  23
ATOM     23  C   UNL     1       2.205   4.810  18.051  0.00  0.00    +0.000 C 
BRANCH  23  24
ATOM     24  N   UNL     1       2.097   3.460  18.652  0.00  0.00    +0.000 NA
ATOM     25  C   UNL     1       3.405   2.843  18.957  0.00  0.00    +0.000 C 
ATOM     26  C   UNL     1       3.375   2.404  20.417  0.00  0.00    +0.000 C 
ATOM     27  C   UNL     1       2.377   3.348  21.049  0.00  0.00    +0.000 C 
ATOM     28  C   UNL     1       1.355   3.533  19.933  0.00  0.00    +0.000 C 
BRANCH  27  29
ATOM     29  O   UNL     1       1.814   2.802  22.232  0.00  0.00    +0.000 OA
ATOM     30  H   UNL     1       1.694   1.847  22.095  0.00  0.00    +0.000 HD
ENDBRANCH  27  29
ENDBRANCH  23  24
ENDBRANCH  16  23
ENDBRANCH   2  16
TORSDOF 8
ENDMDL
MODEL 2
REMARK VINA RESULT:      -8.0      5.031      8.639
REMARK  Name = 
REMARK  9 active torsions:
REMARK  status: ('A' for Active; 'I' for Inactive)
REMARK    1  A    between atoms: C_1  and  N_2
REMARK    2  A    between atoms: N_2  and  C_15
REMARK    3  A    between atoms: C_3  and  C_5
REMARK    4  A    between atoms: C_5  and  N_6
REMARK    5  A    between atoms: N_6  and  C_7
REMARK    6  A    between atoms: C_15  and  C_16
REMARK    7  A    between atoms: C_15  and  C_23
REMARK    8  A    between atoms: C_16  and  N_17
REMARK    9  A    between atoms: C_20  and  O_21
REMARK                            x       y       z     vdW  Elec       q    Type
REMARK                         _______ _______ _______ _____ _____    ______ ____
ROOT
ATOM      1  C   UNL     1       1.993   8.201  17.665  0.00  0.00    +0.000 C 
ATOM      2  N   UNL     1       2.224   7.727  19.029  0.00  0.00    +0.000 N 
ATOM      3  C   UNL     1       1.661   8.327  20.157  0.00  0.00    +0.000 C 
ATOM      4  O   UNL     1       1.855   7.899  21.301  0.00  0.00    +0.000 OA
ENDROOT
BRANCH   3   5
ATOM      5  C   UNL     1       0.656   9.487  19.965  0.00  0.00    +0.000 C 
BRANCH   5   6
ATOM      6  N   UNL     1      -0.015   9.726  21.254  0.00  0.00    +0.000 N 
ATOM      7  H   UNL     1       0.463   9.199  21.986  0.00  0.00    +0.000 HD
BRANCH   6   8
ATOM      8  C   UNL     1      -0.328  11.023  21.666  0.00  0.00    +0.000 A 
ATOM      9  C   UNL     1      -1.234  11.304  22.693  0.00  0.00    +0.000 A 
ATOM     10  C   UNL     1      -1.433  12.615  23.147  0.00  0.00    +0.000 A 
ATOM     11  C   UNL     1      -0.715  13.672  22.586  0.00  0.00    +0.000 A 
ATOM     12 CL   UNL     1      -1.004  15.262  23.197  0.00  0.00    +0.000 Cl
ATOM     13  C   UNL     1       0.213  13.410  21.578  0.00  0.00    +0.000 A 
ATOM     14 CL   UNL     1       1.155  14.658  20.838  0.00  0.00    +0.000 Cl
ATOM     15  C   UNL     1       0.413  12.093  21.141  0.00  0.00    +0.000 A 
ENDBRANCH   6   8
ENDBRANCH   5   6
ENDBRANCH   3   5
BRANCH   2  16
ATOM     16  C   UNL     1       3.055   6.493  19.220  0.00  0.00    +0.000 C 
BRANCH  16  17
ATOM     17  C   UNL     1       2.136   5.258  19.315  0.00  0.00    +0.000 A 
ATOM     18  C   UNL     1       1.800   4.570  18.133  0.00  0.00    +0.000 A 
ATOM     19  C   UNL     1       1.153   3.333  18.187  0.00  0.00    +0.000 A 
ATOM     20  C   UNL     1       0.816   2.770  19.416  0.00  0.00    +0.000 A 
ATOM     21  C   UNL     1       1.096   3.458  20.594  0.00  0.00    +0.000 A 
ATOM     22  C   UNL     1       1.746   4.692  20.543  0.00  0.00    +0.000 A 
ENDBRANCH  16  17
BRANCH  16  23
ATOM     23  C   UNL     1       4.212   6.308  18.166  0.00  0.00    +0.000 C 
BRANCH  23  24
ATOM     24  N   UNL     1       5.169   5.180  18.228  0.00  0.00    +0.000 NA
ATOM     25  C   UNL     1       6.118   5.147  17.095  0.00  0.00    +0.000 C 
ATOM     26  C   UNL     1       7.524   5.068  17.678  0.00  0.00    +0.000 C 
ATOM     27  C   UNL     1       7.382   5.718  19.036  0.00  0.00    +0.000 C 
ATOM     28  C   UNL     1       5.985   5.275  19.461  0.00  0.00    +0.000 C 
BRANCH  27  29
ATOM     29  O   UNL     1       8.396   5.291  19.932  0.00  0.00    +0.000 OA
ATOM     30  H   UNL     1       9.252   5.372  19.478  0.00  0.00    +0.000 HD
ENDBRANCH  27  29
ENDBRANCH  23  24
ENDBRANCH  16  23
ENDBRANCH   2  16
TORSDOF 8
ENDMDL
MODEL 3
REMARK VINA RESULT:      -7.9      1.984      4.224
REMARK  Name = 
REMARK  9 active torsions:
REMARK  status: ('A' for Active; 'I' for Inactive)
REMARK    1  A    between atoms: C_1  and  N_2
REMARK    2  A    between atoms: N_2  and  C_15
REMARK    3  A    between atoms: C_3  and  C_5
REMARK    4  A    between atoms: C_5  and  N_6
REMARK    5  A    between atoms: N_6  and  C_7
REMARK    6  A    between atoms: C_15  and  C_16
REMARK    7  A    between atoms: C_15  and  C_23
REMARK    8  A    between atoms: C_16  and  N_17
REMARK    9  A    between atoms: C_20  and  O_21
REMARK                            x       y       z     vdW  Elec       q    Type
REMARK                         _______ _______ _______ _____ _____    ______ ____
ROOT
ATOM      1  C   UNL     1       4.846   5.519  19.405  0.00  0.00    +0.000 C 
ATOM      2  N   UNL     1       4.375   6.048  18.125  0.00  0.00    +0.000 N 
ATOM      3  C   UNL     1       5.198   6.725  17.224  0.00  0.00    +0.000 C 
ATOM      4  O   UNL     1       4.784   7.149  16.139  0.00  0.00    +0.000 OA
ENDROOT
BRANCH   3   5
ATOM      5  C   UNL     1       6.710   6.838  17.531  0.00  0.00    +0.000 C 
BRANCH   5   6
ATOM      6  N   UNL     1       7.346   5.562  17.164  0.00  0.00    +0.000 N 
ATOM      7  H   UNL     1       7.329   4.933  17.968  0.00  0.00    +0.000 HD
BRANCH   6   8
ATOM      8  C   UNL     1       6.998   4.905  15.982  0.00  0.00    +0.000 A 
ATOM      9  C   UNL     1       6.027   3.902  15.918  0.00  0.00    +0.000 A 
ATOM     10  C   UNL     1       5.633   3.349  14.692  0.00  0.00    +0.000 A 
ATOM     11  C   UNL     1       6.198   3.804  13.500  0.00  0.00    +0.000 A 
ATOM     12 CL   UNL     1       5.662   3.085  12.024  0.00  0.00    +0.000 Cl
ATOM     13  C   UNL     1       7.150   4.823  13.539  0.00  0.00    +0.000 A 
ATOM     14 CL   UNL     1       7.891   5.454  12.109  0.00  0.00    +0.000 Cl
ATOM     15  C   UNL     1       7.528   5.376  14.770  0.00  0.00    +0.000 A 
ENDBRANCH   6   8
ENDBRANCH   5   6
ENDBRANCH   3   5
BRANCH   2  16
ATOM     16  C   UNL     1       2.950   5.790  17.732  0.00  0.00    +0.000 C 
BRANCH  16  17
ATOM     17  C   UNL     1       2.507   4.410  18.259  0.00  0.00    +0.000 A 
ATOM     18  C   UNL     1       1.583   4.354  19.321  0.00  0.00    +0.000 A 
ATOM     19  C   UNL     1       0.993   3.144  19.690  0.00  0.00    +0.000 A 
ATOM     20  C   UNL     1       1.324   1.968  19.020  0.00  0.00    +0.000 A 
ATOM     21  C   UNL     1       2.272   1.994  18.001  0.00  0.00    +0.000 A 
ATOM     22  C   UNL     1       2.861   3.203  17.627  0.00  0.00    +0.000 A 
ENDBRANCH  16  17
BRANCH  16  23
ATOM     23  C   UNL     1       1.943   6.938  18.116  0.00  0.00    +0.000 C 
BRANCH  23  24
ATOM     24  N   UNL     1       2.390   8.229  18.686  0.00  0.00    +0.000 NA
ATOM     25  C   UNL     1       2.048   9.396  17.846  0.00  0.00    +0.000 C 
ATOM     26  C   UNL     1       1.316  10.399  18.732  0.00  0.00    +0.000 C 
ATOM     27  C   UNL     1       0.690   9.534  19.803  0.00  0.00    +0.000 C 
ATOM     28  C   UNL     1       1.747   8.452  20.003  0.00  0.00    +0.000 C 
BRANCH  27  29
ATOM     29  O   UNL     1       0.422  10.272  20.985  0.00  0.00    +0.000 OA
ATOM     30  H   UNL     1       0.010   9.670  21.628  0.00  0.00    +0.000 HD
ENDBRANCH  27  29
ENDBRANCH  23  24
ENDBRANCH  16  23
ENDBRANCH   2  16
TORSDOF 8
ENDMDL
MODEL 4
REMARK VINA RESULT:      -7.8      4.749      8.048
REMARK  Name = 
REMARK  9 active torsions:
REMARK  status: ('A' for Active; 'I' for Inactive)
REMARK    1  A    between atoms: C_1  and  N_2
REMARK    2  A    between atoms: N_2  and  C_15
REMARK    3  A    between atoms: C_3  and  C_5
REMARK    4  A    between atoms: C_5  and  N_6
REMARK    5  A    between atoms: N_6  and  C_7
REMARK    6  A    between atoms: C_15  and  C_16
REMARK    7  A    between atoms: C_15  and  C_23
REMARK    8  A    between atoms: C_16  and  N_17
REMARK    9  A    between atoms: C_20  and  O_21
REMARK                            x       y       z     vdW  Elec       q    Type
REMARK                         _______ _______ _______ _____ _____    ______ ____
ROOT
ATOM      1  C   UNL     1       1.662   7.173  20.801  0.00  0.00    +0.000 C 
ATOM      2  N   UNL     1       2.331   7.191  19.500  0.00  0.00    +0.000 N 
ATOM      3  C   UNL     1       2.133   8.191  18.548  0.00  0.00    +0.000 C 
ATOM      4  O   UNL     1       2.722   8.197  17.461  0.00  0.00    +0.000 OA
ENDROOT
BRANCH   3   5
ATOM      5  C   UNL     1       1.244   9.404  18.911  0.00  0.00    +0.000 C 
BRANCH   5   6
ATOM      6  N   UNL     1       0.462   9.769  17.717  0.00  0.00    +0.000 N 
ATOM      7  H   UNL     1       0.475   8.992  17.055  0.00  0.00    +0.000 HD
BRANCH   6   8
ATOM      8  C   UNL     1      -0.812  10.326  17.841  0.00  0.00    +0.000 A 
ATOM      9  C   UNL     1      -1.922   9.872  17.124  0.00  0.00    +0.000 A 
ATOM     10  C   UNL     1      -3.203  10.388  17.363  0.00  0.00    +0.000 A 
ATOM     11  C   UNL     1      -3.398  11.364  18.340  0.00  0.00    +0.000 A 
ATOM     12 CL   UNL     1      -5.003  11.952  18.589  0.00  0.00    +0.000 Cl
ATOM     13  C   UNL     1      -2.308  11.814  19.086  0.00  0.00    +0.000 A 
ATOM     14 CL   UNL     1      -2.463  13.010  20.325  0.00  0.00    +0.000 Cl
ATOM     15  C   UNL     1      -1.034  11.281  18.847  0.00  0.00    +0.000 A 
ENDBRANCH   6   8
ENDBRANCH   5   6
ENDBRANCH   3   5
BRANCH   2  16
ATOM     16  C   UNL     1       3.333   6.115  19.203  0.00  0.00    +0.000 C 
BRANCH  16  17
ATOM     17  C   UNL     1       2.637   4.738  19.212  0.00  0.00    +0.000 A 
ATOM     18  C   UNL     1       2.819   3.893  20.324  0.00  0.00    +0.000 A 
ATOM     19  C   UNL     1       2.048   2.739  20.476  0.00  0.00    +0.000 A 
ATOM     20  C   UNL     1       1.096   2.399  19.517  0.00  0.00    +0.000 A 
ATOM     21  C   UNL     1       0.936   3.195  18.387  0.00  0.00    +0.000 A 
ATOM     22  C   UNL     1       1.702   4.352  18.234  0.00  0.00    +0.000 A 
ENDBRANCH  16  17
BRANCH  16  23
ATOM     23  C   UNL     1       4.189   6.352  17.903  0.00  0.00    +0.000 C 
BRANCH  23  24
ATOM     24  N   UNL     1       4.775   5.238  17.123  0.00  0.00    +0.000 NA
ATOM     25  C   UNL     1       5.361   5.662  15.833  0.00  0.00    +0.000 C 
ATOM     26  C   UNL     1       6.788   5.128  15.781  0.00  0.00    +0.000 C 
ATOM     27  C   UNL     1       7.179   5.020  17.237  0.00  0.00    +0.000 C 
ATOM     28  C   UNL     1       5.868   4.599  17.894  0.00  0.00    +0.000 C 
BRANCH  27  29
ATOM     29  O   UNL     1       8.224   4.080  17.433  0.00  0.00    +0.000 OA
ATOM     30  H   UNL     1       8.016   3.561  18.229  0.00  0.00    +0.000 HD
ENDBRANCH  27  29
ENDBRANCH  23  24
ENDBRANCH  16  23
ENDBRANCH   2  16
TORSDOF 8
ENDMDL
MODEL 5
REMARK VINA RESULT:      -7.8      5.195      8.711
REMARK  Name = 
REMARK  9 active torsions:
REMARK  status: ('A' for Active; 'I' for Inactive)
REMARK    1  A    between atoms: C_1  and  N_2
REMARK    2  A    between atoms: N_2  and  C_15
REMARK    3  A    between atoms: C_3  and  C_5
REMARK    4  A    between atoms: C_5  and  N_6
REMARK    5  A    between atoms: N_6  and  C_7
REMARK    6  A    between atoms: C_15  and  C_16
REMARK    7  A    between atoms: C_15  and  C_23
REMARK    8  A    between atoms: C_16  and  N_17
REMARK    9  A    between atoms: C_20  and  O_21
REMARK                            x       y       z     vdW  Elec       q    Type
REMARK                         _______ _______ _______ _____ _____    ______ ____
ROOT
ATOM      1  C   UNL     1       1.979   8.243  17.672  0.00  0.00    +0.000 C 
ATOM      2  N   UNL     1       2.148   7.730  19.031  0.00  0.00    +0.000 N 
ATOM      3  C   UNL     1       1.496   8.269  20.142  0.00  0.00    +0.000 C 
ATOM      4  O   UNL     1       1.639   7.809  21.281  0.00  0.00    +0.000 OA
ENDROOT
BRANCH   3   5
ATOM      5  C   UNL     1       0.460   9.397  19.927  0.00  0.00    +0.000 C 
BRANCH   5   6
ATOM      6  N   UNL     1       1.160  10.687  20.046  0.00  0.00    +0.000 N 
ATOM      7  H   UNL     1       1.367  11.046  19.113  0.00  0.00    +0.000 HD
BRANCH   6   8
ATOM      8  C   UNL     1       0.677  11.686  20.893  0.00  0.00    +0.000 A 
ATOM      9  C   UNL     1       1.228  12.969  20.959  0.00  0.00    +0.000 A 
ATOM     10  C   UNL     1       0.640  13.972  21.743  0.00  0.00    +0.000 A 
ATOM     11  C   UNL     1      -0.524  13.711  22.466  0.00  0.00    +0.000 A 
ATOM     12 CL   UNL     1      -1.199  14.994  23.405  0.00  0.00    +0.000 Cl
ATOM     13  C   UNL     1      -1.105  12.444  22.394  0.00  0.00    +0.000 A 
ATOM     14 CL   UNL     1      -2.553  12.039  23.247  0.00  0.00    +0.000 Cl
ATOM     15  C   UNL     1      -0.515  11.453  21.598  0.00  0.00    +0.000 A 
ENDBRANCH   6   8
ENDBRANCH   5   6
ENDBRANCH   3   5
BRANCH   2  16
ATOM     16  C   UNL     1       3.013   6.522  19.231  0.00  0.00    +0.000 C 
BRANCH  16  17
ATOM     17  C   UNL     1       2.132   5.259  19.320  0.00  0.00    +0.000 A 
ATOM     18  C   UNL     1       1.804   4.576  18.132  0.00  0.00    +0.000 A 
ATOM     19  C   UNL     1       1.193   3.321  18.177  0.00  0.00    +0.000 A 
ATOM     20  C   UNL     1       0.884   2.733  19.402  0.00  0.00    +0.000 A 
ATOM     21  C   UNL     1       1.155   3.415  20.586  0.00  0.00    +0.000 A 
ATOM     22  C   UNL     1       1.769   4.668  20.544  0.00  0.00    +0.000 A 
ENDBRANCH  16  17
BRANCH  16  23
ATOM     23  C   UNL     1       4.185   6.371  18.189  0.00  0.00    +0.000 C 
BRANCH  23  24
ATOM     24  N   UNL     1       5.132   5.232  18.218  0.00  0.00    +0.000 NA
ATOM     25  C   UNL     1       6.036   5.185  17.050  0.00  0.00    +0.000 C 
ATOM     26  C   UNL     1       7.463   5.092  17.579  0.00  0.00    +0.000 C 
ATOM     27  C   UNL     1       7.379   5.747  18.939  0.00  0.00    +0.000 C 
ATOM     28  C   UNL     1       5.995   5.321  19.419  0.00  0.00    +0.000 C 
BRANCH  27  29
ATOM     29  O   UNL     1       8.422   5.312  19.797  0.00  0.00    +0.000 OA
ATOM     30  H   UNL     1       9.085   6.022  19.849  0.00  0.00    +0.000 HD
ENDBRANCH  27  29
ENDBRANCH  23  24
ENDBRANCH  16  23
ENDBRANCH   2  16
TORSDOF 8
ENDMDL
MODEL 6
REMARK VINA RESULT:      -7.8      4.868      8.167
REMARK  Name = 
REMARK  9 active torsions:
REMARK  status: ('A' for Active; 'I' for Inactive)
REMARK    1  A    between atoms: C_1  and  N_2
REMARK    2  A    between atoms: N_2  and  C_15
REMARK    3  A    between atoms: C_3  and  C_5
REMARK    4  A    between atoms: C_5  and  N_6
REMARK    5  A    between atoms: N_6  and  C_7
REMARK    6  A    between atoms: C_15  and  C_16
REMARK    7  A    between atoms: C_15  and  C_23
REMARK    8  A    between atoms: C_16  and  N_17
REMARK    9  A    between atoms: C_20  and  O_21
REMARK                            x       y       z     vdW  Elec       q    Type
REMARK                         _______ _______ _______ _____ _____    ______ ____
ROOT
ATOM      1  C   UNL     1       1.343   7.674  21.035  0.00  0.00    +0.000 C 
ATOM      2  N   UNL     1       2.001   7.535  19.736  0.00  0.00    +0.000 N 
ATOM      3  C   UNL     1       1.867   8.464  18.703  0.00  0.00    +0.000 C 
ATOM      4  O   UNL     1       2.447   8.336  17.618  0.00  0.00    +0.000 OA
ENDROOT
BRANCH   3   5
ATOM      5  C   UNL     1       1.071   9.764  18.964  0.00  0.00    +0.000 C 
BRANCH   5   6
ATOM      6  N   UNL     1       0.372  10.128  17.720  0.00  0.00    +0.000 N 
ATOM      7  H   UNL     1       0.598   9.446  16.994  0.00  0.00    +0.000 HD
BRANCH   6   8
ATOM      8  C   UNL     1      -0.987  10.445  17.731  0.00  0.00    +0.000 A 
ATOM      9  C   UNL     1      -1.933   9.799  16.931  0.00  0.00    +0.000 A 
ATOM     10  C   UNL     1      -3.301  10.075  17.057  0.00  0.00    +0.000 A 
ATOM     11  C   UNL     1      -3.750  10.997  18.002  0.00  0.00    +0.000 A 
ATOM     12 CL   UNL     1      -5.450  11.285  18.109  0.00  0.00    +0.000 Cl
ATOM     13  C   UNL     1      -2.825  11.635  18.829  0.00  0.00    +0.000 A 
ATOM     14 CL   UNL     1      -3.296  12.781  20.035  0.00  0.00    +0.000 Cl
ATOM     15  C   UNL     1      -1.461  11.342  18.702  0.00  0.00    +0.000 A 
ENDBRANCH   6   8
ENDBRANCH   5   6
ENDBRANCH   3   5
BRANCH   2  16
ATOM     16  C   UNL     1       2.921   6.368  19.528  0.00  0.00    +0.000 C 
BRANCH  16  17
ATOM     17  C   UNL     1       2.212   5.065  19.951  0.00  0.00    +0.000 A 
ATOM     18  C   UNL     1       1.492   4.339  18.982  0.00  0.00    +0.000 A 
ATOM     19  C   UNL     1       1.015   3.057  19.261  0.00  0.00    +0.000 A 
ATOM     20  C   UNL     1       1.234   2.482  20.511  0.00  0.00    +0.000 A 
ATOM     21  C   UNL     1       1.900   3.203  21.498  0.00  0.00    +0.000 A 
ATOM     22  C   UNL     1       2.381   4.484  21.222  0.00  0.00    +0.000 A 
ENDBRANCH  16  17
BRANCH  16  23
ATOM     23  C   UNL     1       3.552   6.274  18.088  0.00  0.00    +0.000 C 
BRANCH  23  24
ATOM     24  N   UNL     1       4.874   5.655  17.839  0.00  0.00    +0.000 NA
ATOM     25  C   UNL     1       4.796   4.229  17.459  0.00  0.00    +0.000 C 
ATOM     26  C   UNL     1       5.585   4.056  16.166  0.00  0.00    +0.000 C 
ATOM     27  C   UNL     1       5.508   5.420  15.519  0.00  0.00    +0.000 C 
ATOM     28  C   UNL     1       5.559   6.353  16.725  0.00  0.00    +0.000 C 
BRANCH  27  29
ATOM     29  O   UNL     1       6.576   5.632  14.609  0.00  0.00    +0.000 OA
ATOM     30  H   UNL     1       7.042   4.786  14.490  0.00  0.00    +0.000 HD
ENDBRANCH  27  29
ENDBRANCH  23  24
ENDBRANCH  16  23
ENDBRANCH   2  16
TORSDOF 8
ENDMDL
MODEL 7
REMARK VINA RESULT:      -7.8      4.532      7.822
REMARK  Name = 
REMARK  9 active torsions:
REMARK  status: ('A' for Active; 'I' for Inactive)
REMARK    1  A    between atoms: C_1  and  N_2
REMARK    2  A    between atoms: N_2  and  C_15
REMARK    3  A    between atoms: C_3  and  C_5
REMARK    4  A    between atoms: C_5  and  N_6
REMARK    5  A    between atoms: N_6  and  C_7
REMARK    6  A    between atoms: C_15  and  C_16
REMARK    7  A    between atoms: C_15  and  C_23
REMARK    8  A    between atoms: C_16  and  N_17
REMARK    9  A    between atoms: C_20  and  O_21
REMARK                            x       y       z     vdW  Elec       q    Type
REMARK                         _______ _______ _______ _____ _____    ______ ____
ROOT
ATOM      1  C   UNL     1      -0.200  10.571  21.568  0.00  0.00    +0.000 C 
ATOM      2  N   UNL     1       0.307  10.365  20.212  0.00  0.00    +0.000 N 
ATOM      3  C   UNL     1       1.103   9.277  19.847  0.00  0.00    +0.000 C 
ATOM      4  O   UNL     1       1.507   9.111  18.690  0.00  0.00    +0.000 OA
ENDROOT
BRANCH   3   5
ATOM      5  C   UNL     1       1.385   8.171  20.892  0.00  0.00    +0.000 C 
BRANCH   5   6
ATOM      6  N   UNL     1       2.471   7.323  20.374  0.00  0.00    +0.000 N 
ATOM      7  H   UNL     1       3.292   7.423  20.973  0.00  0.00    +0.000 HD
BRANCH   6   8
ATOM      8  C   UNL     1       2.235   5.990  20.032  0.00  0.00    +0.000 A 
ATOM      9  C   UNL     1       1.334   5.170  20.718  0.00  0.00    +0.000 A 
ATOM     10  C   UNL     1       1.048   3.873  20.271  0.00  0.00    +0.000 A 
ATOM     11  C   UNL     1       1.650   3.377  19.114  0.00  0.00    +0.000 A 
ATOM     12 CL   UNL     1       1.246   1.773  18.615  0.00  0.00    +0.000 Cl
ATOM     13  C   UNL     1       2.532   4.188  18.400  0.00  0.00    +0.000 A 
ATOM     14 CL   UNL     1       3.311   3.658  16.950  0.00  0.00    +0.000 Cl
ATOM     15  C   UNL     1       2.801   5.488  18.850  0.00  0.00    +0.000 A 
ENDBRANCH   6   8
ENDBRANCH   5   6
ENDBRANCH   3   5
BRANCH   2  16
ATOM     16  C   UNL     1      -0.105  11.335  19.145  0.00  0.00    +0.000 C 
BRANCH  16  17
ATOM     17  C   UNL     1      -1.536  11.009  18.670  0.00  0.00    +0.000 A 
ATOM     18  C   UNL     1      -2.590  11.856  19.062  0.00  0.00    +0.000 A 
ATOM     19  C   UNL     1      -3.858  11.728  18.490  0.00  0.00    +0.000 A 
ATOM     20  C   UNL     1      -4.100  10.746  17.532  0.00  0.00    +0.000 A 
ATOM     21  C   UNL     1      -3.084   9.867  17.168  0.00  0.00    +0.000 A 
ATOM     22  C   UNL     1      -1.815   9.994  17.735  0.00  0.00    +0.000 A 
ENDBRANCH  16  17
BRANCH  16  23
ATOM     23  C   UNL     1       0.075  12.852  19.529  0.00  0.00    +0.000 C 
BRANCH  23  24
ATOM     24  N   UNL     1       0.694  13.835  18.610  0.00  0.00    +0.000 NA
ATOM     25  C   UNL     1       1.073  15.103  19.269  0.00  0.00    +0.000 C 
ATOM     26  C   UNL     1       2.538  15.370  18.940  0.00  0.00    +0.000 C 
ATOM     27  C   UNL     1       3.104  13.989  18.699  0.00  0.00    +0.000 C 
ATOM     28  C   UNL     1       1.936  13.273  18.028  0.00  0.00    +0.000 C 
BRANCH  27  29
ATOM     29  O   UNL     1       4.267  14.032  17.888  0.00  0.00    +0.000 OA
ATOM     30  H   UNL     1       4.965  13.522  18.335  0.00  0.00    +0.000 HD
ENDBRANCH  27  29
ENDBRANCH  23  24
ENDBRANCH  16  23
ENDBRANCH   2  16
TORSDOF 8
ENDMDL
MODEL 8
REMARK VINA RESULT:      -7.8      4.075      6.861
REMARK  Name = 
REMARK  9 active torsions:
REMARK  status: ('A' for Active; 'I' for Inactive)
REMARK    1  A    between atoms: C_1  and  N_2
REMARK    2  A    between atoms: N_2  and  C_15
REMARK    3  A    between atoms: C_3  and  C_5
REMARK    4  A    between atoms: C_5  and  N_6
REMARK    5  A    between atoms: N_6  and  C_7
REMARK    6  A    between atoms: C_15  and  C_16
REMARK    7  A    between atoms: C_15  and  C_23
REMARK    8  A    between atoms: C_16  and  N_17
REMARK    9  A    between atoms: C_20  and  O_21
REMARK                            x       y       z     vdW  Elec       q    Type
REMARK                         _______ _______ _______ _____ _____    ______ ____
ROOT
ATOM      1  C   UNL     1       7.701   4.614  17.248  0.00  0.00    +0.000 C 
ATOM      2  N   UNL     1       6.619   5.519  16.864  0.00  0.00    +0.000 N 
ATOM      3  C   UNL     1       6.596   6.875  17.198  0.00  0.00    +0.000 C 
ATOM      4  O   UNL     1       5.680   7.627  16.847  0.00  0.00    +0.000 OA
ENDROOT
BRANCH   3   5
ATOM      5  C   UNL     1       7.819   7.488  17.920  0.00  0.00    +0.000 C 
BRANCH   5   6
ATOM      6  N   UNL     1       8.023   8.849  17.393  0.00  0.00    +0.000 N 
ATOM      7  H   UNL     1       7.171   9.160  16.923  0.00  0.00    +0.000 HD
BRANCH   6   8
ATOM      8  C   UNL     1       8.570   9.850  18.196  0.00  0.00    +0.000 A 
ATOM      9  C   UNL     1       9.011   9.630  19.504  0.00  0.00    +0.000 A 
ATOM     10  C   UNL     1       9.655  10.639  20.234  0.00  0.00    +0.000 A 
ATOM     11  C   UNL     1       9.883  11.889  19.657  0.00  0.00    +0.000 A 
ATOM     12 CL   UNL     1      10.689  13.085  20.609  0.00  0.00    +0.000 Cl
ATOM     13  C   UNL     1       9.474  12.122  18.344  0.00  0.00    +0.000 A 
ATOM     14 CL   UNL     1       9.729  13.637  17.549  0.00  0.00    +0.000 Cl
ATOM     15  C   UNL     1       8.842  11.102  17.621  0.00  0.00    +0.000 A 
ENDBRANCH   6   8
ENDBRANCH   5   6
ENDBRANCH   3   5
BRANCH   2  16
ATOM     16  C   UNL     1       5.511   4.978  16.010  0.00  0.00    +0.000 C 
BRANCH  16  17
ATOM     17  C   UNL     1       6.020   4.765  14.570  0.00  0.00    +0.000 A 
ATOM     18  C   UNL     1       7.231   5.371  14.182  0.00  0.00    +0.000 A 
ATOM     19  C   UNL     1       7.839   5.039  12.969  0.00  0.00    +0.000 A 
ATOM     20  C   UNL     1       7.244   4.111  12.117  0.00  0.00    +0.000 A 
ATOM     21  C   UNL     1       6.022   3.538  12.460  0.00  0.00    +0.000 A 
ATOM     22  C   UNL     1       5.414   3.866  13.673  0.00  0.00    +0.000 A 
ENDBRANCH  16  17
BRANCH  16  23
ATOM     23  C   UNL     1       4.791   3.704  16.593  0.00  0.00    +0.000 C 
BRANCH  23  24
ATOM     24  N   UNL     1       3.554   3.791  17.403  0.00  0.00    +0.000 NA
ATOM     25  C   UNL     1       3.529   2.855  18.546  0.00  0.00    +0.000 C 
ATOM     26  C   UNL     1       3.215   3.668  19.797  0.00  0.00    +0.000 C 
ATOM     27  C   UNL     1       3.726   5.050  19.458  0.00  0.00    +0.000 C 
ATOM     28  C   UNL     1       3.414   5.154  17.969  0.00  0.00    +0.000 C 
BRANCH  27  29
ATOM     29  O   UNL     1       3.084   6.052  20.230  0.00  0.00    +0.000 OA
ATOM     30  H   UNL     1       2.607   6.643  19.621  0.00  0.00    +0.000 HD
ENDBRANCH  27  29
ENDBRANCH  23  24
ENDBRANCH  16  23
ENDBRANCH   2  16
TORSDOF 8
ENDMDL
MODEL 9
REMARK VINA RESULT:      -7.8      4.392      7.703
REMARK  Name = 
REMARK  9 active torsions:
REMARK  status: ('A' for Active; 'I' for Inactive)
REMARK    1  A    between atoms: C_1  and  N_2
REMARK    2  A    between atoms: N_2  and  C_15
REMARK    3  A    between atoms: C_3  and  C_5
REMARK    4  A    between atoms: C_5  and  N_6
REMARK    5  A    between atoms: N_6  and  C_7
REMARK    6  A    between atoms: C_15  and  C_16
REMARK    7  A    between atoms: C_15  and  C_23
REMARK    8  A    between atoms: C_16  and  N_17
REMARK    9  A    between atoms: C_20  and  O_21
REMARK                            x       y       z     vdW  Elec       q    Type
REMARK                         _______ _______ _______ _____ _____    ______ ____
ROOT
ATOM      1  C   UNL     1       1.848   8.345  17.584  0.00  0.00    +0.000 C 
ATOM      2  N   UNL     1       2.125   7.916  18.954  0.00  0.00    +0.000 N 
ATOM      3  C   UNL     1       1.570   8.528  20.079  0.00  0.00    +0.000 C 
ATOM      4  O   UNL     1       1.803   8.138  21.229  0.00  0.00    +0.000 OA
ENDROOT
BRANCH   3   5
ATOM      5  C   UNL     1       0.525   9.652  19.880  0.00  0.00    +0.000 C 
BRANCH   5   6
ATOM      6  N   UNL     1       0.982  10.836  20.627  0.00  0.00    +0.000 N 
ATOM      7  H   UNL     1       1.531  10.534  21.434  0.00  0.00    +0.000 HD
BRANCH   6   8
ATOM      8  C   UNL     1       1.577  11.912  19.966  0.00  0.00    +0.000 A 
ATOM      9  C   UNL     1       1.742  11.963  18.579  0.00  0.00    +0.000 A 
ATOM     10  C   UNL     1       2.243  13.111  17.949  0.00  0.00    +0.000 A 
ATOM     11  C   UNL     1       2.575  14.239  18.700  0.00  0.00    +0.000 A 
ATOM     12 CL   UNL     1       3.181  15.622  17.860  0.00  0.00    +0.000 Cl
ATOM     13  C   UNL     1       2.393  14.218  20.083  0.00  0.00    +0.000 A 
ATOM     14 CL   UNL     1       2.766  15.576  21.087  0.00  0.00    +0.000 Cl
ATOM     15  C   UNL     1       1.880  13.069  20.700  0.00  0.00    +0.000 A 
ENDBRANCH   6   8
ENDBRANCH   5   6
ENDBRANCH   3   5
BRANCH   2  16
ATOM     16  C   UNL     1       2.998   6.713  19.158  0.00  0.00    +0.000 C 
BRANCH  16  17
ATOM     17  C   UNL     1       2.122   5.448  19.272  0.00  0.00    +0.000 A 
ATOM     18  C   UNL     1       1.839   4.711  18.106  0.00  0.00    +0.000 A 
ATOM     19  C   UNL     1       1.235   3.454  18.185  0.00  0.00    +0.000 A 
ATOM     20  C   UNL     1       0.890   2.918  19.424  0.00  0.00    +0.000 A 
ATOM     21  C   UNL     1       1.116   3.653  20.585  0.00  0.00    +0.000 A 
ATOM     22  C   UNL     1       1.723   4.908  20.509  0.00  0.00    +0.000 A 
ENDBRANCH  16  17
BRANCH  16  23
ATOM     23  C   UNL     1       4.157   6.554  18.103  0.00  0.00    +0.000 C 
BRANCH  23  24
ATOM     24  N   UNL     1       5.110   5.421  18.135  0.00  0.00    +0.000 NA
ATOM     25  C   UNL     1       6.223   5.557  17.173  0.00  0.00    +0.000 C 
ATOM     26  C   UNL     1       7.524   5.374  17.947  0.00  0.00    +0.000 C 
ATOM     27  C   UNL     1       7.163   5.804  19.351  0.00  0.00    +0.000 C 
ATOM     28  C   UNL     1       5.724   5.314  19.480  0.00  0.00    +0.000 C 
BRANCH  27  29
ATOM     29  O   UNL     1       8.032   5.233  20.316  0.00  0.00    +0.000 OA
ATOM     30  H   UNL     1       7.753   4.314  20.466  0.00  0.00    +0.000 HD
ENDBRANCH  27  29
ENDBRANCH  23  24
ENDBRANCH  16  23
ENDBRANCH   2  16
TORSDOF 8
ENDMDL
