MODEL 1
REMARK VINA RESULT:      -7.9      0.000      0.000
REMARK  Name = 
REMARK  5 active torsions:
REMARK  status: ('A' for Active; 'I' for Inactive)
REMARK    1  A    between atoms: O_1  and  C_2
REMARK    2  A    between atoms: C_6  and  C_7
REMARK    3  A    between atoms: C_7  and  N_8
REMARK    4  A    between atoms: N_15  and  C_16
REMARK    5  A    between atoms: C_16  and  C_17
REMARK                            x       y       z     vdW  Elec       q    Type
REMARK                         _______ _______ _______ _____ _____    ______ ____
ROOT
ATOM      1  N   UNL     1       5.279   4.321  16.358  0.00  0.00    +0.000 NA
ATOM      2  C   UNL     1       5.041   5.595  15.662  0.00  0.00    +0.000 C 
ATOM      3  C   UNL     1       5.184   6.838  16.546  0.00  0.00    +0.000 C 
ATOM      4  C   UNL     1       6.570   6.879  17.196  0.00  0.00    +0.000 C 
ATOM      5  C   UNL     1       6.994   5.522  17.739  0.00  0.00    +0.000 C 
ATOM      6  C   UNL     1       5.863   4.487  17.699  0.00  0.00    +0.000 C 
ATOM      7  C   UNL     1       4.764   4.846  18.750  0.00  0.00    +0.000 C 
ATOM      8  N   UNL     1       3.712   5.796  18.383  0.00  0.00    +0.000 NA
ATOM      9  C   UNL     1       4.061   6.965  17.588  0.00  0.00    +0.000 C 
ENDROOT
BRANCH   1  10
ATOM     10  C   UNL     1       5.973   3.337  15.512  0.00  0.00    +0.000 C 
BRANCH  10  15
ATOM     11  C   UNL     1       8.030   5.374  13.024  0.00  0.00    +0.000 A 
ATOM     12  C   UNL     1       7.449   5.030  11.807  0.00  0.00    +0.000 A 
ATOM     13  C   UNL     1       6.418   4.098  11.783  0.00  0.00    +0.000 A 
ATOM     14  C   UNL     1       5.965   3.530  12.971  0.00  0.00    +0.000 A 
ATOM     15  C   UNL     1       6.500   3.919  14.212  0.00  0.00    +0.000 A 
ATOM     16  C   UNL     1       7.564   4.832  14.223  0.00  0.00    +0.000 A 
BRANCH  11  17
ATOM     17  O   UNL     1       9.073   6.256  13.084  0.00  0.00    +0.000 OA
ATOM     18  H   UNL     1       8.984   6.772  13.901  0.00  0.00    +0.000 HD
ENDBRANCH  11  17
ENDBRANCH  10  15
ENDBRANCH   1  10
BRANCH   8  19
ATOM     19  C   UNL     1       2.752   6.076  19.461  0.00  0.00    +0.000 C 
BRANCH  19  20
ATOM     20  C   UNL     1       2.174   4.867  20.161  0.00  0.00    +0.000 A 
ATOM     21  C   UNL     1       1.221   4.049  19.542  0.00  0.00    +0.000 A 
ATOM     22  C   UNL     1       0.746   2.916  20.195  0.00  0.00    +0.000 A 
ATOM     23  C   UNL     1       1.231   2.639  21.462  0.00  0.00    +0.000 A 
ATOM     24  N   UNL     1       2.132   3.409  22.104  0.00  0.00    +0.000 NA
ATOM     25  C   UNL     1       2.579   4.502  21.442  0.00  0.00    +0.000 A 
ENDBRANCH  19  20
ENDBRANCH   8  19
TORSDOF 5
ENDMDL
MODEL 2
REMARK VINA RESULT:      -7.9      2.961      7.356
REMARK  Name = 
REMARK  5 active torsions:
REMARK  status: ('A' for Active; 'I' for Inactive)
REMARK    1  A    between atoms: O_1  and  C_2
REMARK    2  A    between atoms: C_6  and  C_7
REMARK    3  A    between atoms: C_7  and  N_8
REMARK    4  A    between atoms: N_15  and  C_16
REMARK    5  A    between atoms: C_16  and  C_17
REMARK                            x       y       z     vdW  Elec       q    Type
REMARK                         _______ _______ _______ _____ _____    ______ ____
ROOT
ATOM      1  N   UNL     1       4.283   5.397  17.114  0.00  0.00    +0.000 NA
ATOM      2  C   UNL     1       5.140   4.434  17.823  0.00  0.00    +0.000 C 
ATOM      3  C   UNL     1       6.642   4.626  17.585  0.00  0.00    +0.000 C 
ATOM      4  C   UNL     1       7.069   6.046  17.967  0.00  0.00    +0.000 C 
ATOM      5  C   UNL     1       6.092   7.099  17.465  0.00  0.00    +0.000 C 
ATOM      6  C   UNL     1       5.028   6.521  16.523  0.00  0.00    +0.000 C 
ATOM      7  C   UNL     1       5.677   6.110  15.162  0.00  0.00    +0.000 C 
ATOM      8  N   UNL     1       6.297   4.789  15.039  0.00  0.00    +0.000 NA
ATOM      9  C   UNL     1       7.073   4.265  16.154  0.00  0.00    +0.000 C 
ENDROOT
BRANCH   1  10
ATOM     10  C   UNL     1       3.110   5.799  17.907  0.00  0.00    +0.000 C 
BRANCH  10  15
ATOM     11  C   UNL     1       2.012   3.461  20.719  0.00  0.00    +0.000 A 
ATOM     12  C   UNL     1       1.291   2.490  20.031  0.00  0.00    +0.000 A 
ATOM     13  C   UNL     1       1.115   2.615  18.659  0.00  0.00    +0.000 A 
ATOM     14  C   UNL     1       1.673   3.696  17.981  0.00  0.00    +0.000 A 
ATOM     15  C   UNL     1       2.460   4.647  18.654  0.00  0.00    +0.000 A 
ATOM     16  C   UNL     1       2.600   4.533  20.044  0.00  0.00    +0.000 A 
BRANCH  11  17
ATOM     17  O   UNL     1       2.172   3.395  22.075  0.00  0.00    +0.000 OA
ATOM     18  H   UNL     1       1.875   4.237  22.455  0.00  0.00    +0.000 HD
ENDBRANCH  11  17
ENDBRANCH  10  15
ENDBRANCH   1  10
BRANCH   8  19
ATOM     19  C   UNL     1       6.896   4.526  13.723  0.00  0.00    +0.000 C 
BRANCH  19  20
ATOM     20  C   UNL     1       6.073   3.680  12.778  0.00  0.00    +0.000 A 
ATOM     21  C   UNL     1       4.773   4.045  12.413  0.00  0.00    +0.000 A 
ATOM     22  C   UNL     1       4.061   3.270  11.502  0.00  0.00    +0.000 A 
ATOM     23  C   UNL     1       4.670   2.138  10.990  0.00  0.00    +0.000 A 
ATOM     24  N   UNL     1       5.913   1.736  11.329  0.00  0.00    +0.000 NA
ATOM     25  C   UNL     1       6.581   2.513  12.214  0.00  0.00    +0.000 A 
ENDBRANCH  19  20
ENDBRANCH   8  19
TORSDOF 5
ENDMDL
MODEL 3
REMARK VINA RESULT:      -7.8      2.832      7.397
REMARK  Name = 
REMARK  5 active torsions:
REMARK  status: ('A' for Active; 'I' for Inactive)
REMARK    1  A    between atoms: O_1  and  C_2
REMARK    2  A    between atoms: C_6  and  C_7
REMARK    3  A    between atoms: C_7  and  N_8
REMARK    4  A    between atoms: N_15  and  C_16
REMARK    5  A    between atoms: C_16  and  C_17
REMARK                            x       y       z     vdW  Elec       q    Type
REMARK                         _______ _______ _______ _____ _____    ______ ____
ROOT
ATOM      1  N   UNL     1       4.214   5.483  17.111  0.00  0.00    +0.000 NA
ATOM      2  C   UNL     1       5.021   4.525  17.881  0.00  0.00    +0.000 C 
ATOM      3  C   UNL     1       6.535   4.671  17.690  0.00  0.00    +0.000 C 
ATOM      4  C   UNL     1       6.985   6.093  18.040  0.00  0.00    +0.000 C 
ATOM      5  C   UNL     1       6.053   7.151  17.468  0.00  0.00    +0.000 C 
ATOM      6  C   UNL     1       5.008   6.568  16.510  0.00  0.00    +0.000 C 
ATOM      7  C   UNL     1       5.692   6.095  15.187  0.00  0.00    +0.000 C 
ATOM      8  N   UNL     1       6.282   4.756  15.129  0.00  0.00    +0.000 NA
ATOM      9  C   UNL     1       7.006   4.252  16.288  0.00  0.00    +0.000 C 
ENDROOT
BRANCH   1  10
ATOM     10  C   UNL     1       3.025   5.939  17.849  0.00  0.00    +0.000 C 
BRANCH  10  15
ATOM     11  C   UNL     1       1.062   2.852  18.939  0.00  0.00    +0.000 A 
ATOM     12  C   UNL     1       1.202   2.887  20.323  0.00  0.00    +0.000 A 
ATOM     13  C   UNL     1       1.974   3.884  20.906  0.00  0.00    +0.000 A 
ATOM     14  C   UNL     1       2.586   4.847  20.108  0.00  0.00    +0.000 A 
ATOM     15  C   UNL     1       2.398   4.861  18.715  0.00  0.00    +0.000 A 
ATOM     16  C   UNL     1       1.649   3.829  18.132  0.00  0.00    +0.000 A 
BRANCH  11  17
ATOM     17  O   UNL     1       0.344   1.863  18.325  0.00  0.00    +0.000 OA
ATOM     18  H   UNL     1       0.860   1.542  17.569  0.00  0.00    +0.000 HD
ENDBRANCH  11  17
ENDBRANCH  10  15
ENDBRANCH   1  10
BRANCH   8  19
ATOM     19  C   UNL     1       6.919   4.434  13.844  0.00  0.00    +0.000 C 
BRANCH  19  20
ATOM     20  C   UNL     1       6.073   3.657  12.862  0.00  0.00    +0.000 A 
ATOM     21  C   UNL     1       4.775   4.064  12.533  0.00  0.00    +0.000 A 
ATOM     22  C   UNL     1       4.041   3.354  11.587  0.00  0.00    +0.000 A 
ATOM     23  C   UNL     1       4.626   2.242  11.005  0.00  0.00    +0.000 A 
ATOM     24  N   UNL     1       5.864   1.802  11.307  0.00  0.00    +0.000 NA
ATOM     25  C   UNL     1       6.555   2.516  12.227  0.00  0.00    +0.000 A 
ENDBRANCH  19  20
ENDBRANCH   8  19
TORSDOF 5
ENDMDL
MODEL 4
REMARK VINA RESULT:      -7.7      1.921      2.457
REMARK  Name = 
REMARK  5 active torsions:
REMARK  status: ('A' for Active; 'I' for Inactive)
REMARK    1  A    between atoms: O_1  and  C_2
REMARK    2  A    between atoms: C_6  and  C_7
REMARK    3  A    between atoms: C_7  and  N_8
REMARK    4  A    between atoms: N_15  and  C_16
REMARK    5  A    between atoms: C_16  and  C_17
REMARK                            x       y       z     vdW  Elec       q    Type
REMARK                         _______ _______ _______ _____ _____    ______ ____
ROOT
ATOM      1  N   UNL     1       6.260   5.029  15.517  0.00  0.00    +0.000 NA
ATOM      2  C   UNL     1       5.186   6.031  15.573  0.00  0.00    +0.000 C 
ATOM      3  C   UNL     1       5.038   6.729  16.929  0.00  0.00    +0.000 C 
ATOM      4  C   UNL     1       6.356   7.391  17.339  0.00  0.00    +0.000 C 
ATOM      5  C   UNL     1       7.558   6.491  17.088  0.00  0.00    +0.000 C 
ATOM      6  C   UNL     1       7.159   5.067  16.682  0.00  0.00    +0.000 C 
ATOM      7  C   UNL     1       6.531   4.314  17.899  0.00  0.00    +0.000 C 
ATOM      8  N   UNL     1       5.104   4.479  18.180  0.00  0.00    +0.000 NA
ATOM      9  C   UNL     1       4.501   5.796  18.028  0.00  0.00    +0.000 C 
ENDROOT
BRANCH   1  10
ATOM     10  C   UNL     1       6.952   5.016  14.218  0.00  0.00    +0.000 C 
BRANCH  10  15
ATOM     11  C   UNL     1       6.502   2.264  11.610  0.00  0.00    +0.000 A 
ATOM     12  C   UNL     1       5.153   2.378  11.290  0.00  0.00    +0.000 A 
ATOM     13  C   UNL     1       4.371   3.316  11.953  0.00  0.00    +0.000 A 
ATOM     14  C   UNL     1       4.943   4.143  12.918  0.00  0.00    +0.000 A 
ATOM     15  C   UNL     1       6.319   4.082  13.202  0.00  0.00    +0.000 A 
ATOM     16  C   UNL     1       7.091   3.107  12.555  0.00  0.00    +0.000 A 
BRANCH  11  17
ATOM     17  O   UNL     1       7.295   1.326  11.009  0.00  0.00    +0.000 OA
ATOM     18  H   UNL     1       8.028   1.787  10.572  0.00  0.00    +0.000 HD
ENDBRANCH  11  17
ENDBRANCH  10  15
ENDBRANCH   1  10
BRANCH   8  19
ATOM     19  C   UNL     1       4.635   3.745  19.364  0.00  0.00    +0.000 C 
BRANCH  19  20
ATOM     20  C   UNL     1       3.172   3.362  19.368  0.00  0.00    +0.000 A 
ATOM     21  C   UNL     1       2.315   3.758  20.401  0.00  0.00    +0.000 A 
ATOM     22  C   UNL     1       0.963   3.432  20.349  0.00  0.00    +0.000 A 
ATOM     23  C   UNL     1       0.508   2.703  19.265  0.00  0.00    +0.000 A 
ATOM     24  N   UNL     1       1.300   2.282  18.257  0.00  0.00    +0.000 NA
ATOM     25  C   UNL     1       2.609   2.619  18.334  0.00  0.00    +0.000 A 
ENDBRANCH  19  20
ENDBRANCH   8  19
TORSDOF 5
ENDMDL
MODEL 5
REMARK VINA RESULT:      -7.6      1.747      2.238
REMARK  Name = 
REMARK  5 active torsions:
REMARK  status: ('A' for Active; 'I' for Inactive)
REMARK    1  A    between atoms: O_1  and  C_2
REMARK    2  A    between atoms: C_6  and  C_7
REMARK    3  A    between atoms: C_7  and  N_8
REMARK    4  A    between atoms: N_15  and  C_16
REMARK    5  A    between atoms: C_16  and  C_17
REMARK                            x       y       z     vdW  Elec       q    Type
REMARK                         _______ _______ _______ _____ _____    ______ ____
ROOT
ATOM      1  N   UNL     1       5.643   5.107  15.460  0.00  0.00    +0.000 NA
ATOM      2  C   UNL     1       5.716   6.510  15.894  0.00  0.00    +0.000 C 
ATOM      3  C   UNL     1       5.462   6.727  17.390  0.00  0.00    +0.000 C 
ATOM      4  C   UNL     1       6.439   5.897  18.226  0.00  0.00    +0.000 C 
ATOM      5  C   UNL     1       6.600   4.481  17.692  0.00  0.00    +0.000 C 
ATOM      6  C   UNL     1       5.600   4.150  16.577  0.00  0.00    +0.000 C 
ATOM      7  C   UNL     1       4.156   4.035  17.163  0.00  0.00    +0.000 C 
ATOM      8  N   UNL     1       3.354   5.249  17.324  0.00  0.00    +0.000 NA
ATOM      9  C   UNL     1       4.001   6.467  17.793  0.00  0.00    +0.000 C 
ENDROOT
BRANCH   1  10
ATOM     10  C   UNL     1       6.636   4.785  14.423  0.00  0.00    +0.000 C 
BRANCH  10  15
ATOM     11  C   UNL     1       6.366   2.222  11.606  0.00  0.00    +0.000 A 
ATOM     12  C   UNL     1       5.059   2.406  11.164  0.00  0.00    +0.000 A 
ATOM     13  C   UNL     1       4.244   3.328  11.809  0.00  0.00    +0.000 A 
ATOM     14  C   UNL     1       4.741   4.070  12.877  0.00  0.00    +0.000 A 
ATOM     15  C   UNL     1       6.079   3.941  13.290  0.00  0.00    +0.000 A 
ATOM     16  C   UNL     1       6.882   2.981  12.658  0.00  0.00    +0.000 A 
BRANCH  11  17
ATOM     17  O   UNL     1       7.185   1.295  11.024  0.00  0.00    +0.000 OA
ATOM     18  H   UNL     1       6.733   0.943  10.241  0.00  0.00    +0.000 HD
ENDBRANCH  11  17
ENDBRANCH  10  15
ENDBRANCH   1  10
BRANCH   8  19
ATOM     19  C   UNL     1       2.025   5.020  17.908  0.00  0.00    +0.000 C 
BRANCH  19  20
ATOM     20  C   UNL     1       1.994   4.204  19.180  0.00  0.00    +0.000 A 
ATOM     21  C   UNL     1       2.382   4.750  20.409  0.00  0.00    +0.000 A 
ATOM     22  C   UNL     1       2.293   3.987  21.570  0.00  0.00    +0.000 A 
ATOM     23  C   UNL     1       1.828   2.687  21.464  0.00  0.00    +0.000 A 
ATOM     24  N   UNL     1       1.464   2.113  20.299  0.00  0.00    +0.000 NA
ATOM     25  C   UNL     1       1.557   2.882  19.189  0.00  0.00    +0.000 A 
ENDBRANCH  19  20
ENDBRANCH   8  19
TORSDOF 5
ENDMDL
MODEL 6
REMARK VINA RESULT:      -7.6      1.255      1.578
REMARK  Name = 
REMARK  5 active torsions:
REMARK  status: ('A' for Active; 'I' for Inactive)
REMARK    1  A    between atoms: O_1  and  C_2
REMARK    2  A    between atoms: C_6  and  C_7
REMARK    3  A    between atoms: C_7  and  N_8
REMARK    4  A    between atoms: N_15  and  C_16
REMARK    5  A    between atoms: C_16  and  C_17
REMARK                            x       y       z     vdW  Elec       q    Type
REMARK                         _______ _______ _______ _____ _____    ______ ____
ROOT
ATOM      1  N   UNL     1       5.733   4.728  16.654  0.00  0.00    +0.000 NA
ATOM      2  C   UNL     1       5.338   5.891  15.844  0.00  0.00    +0.000 C 
ATOM      3  C   UNL     1       5.167   7.190  16.639  0.00  0.00    +0.000 C 
ATOM      4  C   UNL     1       6.453   7.528  17.398  0.00  0.00    +0.000 C 
ATOM      5  C   UNL     1       7.061   6.310  18.078  0.00  0.00    +0.000 C 
ATOM      6  C   UNL     1       6.145   5.080  18.022  0.00  0.00    +0.000 C 
ATOM      7  C   UNL     1       4.903   5.290  18.946  0.00  0.00    +0.000 C 
ATOM      8  N   UNL     1       3.737   6.003  18.421  0.00  0.00    +0.000 NA
ATOM      9  C   UNL     1       3.943   7.166  17.570  0.00  0.00    +0.000 C 
ENDROOT
BRANCH   1  10
ATOM     10  C   UNL     1       6.672   3.842  15.947  0.00  0.00    +0.000 C 
BRANCH  10  15
ATOM     11  C   UNL     1       5.787   3.551  12.245  0.00  0.00    +0.000 A 
ATOM     12  C   UNL     1       6.725   4.389  11.650  0.00  0.00    +0.000 A 
ATOM     13  C   UNL     1       7.618   5.090  12.450  0.00  0.00    +0.000 A 
ATOM     14  C   UNL     1       7.580   4.939  13.834  0.00  0.00    +0.000 A 
ATOM     15  C   UNL     1       6.681   4.045  14.442  0.00  0.00    +0.000 A 
ATOM     16  C   UNL     1       5.759   3.371  13.629  0.00  0.00    +0.000 A 
BRANCH  11  17
ATOM     17  O   UNL     1       4.865   2.876  11.494  0.00  0.00    +0.000 OA
ATOM     18  H   UNL     1       5.285   2.625  10.656  0.00  0.00    +0.000 HD
ENDBRANCH  11  17
ENDBRANCH  10  15
ENDBRANCH   1  10
BRANCH   8  19
ATOM     19  C   UNL     1       2.642   6.161  19.389  0.00  0.00    +0.000 C 
BRANCH  19  20
ATOM     20  C   UNL     1       2.138   4.889  20.032  0.00  0.00    +0.000 A 
ATOM     21  C   UNL     1       1.298   4.005  19.344  0.00  0.00    +0.000 A 
ATOM     22  C   UNL     1       0.893   2.818  19.948  0.00  0.00    +0.000 A 
ATOM     23  C   UNL     1       1.332   2.555  21.234  0.00  0.00    +0.000 A 
ATOM     24  N   UNL     1       2.124   3.386  21.941  0.00  0.00    +0.000 NA
ATOM     25  C   UNL     1       2.505   4.531  21.326  0.00  0.00    +0.000 A 
ENDBRANCH  19  20
ENDBRANCH   8  19
TORSDOF 5
ENDMDL
MODEL 7
REMARK VINA RESULT:      -7.6      1.715      2.109
REMARK  Name = 
REMARK  5 active torsions:
REMARK  status: ('A' for Active; 'I' for Inactive)
REMARK    1  A    between atoms: O_1  and  C_2
REMARK    2  A    between atoms: C_6  and  C_7
REMARK    3  A    between atoms: C_7  and  N_8
REMARK    4  A    between atoms: N_15  and  C_16
REMARK    5  A    between atoms: C_16  and  C_17
REMARK                            x       y       z     vdW  Elec       q    Type
REMARK                         _______ _______ _______ _____ _____    ______ ____
ROOT
ATOM      1  N   UNL     1       5.455   5.074  15.413  0.00  0.00    +0.000 NA
ATOM      2  C   UNL     1       5.425   6.481  15.842  0.00  0.00    +0.000 C 
ATOM      3  C   UNL     1       5.142   6.684  17.334  0.00  0.00    +0.000 C 
ATOM      4  C   UNL     1       6.168   5.928  18.183  0.00  0.00    +0.000 C 
ATOM      5  C   UNL     1       6.433   4.525  17.656  0.00  0.00    +0.000 C 
ATOM      6  C   UNL     1       5.469   4.120  16.534  0.00  0.00    +0.000 C 
ATOM      7  C   UNL     1       4.032   3.906  17.107  0.00  0.00    +0.000 C 
ATOM      8  N   UNL     1       3.145   5.061  17.255  0.00  0.00    +0.000 NA
ATOM      9  C   UNL     1       3.699   6.323  17.725  0.00  0.00    +0.000 C 
ENDROOT
BRANCH   1  10
ATOM     10  C   UNL     1       6.478   4.820  14.387  0.00  0.00    +0.000 C 
BRANCH  10  15
ATOM     11  C   UNL     1       6.373   2.202  11.609  0.00  0.00    +0.000 A 
ATOM     12  C   UNL     1       5.090   2.368  11.096  0.00  0.00    +0.000 A 
ATOM     13  C   UNL     1       4.236   3.296  11.679  0.00  0.00    +0.000 A 
ATOM     14  C   UNL     1       4.672   4.062  12.757  0.00  0.00    +0.000 A 
ATOM     15  C   UNL     1       5.987   3.950  13.243  0.00  0.00    +0.000 A 
ATOM     16  C   UNL     1       6.828   2.985  12.672  0.00  0.00    +0.000 A 
BRANCH  11  17
ATOM     17  O   UNL     1       7.228   1.271  11.089  0.00  0.00    +0.000 OA
ATOM     18  H   UNL     1       6.922   1.047  10.195  0.00  0.00    +0.000 HD
ENDBRANCH  11  17
ENDBRANCH  10  15
ENDBRANCH   1  10
BRANCH   8  19
ATOM     19  C   UNL     1       1.830   4.740  17.829  0.00  0.00    +0.000 C 
BRANCH  19  20
ATOM     20  C   UNL     1       1.841   4.157  19.223  0.00  0.00    +0.000 A 
ATOM     21  C   UNL     1       1.332   2.879  19.486  0.00  0.00    +0.000 A 
ATOM     22  C   UNL     1       1.403   2.352  20.772  0.00  0.00    +0.000 A 
ATOM     23  C   UNL     1       1.973   3.127  21.767  0.00  0.00    +0.000 A 
ATOM     24  N   UNL     1       2.456   4.370  21.564  0.00  0.00    +0.000 NA
ATOM     25  C   UNL     1       2.377   4.854  20.302  0.00  0.00    +0.000 A 
ENDBRANCH  19  20
ENDBRANCH   8  19
TORSDOF 5
ENDMDL
MODEL 8
REMARK VINA RESULT:      -7.6      2.936      4.572
REMARK  Name = 
REMARK  5 active torsions:
REMARK  status: ('A' for Active; 'I' for Inactive)
REMARK    1  A    between atoms: O_1  and  C_2
REMARK    2  A    between atoms: C_6  and  C_7
REMARK    3  A    between atoms: C_7  and  N_8
REMARK    4  A    between atoms: N_15  and  C_16
REMARK    5  A    between atoms: C_16  and  C_17
REMARK                            x       y       z     vdW  Elec       q    Type
REMARK                         _______ _______ _______ _____ _____    ______ ____
ROOT
ATOM      1  N   UNL     1       3.853   4.713  19.191  0.00  0.00    +0.000 NA
ATOM      2  C   UNL     1       3.274   4.324  20.486  0.00  0.00    +0.000 C 
ATOM      3  C   UNL     1       1.778   4.624  20.629  0.00  0.00    +0.000 C 
ATOM      4  C   UNL     1       0.985   3.946  19.508  0.00  0.00    +0.000 C 
ATOM      5  C   UNL     1       1.653   4.105  18.150  0.00  0.00    +0.000 C 
ATOM      6  C   UNL     1       2.843   5.073  18.183  0.00  0.00    +0.000 C 
ATOM      7  C   UNL     1       2.341   6.539  18.389  0.00  0.00    +0.000 C 
ATOM      8  N   UNL     1       2.095   7.022  19.749  0.00  0.00    +0.000 NA
ATOM      9  C   UNL     1       1.473   6.128  20.716  0.00  0.00    +0.000 C 
ENDROOT
BRANCH   1  10
ATOM     10  C   UNL     1       4.868   3.760  18.718  0.00  0.00    +0.000 C 
BRANCH  10  15
ATOM     11  C   UNL     1       7.068   5.787  16.346  0.00  0.00    +0.000 A 
ATOM     12  C   UNL     1       6.919   5.100  15.145  0.00  0.00    +0.000 A 
ATOM     13  C   UNL     1       6.144   3.947  15.110  0.00  0.00    +0.000 A 
ATOM     14  C   UNL     1       5.510   3.499  16.266  0.00  0.00    +0.000 A 
ATOM     15  C   UNL     1       5.599   4.221  17.469  0.00  0.00    +0.000 A 
ATOM     16  C   UNL     1       6.414   5.361  17.504  0.00  0.00    +0.000 A 
BRANCH  11  17
ATOM     17  O   UNL     1       7.856   6.901  16.430  0.00  0.00    +0.000 OA
ATOM     18  H   UNL     1       7.456   7.505  17.077  0.00  0.00    +0.000 HD
ENDBRANCH  11  17
ENDBRANCH  10  15
ENDBRANCH   1  10
BRANCH   8  19
ATOM     19  C   UNL     1       1.601   8.405  19.815  0.00  0.00    +0.000 C 
BRANCH  19  20
ATOM     20  C   UNL     1       0.997   8.829  21.135  0.00  0.00    +0.000 A 
ATOM     21  C   UNL     1      -0.389   8.904  21.315  0.00  0.00    +0.000 A 
ATOM     22  C   UNL     1      -0.912   9.249  22.558  0.00  0.00    +0.000 A 
ATOM     23  C   UNL     1      -0.028   9.525  23.587  0.00  0.00    +0.000 A 
ATOM     24  N   UNL     1       1.314   9.486  23.453  0.00  0.00    +0.000 NA
ATOM     25  C   UNL     1       1.793   9.142  22.234  0.00  0.00    +0.000 A 
ENDBRANCH  19  20
ENDBRANCH   8  19
TORSDOF 5
ENDMDL
MODEL 9
REMARK VINA RESULT:      -7.3      2.433      4.730
REMARK  Name = 
REMARK  5 active torsions:
REMARK  status: ('A' for Active; 'I' for Inactive)
REMARK    1  A    between atoms: O_1  and  C_2
REMARK    2  A    between atoms: C_6  and  C_7
REMARK    3  A    between atoms: C_7  and  N_8
REMARK    4  A    between atoms: N_15  and  C_16
REMARK    5  A    between atoms: C_16  and  C_17
REMARK                            x       y       z     vdW  Elec       q    Type
REMARK                         _______ _______ _______ _____ _____    ______ ____
ROOT
ATOM      1  N   UNL     1       3.446   3.741  18.397  0.00  0.00    +0.000 NA
ATOM      2  C   UNL     1       3.815   3.152  19.693  0.00  0.00    +0.000 C 
ATOM      3  C   UNL     1       2.682   3.128  20.725  0.00  0.00    +0.000 C 
ATOM      4  C   UNL     1       1.466   2.382  20.169  0.00  0.00    +0.000 C 
ATOM      5  C   UNL     1       1.158   2.769  18.730  0.00  0.00    +0.000 C 
ATOM      6  C   UNL     1       1.998   3.955  18.241  0.00  0.00    +0.000 C 
ATOM      7  C   UNL     1       1.545   5.268  18.956  0.00  0.00    +0.000 C 
ATOM      8  N   UNL     1       2.107   5.596  20.267  0.00  0.00    +0.000 NA
ATOM      9  C   UNL     1       2.307   4.529  21.238  0.00  0.00    +0.000 C 
ENDROOT
BRANCH   1  10
ATOM     10  C   UNL     1       4.082   3.051  17.263  0.00  0.00    +0.000 C 
BRANCH  10  15
ATOM     11  C   UNL     1       6.390   5.946  16.332  0.00  0.00    +0.000 A 
ATOM     12  C   UNL     1       6.947   5.506  15.136  0.00  0.00    +0.000 A 
ATOM     13  C   UNL     1       6.614   4.248  14.649  0.00  0.00    +0.000 A 
ATOM     14  C   UNL     1       5.718   3.445  15.350  0.00  0.00    +0.000 A 
ATOM     15  C   UNL     1       5.097   3.905  16.525  0.00  0.00    +0.000 A 
ATOM     16  C   UNL     1       5.468   5.161  17.028  0.00  0.00    +0.000 A 
BRANCH  11  17
ATOM     17  O   UNL     1       6.724   7.160  16.864  0.00  0.00    +0.000 OA
ATOM     18  H   UNL     1       5.946   7.738  16.808  0.00  0.00    +0.000 HD
ENDBRANCH  11  17
ENDBRANCH  10  15
ENDBRANCH   1  10
BRANCH   8  19
ATOM     19  C   UNL     1       1.587   6.840  20.852  0.00  0.00    +0.000 C 
BRANCH  19  20
ATOM     20  C   UNL     1       1.592   8.050  19.946  0.00  0.00    +0.000 A 
ATOM     21  C   UNL     1       2.249   8.035  18.710  0.00  0.00    +0.000 A 
ATOM     22  C   UNL     1       2.193   9.149  17.877  0.00  0.00    +0.000 A 
ATOM     23  C   UNL     1       1.487  10.257  18.313  0.00  0.00    +0.000 A 
ATOM     24  N   UNL     1       0.856  10.323  19.504  0.00  0.00    +0.000 NA
ATOM     25  C   UNL     1       0.926   9.222  20.290  0.00  0.00    +0.000 A 
ENDBRANCH  19  20
ENDBRANCH   8  19
TORSDOF 5
ENDMDL
