MODEL 1
REMARK VINA RESULT:      -7.9      0.000      0.000
REMARK  Name = 
REMARK  6 active torsions:
REMARK  status: ('A' for Active; 'I' for Inactive)
REMARK    1  A    between atoms: C_1  and  O_2
REMARK    2  A    between atoms: O_2  and  C_3
REMARK    3  A    between atoms: C_6  and  N_7
REMARK    4  A    between atoms: C_12  and  C_13
REMARK    5  A    between atoms: N_15  and  C_16
REMARK    6  A    between atoms: C_16  and  C_17
REMARK                            x       y       z     vdW  Elec       q    Type
REMARK                         _______ _______ _______ _____ _____    ______ ____
ROOT
ATOM      1  C   UNL     1       5.315   5.472  16.131  0.00  0.00    +0.000 A 
ATOM      2  C   UNL     1       5.219   4.122  16.429  0.00  0.00    +0.000 A 
ATOM      3  C   UNL     1       4.305   3.667  17.388  0.00  0.00    +0.000 A 
ATOM      4  C   UNL     1       3.489   4.577  18.091  0.00  0.00    +0.000 A 
ATOM      5  C   UNL     1       3.583   5.954  17.809  0.00  0.00    +0.000 A 
ATOM      6  C   UNL     1       4.498   6.371  16.816  0.00  0.00    +0.000 A 
ENDROOT
BRANCH   4   7
ATOM      7  N   UNL     1       2.592   4.053  19.070  0.00  0.00    +0.000 N 
ATOM      8  C   UNL     1       1.284   3.655  18.873  0.00  0.00    +0.000 A 
ATOM      9  C   UNL     1       0.755   3.407  20.118  0.00  0.00    +0.000 A 
ATOM     10  C   UNL     1       1.836   3.574  20.995  0.00  0.00    +0.000 A 
ATOM     11  N   UNL     1       2.967   3.842  20.352  0.00  0.00    +0.000 NA
ENDBRANCH   4   7
BRANCH   5  12
ATOM     12  C   UNL     1       2.756   7.002  18.391  0.00  0.00    +0.000 A 
ATOM     13  C   UNL     1       2.548   7.193  19.743  0.00  0.00    +0.000 A 
ATOM     14  N   UNL     1       1.790   8.319  19.805  0.00  0.00    +0.000 N 
ATOM     15  N   UNL     1       1.545   8.820  18.587  0.00  0.00    +0.000 NA
ATOM     16  N   UNL     1       2.168   8.041  17.710  0.00  0.00    +0.000 NA
BRANCH  14  17
ATOM     17  C   UNL     1       1.387   9.028  20.990  0.00  0.00    +0.000 C 
BRANCH  17  18
ATOM     18  C   UNL     1      -0.126   9.044  21.223  0.00  0.00    +0.000 C 
ATOM     19  C   UNL     1      -0.542   9.055  22.712  0.00  0.00    +0.000 C 
ATOM     20  N   UNL     1      -0.240  10.327  23.395  0.00  0.00    +0.000 NA
ATOM     21  C   UNL     1      -0.868  11.422  22.638  0.00  0.00    +0.000 C 
ATOM     22  C   UNL     1      -0.464  11.424  21.158  0.00  0.00    +0.000 C 
ATOM     23  O   UNL     1      -0.723  10.163  20.526  0.00  0.00    +0.000 OA
ATOM     24  H   UNL     1       0.766  10.471  23.436  0.00  0.00    +0.000 HD
ENDBRANCH  17  18
ENDBRANCH  14  17
ENDBRANCH   5  12
BRANCH   1  26
ATOM     25  C   UNL     1       7.287   4.896  14.932  0.00  0.00    +0.000 C 
ATOM     26  O   UNL     1       6.223   5.819  15.167  0.00  0.00    +0.000 OA
ENDBRANCH   1  26
TORSDOF 5
ENDMDL
MODEL 2
REMARK VINA RESULT:      -7.8      1.418      1.724
REMARK  Name = 
REMARK  6 active torsions:
REMARK  status: ('A' for Active; 'I' for Inactive)
REMARK    1  A    between atoms: C_1  and  O_2
REMARK    2  A    between atoms: O_2  and  C_3
REMARK    3  A    between atoms: C_6  and  N_7
REMARK    4  A    between atoms: C_12  and  C_13
REMARK    5  A    between atoms: N_15  and  C_16
REMARK    6  A    between atoms: C_16  and  C_17
REMARK                            x       y       z     vdW  Elec       q    Type
REMARK                         _______ _______ _______ _____ _____    ______ ____
ROOT
ATOM      1  C   UNL     1       5.293   5.532  15.997  0.00  0.00    +0.000 A 
ATOM      2  C   UNL     1       5.157   4.177  16.253  0.00  0.00    +0.000 A 
ATOM      3  C   UNL     1       4.272   3.724  17.240  0.00  0.00    +0.000 A 
ATOM      4  C   UNL     1       3.527   4.639  18.012  0.00  0.00    +0.000 A 
ATOM      5  C   UNL     1       3.663   6.021  17.773  0.00  0.00    +0.000 A 
ATOM      6  C   UNL     1       4.547   6.436  16.750  0.00  0.00    +0.000 A 
ENDROOT
BRANCH   4   7
ATOM      7  N   UNL     1       2.658   4.116  19.016  0.00  0.00    +0.000 N 
ATOM      8  C   UNL     1       1.326   3.779  18.871  0.00  0.00    +0.000 A 
ATOM      9  C   UNL     1       0.848   3.506  20.131  0.00  0.00    +0.000 A 
ATOM     10  C   UNL     1       1.976   3.597  20.958  0.00  0.00    +0.000 A 
ATOM     11  N   UNL     1       3.085   3.842  20.269  0.00  0.00    +0.000 NA
ENDBRANCH   4   7
BRANCH   5  12
ATOM     12  C   UNL     1       2.908   7.079  18.429  0.00  0.00    +0.000 A 
ATOM     13  C   UNL     1       2.402   8.201  17.802  0.00  0.00    +0.000 A 
ATOM     14  N   UNL     1       1.715   8.844  18.783  0.00  0.00    +0.000 N 
ATOM     15  N   UNL     1       1.763   8.177  19.943  0.00  0.00    +0.000 NA
ATOM     16  N   UNL     1       2.461   7.068  19.728  0.00  0.00    +0.000 NA
BRANCH  14  17
ATOM     17  C   UNL     1       0.893  10.017  18.638  0.00  0.00    +0.000 C 
BRANCH  17  18
ATOM     18  C   UNL     1      -0.343  10.026  19.542  0.00  0.00    +0.000 C 
ATOM     19  C   UNL     1      -0.294  11.075  20.676  0.00  0.00    +0.000 C 
ATOM     20  N   UNL     1      -0.410  12.465  20.195  0.00  0.00    +0.000 NA
ATOM     21  C   UNL     1      -1.638  12.577  19.391  0.00  0.00    +0.000 C 
ATOM     22  C   UNL     1      -1.701  11.543  18.260  0.00  0.00    +0.000 C 
ATOM     23  O   UNL     1      -1.539  10.202  18.745  0.00  0.00    +0.000 OA
ATOM     24  H   UNL     1       0.397  12.705  19.624  0.00  0.00    +0.000 HD
ENDBRANCH  17  18
ENDBRANCH  14  17
ENDBRANCH   5  12
BRANCH   1  26
ATOM     25  C   UNL     1       6.843   4.804  14.345  0.00  0.00    +0.000 C 
ATOM     26  O   UNL     1       6.168   5.877  15.002  0.00  0.00    +0.000 OA
ENDBRANCH   1  26
TORSDOF 5
ENDMDL
MODEL 3
REMARK VINA RESULT:      -7.8      1.767      2.362
REMARK  Name = 
REMARK  6 active torsions:
REMARK  status: ('A' for Active; 'I' for Inactive)
REMARK    1  A    between atoms: C_1  and  O_2
REMARK    2  A    between atoms: O_2  and  C_3
REMARK    3  A    between atoms: C_6  and  N_7
REMARK    4  A    between atoms: C_12  and  C_13
REMARK    5  A    between atoms: N_15  and  C_16
REMARK    6  A    between atoms: C_16  and  C_17
REMARK                            x       y       z     vdW  Elec       q    Type
REMARK                         _______ _______ _______ _____ _____    ______ ____
ROOT
ATOM      1  C   UNL     1       5.365   5.530  16.101  0.00  0.00    +0.000 A 
ATOM      2  C   UNL     1       5.222   4.179  16.371  0.00  0.00    +0.000 A 
ATOM      3  C   UNL     1       4.292   3.736  17.320  0.00  0.00    +0.000 A 
ATOM      4  C   UNL     1       3.507   4.659  18.042  0.00  0.00    +0.000 A 
ATOM      5  C   UNL     1       3.649   6.038  17.789  0.00  0.00    +0.000 A 
ATOM      6  C   UNL     1       4.579   6.443  16.804  0.00  0.00    +0.000 A 
ENDROOT
BRANCH   4   7
ATOM      7  N   UNL     1       2.592   4.147  19.010  0.00  0.00    +0.000 N 
ATOM      8  C   UNL     1       2.854   3.865  20.336  0.00  0.00    +0.000 A 
ATOM      9  C   UNL     1       1.746   3.217  20.829  0.00  0.00    +0.000 A 
ATOM     10  C   UNL     1       0.827   3.245  19.771  0.00  0.00    +0.000 A 
ATOM     11  N   UNL     1       1.292   3.913  18.720  0.00  0.00    +0.000 NA
ENDBRANCH   4   7
BRANCH   5  12
ATOM     12  C   UNL     1       2.859   7.102  18.392  0.00  0.00    +0.000 A 
ATOM     13  C   UNL     1       2.284   8.153  17.705  0.00  0.00    +0.000 A 
ATOM     14  N   UNL     1       1.589   8.829  18.657  0.00  0.00    +0.000 N 
ATOM     15  N   UNL     1       1.698   8.247  19.858  0.00  0.00    +0.000 NA
ATOM     16  N   UNL     1       2.444   7.160  19.701  0.00  0.00    +0.000 NA
BRANCH  14  17
ATOM     17  C   UNL     1       0.707   9.948  18.455  0.00  0.00    +0.000 C 
BRANCH  17  18
ATOM     18  C   UNL     1       0.833  11.040  19.521  0.00  0.00    +0.000 C 
ATOM     19  C   UNL     1       1.690  12.253  19.092  0.00  0.00    +0.000 C 
ATOM     20  N   UNL     1       1.053  13.085  18.054  0.00  0.00    +0.000 NA
ATOM     21  C   UNL     1      -0.277  13.491  18.537  0.00  0.00    +0.000 C 
ATOM     22  C   UNL     1      -1.140  12.298  18.965  0.00  0.00    +0.000 C 
ATOM     23  O   UNL     1      -0.482  11.478  19.940  0.00  0.00    +0.000 OA
ATOM     24  H   UNL     1       0.958  12.554  17.191  0.00  0.00    +0.000 HD
ENDBRANCH  17  18
ENDBRANCH  14  17
ENDBRANCH   5  12
BRANCH   1  26
ATOM     25  C   UNL     1       6.958   4.783  14.500  0.00  0.00    +0.000 C 
ATOM     26  O   UNL     1       6.286   5.865  15.145  0.00  0.00    +0.000 OA
ENDBRANCH   1  26
TORSDOF 5
ENDMDL
MODEL 4
REMARK VINA RESULT:      -7.5      1.054      1.292
REMARK  Name = 
REMARK  6 active torsions:
REMARK  status: ('A' for Active; 'I' for Inactive)
REMARK    1  A    between atoms: C_1  and  O_2
REMARK    2  A    between atoms: O_2  and  C_3
REMARK    3  A    between atoms: C_6  and  N_7
REMARK    4  A    between atoms: C_12  and  C_13
REMARK    5  A    between atoms: N_15  and  C_16
REMARK    6  A    between atoms: C_16  and  C_17
REMARK                            x       y       z     vdW  Elec       q    Type
REMARK                         _______ _______ _______ _____ _____    ______ ____
ROOT
ATOM      1  C   UNL     1       5.722   5.392  16.262  0.00  0.00    +0.000 A 
ATOM      2  C   UNL     1       5.589   4.017  16.367  0.00  0.00    +0.000 A 
ATOM      3  C   UNL     1       4.579   3.457  17.160  0.00  0.00    +0.000 A 
ATOM      4  C   UNL     1       3.700   4.283  17.892  0.00  0.00    +0.000 A 
ATOM      5  C   UNL     1       3.830   5.683  17.807  0.00  0.00    +0.000 A 
ATOM      6  C   UNL     1       4.845   6.209  16.974  0.00  0.00    +0.000 A 
ENDROOT
BRANCH   4   7
ATOM      7  N   UNL     1       2.705   3.652  18.698  0.00  0.00    +0.000 N 
ATOM      8  C   UNL     1       1.386   3.420  18.362  0.00  0.00    +0.000 A 
ATOM      9  C   UNL     1       0.761   2.971  19.501  0.00  0.00    +0.000 A 
ATOM     10  C   UNL     1       1.793   2.859  20.443  0.00  0.00    +0.000 A 
ATOM     11  N   UNL     1       2.980   3.152  19.924  0.00  0.00    +0.000 NA
ENDBRANCH   4   7
BRANCH   5  12
ATOM     12  C   UNL     1       2.954   6.661  18.436  0.00  0.00    +0.000 A 
ATOM     13  C   UNL     1       2.348   6.509  19.668  0.00  0.00    +0.000 A 
ATOM     14  N   UNL     1       1.708   7.691  19.868  0.00  0.00    +0.000 N 
ATOM     15  N   UNL     1       1.901   8.540  18.851  0.00  0.00    +0.000 NA
ATOM     16  N   UNL     1       2.700   7.932  17.981  0.00  0.00    +0.000 NA
BRANCH  14  17
ATOM     17  C   UNL     1       1.013   8.110  21.058  0.00  0.00    +0.000 C 
BRANCH  17  18
ATOM     18  C   UNL     1       1.436   9.488  21.573  0.00  0.00    +0.000 C 
ATOM     19  C   UNL     1       0.663  10.669  20.941  0.00  0.00    +0.000 C 
ATOM     20  N   UNL     1      -0.748  10.740  21.366  0.00  0.00    +0.000 NA
ATOM     21  C   UNL     1      -0.788  10.777  22.837  0.00  0.00    +0.000 C 
ATOM     22  C   UNL     1      -0.026   9.611  23.479  0.00  0.00    +0.000 C 
ATOM     23  O   UNL     1       1.329   9.532  23.016  0.00  0.00    +0.000 OA
ATOM     24  H   UNL     1      -1.256   9.926  21.028  0.00  0.00    +0.000 HD
ENDBRANCH  17  18
ENDBRANCH  14  17
ENDBRANCH   5  12
BRANCH   1  26
ATOM     25  C   UNL     1       7.079   5.011  14.345  0.00  0.00    +0.000 C 
ATOM     26  O   UNL     1       6.726   5.845  15.449  0.00  0.00    +0.000 OA
ENDBRANCH   1  26
TORSDOF 5
ENDMDL
MODEL 5
REMARK VINA RESULT:      -7.5      1.756      2.125
REMARK  Name = 
REMARK  6 active torsions:
REMARK  status: ('A' for Active; 'I' for Inactive)
REMARK    1  A    between atoms: C_1  and  O_2
REMARK    2  A    between atoms: O_2  and  C_3
REMARK    3  A    between atoms: C_6  and  N_7
REMARK    4  A    between atoms: C_12  and  C_13
REMARK    5  A    between atoms: N_15  and  C_16
REMARK    6  A    between atoms: C_16  and  C_17
REMARK                            x       y       z     vdW  Elec       q    Type
REMARK                         _______ _______ _______ _____ _____    ______ ____
ROOT
ATOM      1  C   UNL     1       5.127   5.457  16.216  0.00  0.00    +0.000 A 
ATOM      2  C   UNL     1       4.977   4.080  16.234  0.00  0.00    +0.000 A 
ATOM      3  C   UNL     1       4.114   3.469  17.153  0.00  0.00    +0.000 A 
ATOM      4  C   UNL     1       3.407   4.242  18.098  0.00  0.00    +0.000 A 
ATOM      5  C   UNL     1       3.558   5.643  18.101  0.00  0.00    +0.000 A 
ATOM      6  C   UNL     1       4.418   6.223  17.140  0.00  0.00    +0.000 A 
ENDROOT
BRANCH   4   7
ATOM      7  N   UNL     1       2.559   3.559  19.021  0.00  0.00    +0.000 N 
ATOM      8  C   UNL     1       1.202   3.337  18.897  0.00  0.00    +0.000 A 
ATOM      9  C   UNL     1       0.774   2.820  20.097  0.00  0.00    +0.000 A 
ATOM     10  C   UNL     1       1.949   2.663  20.846  0.00  0.00    +0.000 A 
ATOM     11  N   UNL     1       3.033   2.993  20.154  0.00  0.00    +0.000 NA
ENDBRANCH   4   7
BRANCH   5  12
ATOM     12  C   UNL     1       2.840   6.576  18.957  0.00  0.00    +0.000 A 
ATOM     13  C   UNL     1       2.389   7.824  18.571  0.00  0.00    +0.000 A 
ATOM     14  N   UNL     1       1.717   8.283  19.659  0.00  0.00    +0.000 N 
ATOM     15  N   UNL     1       1.722   7.392  20.659  0.00  0.00    +0.000 NA
ATOM     16  N   UNL     1       2.376   6.320  20.224  0.00  0.00    +0.000 NA
BRANCH  14  17
ATOM     17  C   UNL     1       0.946   9.495  19.753  0.00  0.00    +0.000 C 
BRANCH  17  18
ATOM     18  C   UNL     1       0.703  10.185  18.408  0.00  0.00    +0.000 C 
ATOM     19  C   UNL     1      -0.772  10.180  17.948  0.00  0.00    +0.000 C 
ATOM     20  N   UNL     1      -1.643  11.051  18.759  0.00  0.00    +0.000 NA
ATOM     21  C   UNL     1      -1.070  12.407  18.762  0.00  0.00    +0.000 C 
ATOM     22  C   UNL     1       0.395  12.428  19.218  0.00  0.00    +0.000 C 
ATOM     23  O   UNL     1       1.213  11.538  18.446  0.00  0.00    +0.000 OA
ATOM     24  H   UNL     1      -1.698  10.700  19.712  0.00  0.00    +0.000 HD
ENDBRANCH  17  18
ENDBRANCH  14  17
ENDBRANCH   5  12
BRANCH   1  26
ATOM     25  C   UNL     1       6.765   5.015  14.547  0.00  0.00    +0.000 C 
ATOM     26  O   UNL     1       5.978   5.963  15.270  0.00  0.00    +0.000 OA
ENDBRANCH   1  26
TORSDOF 5
ENDMDL
MODEL 6
REMARK VINA RESULT:      -7.4      1.487      1.971
REMARK  Name = 
REMARK  6 active torsions:
REMARK  status: ('A' for Active; 'I' for Inactive)
REMARK    1  A    between atoms: C_1  and  O_2
REMARK    2  A    between atoms: O_2  and  C_3
REMARK    3  A    between atoms: C_6  and  N_7
REMARK    4  A    between atoms: C_12  and  C_13
REMARK    5  A    between atoms: N_15  and  C_16
REMARK    6  A    between atoms: C_16  and  C_17
REMARK                            x       y       z     vdW  Elec       q    Type
REMARK                         _______ _______ _______ _____ _____    ______ ____
ROOT
ATOM      1  C   UNL     1       5.576   6.119  16.914  0.00  0.00    +0.000 A 
ATOM      2  C   UNL     1       5.439   4.791  16.542  0.00  0.00    +0.000 A 
ATOM      3  C   UNL     1       4.407   4.006  17.072  0.00  0.00    +0.000 A 
ATOM      4  C   UNL     1       3.509   4.543  18.018  0.00  0.00    +0.000 A 
ATOM      5  C   UNL     1       3.642   5.888  18.416  0.00  0.00    +0.000 A 
ATOM      6  C   UNL     1       4.680   6.654  17.838  0.00  0.00    +0.000 A 
ENDROOT
BRANCH   4   7
ATOM      7  N   UNL     1       2.491   3.686  18.536  0.00  0.00    +0.000 N 
ATOM      8  C   UNL     1       2.573   2.876  19.651  0.00  0.00    +0.000 A 
ATOM      9  C   UNL     1       1.441   2.095  19.657  0.00  0.00    +0.000 A 
ATOM     10  C   UNL     1       0.685   2.571  18.577  0.00  0.00    +0.000 A 
ATOM     11  N   UNL     1       1.261   3.609  17.979  0.00  0.00    +0.000 NA
ENDBRANCH   4   7
BRANCH   5  12
ATOM     12  C   UNL     1       2.750   6.603  19.317  0.00  0.00    +0.000 A 
ATOM     13  C   UNL     1       2.237   7.865  19.093  0.00  0.00    +0.000 A 
ATOM     14  N   UNL     1       1.406   8.076  20.147  0.00  0.00    +0.000 N 
ATOM     15  N   UNL     1       1.376   7.024  20.975  0.00  0.00    +0.000 NA
ATOM     16  N   UNL     1       2.169   6.094  20.454  0.00  0.00    +0.000 NA
BRANCH  14  17
ATOM     17  C   UNL     1       0.525   9.197  20.345  0.00  0.00    +0.000 C 
BRANCH  17  18
ATOM     18  C   UNL     1       1.060  10.246  21.323  0.00  0.00    +0.000 C 
ATOM     19  C   UNL     1       0.483  11.665  21.115  0.00  0.00    +0.000 C 
ATOM     20  N   UNL     1      -0.940  11.779  21.487  0.00  0.00    +0.000 NA
ATOM     21  C   UNL     1      -1.095  11.318  22.876  0.00  0.00    +0.000 C 
ATOM     22  C   UNL     1      -0.527   9.910  23.098  0.00  0.00    +0.000 C 
ATOM     23  O   UNL     1       0.843   9.810  22.686  0.00  0.00    +0.000 OA
ATOM     24  H   UNL     1      -1.510  11.206  20.869  0.00  0.00    +0.000 HD
ENDBRANCH  17  18
ENDBRANCH  14  17
ENDBRANCH   5  12
BRANCH   1  26
ATOM     25  C   UNL     1       7.481   7.513  17.209  0.00  0.00    +0.000 C 
ATOM     26  O   UNL     1       6.603   6.811  16.329  0.00  0.00    +0.000 OA
ENDBRANCH   1  26
TORSDOF 5
ENDMDL
MODEL 7
REMARK VINA RESULT:      -7.3      1.406      1.611
REMARK  Name = 
REMARK  6 active torsions:
REMARK  status: ('A' for Active; 'I' for Inactive)
REMARK    1  A    between atoms: C_1  and  O_2
REMARK    2  A    between atoms: O_2  and  C_3
REMARK    3  A    between atoms: C_6  and  N_7
REMARK    4  A    between atoms: C_12  and  C_13
REMARK    5  A    between atoms: N_15  and  C_16
REMARK    6  A    between atoms: C_16  and  C_17
REMARK                            x       y       z     vdW  Elec       q    Type
REMARK                         _______ _______ _______ _____ _____    ______ ____
ROOT
ATOM      1  C   UNL     1       6.142   6.120  17.223  0.00  0.00    +0.000 A 
ATOM      2  C   UNL     1       6.108   4.736  17.186  0.00  0.00    +0.000 A 
ATOM      3  C   UNL     1       4.993   4.037  17.668  0.00  0.00    +0.000 A 
ATOM      4  C   UNL     1       3.899   4.729  18.228  0.00  0.00    +0.000 A 
ATOM      5  C   UNL     1       3.923   6.137  18.284  0.00  0.00    +0.000 A 
ATOM      6  C   UNL     1       5.054   6.805  17.763  0.00  0.00    +0.000 A 
ENDROOT
BRANCH   4   7
ATOM      7  N   UNL     1       2.801   3.960  18.720  0.00  0.00    +0.000 N 
ATOM      8  C   UNL     1       1.639   3.643  18.045  0.00  0.00    +0.000 A 
ATOM      9  C   UNL     1       0.796   3.061  18.962  0.00  0.00    +0.000 A 
ATOM     10  C   UNL     1       1.563   2.970  20.131  0.00  0.00    +0.000 A 
ATOM     11  N   UNL     1       2.808   3.398  19.949  0.00  0.00    +0.000 NA
ENDBRANCH   4   7
BRANCH   5  12
ATOM     12  C   UNL     1       2.842   6.990  18.757  0.00  0.00    +0.000 A 
ATOM     13  C   UNL     1       2.281   6.938  20.018  0.00  0.00    +0.000 A 
ATOM     14  N   UNL     1       1.385   7.960  20.023  0.00  0.00    +0.000 N 
ATOM     15  N   UNL     1       1.384   8.625  18.861  0.00  0.00    +0.000 NA
ATOM     16  N   UNL     1       2.306   8.063  18.087  0.00  0.00    +0.000 NA
BRANCH  14  17
ATOM     17  C   UNL     1       0.607   8.424  21.142  0.00  0.00    +0.000 C 
BRANCH  17  18
ATOM     18  C   UNL     1       1.165   9.685  21.807  0.00  0.00    +0.000 C 
ATOM     19  C   UNL     1       0.852  10.996  21.050  0.00  0.00    +0.000 C 
ATOM     20  N   UNL     1      -0.571  11.378  21.100  0.00  0.00    +0.000 NA
ATOM     21  C   UNL     1      -0.984  11.443  22.511  0.00  0.00    +0.000 C 
ATOM     22  C   UNL     1      -0.682  10.149  23.277  0.00  0.00    +0.000 C 
ATOM     23  O   UNL     1       0.698   9.771  23.175  0.00  0.00    +0.000 OA
ATOM     24  H   UNL     1      -1.136  10.688  20.609  0.00  0.00    +0.000 HD
ENDBRANCH  17  18
ENDBRANCH  14  17
ENDBRANCH   5  12
BRANCH   1  26
ATOM     25  C   UNL     1       7.799   7.812  17.453  0.00  0.00    +0.000 C 
ATOM     26  O   UNL     1       7.265   6.714  16.713  0.00  0.00    +0.000 OA
ENDBRANCH   1  26
TORSDOF 5
ENDMDL
MODEL 8
REMARK VINA RESULT:      -7.3      4.702      6.317
REMARK  Name = 
REMARK  6 active torsions:
REMARK  status: ('A' for Active; 'I' for Inactive)
REMARK    1  A    between atoms: C_1  and  O_2
REMARK    2  A    between atoms: O_2  and  C_3
REMARK    3  A    between atoms: C_6  and  N_7
REMARK    4  A    between atoms: C_12  and  C_13
REMARK    5  A    between atoms: N_15  and  C_16
REMARK    6  A    between atoms: C_16  and  C_17
REMARK                            x       y       z     vdW  Elec       q    Type
REMARK                         _______ _______ _______ _____ _____    ______ ____
ROOT
ATOM      1  C   UNL     1       5.918   3.876  13.073  0.00  0.00    +0.000 A 
ATOM      2  C   UNL     1       7.226   4.306  13.224  0.00  0.00    +0.000 A 
ATOM      3  C   UNL     1       7.659   4.862  14.435  0.00  0.00    +0.000 A 
ATOM      4  C   UNL     1       6.763   5.024  15.512  0.00  0.00    +0.000 A 
ATOM      5  C   UNL     1       5.425   4.603  15.371  0.00  0.00    +0.000 A 
ATOM      6  C   UNL     1       5.035   4.022  14.142  0.00  0.00    +0.000 A 
ENDROOT
BRANCH   4   7
ATOM      7  N   UNL     1       7.259   5.615  16.713  0.00  0.00    +0.000 N 
ATOM      8  C   UNL     1       7.578   4.967  17.890  0.00  0.00    +0.000 A 
ATOM      9  C   UNL     1       7.827   5.944  18.824  0.00  0.00    +0.000 A 
ATOM     10  C   UNL     1       7.741   7.144  18.104  0.00  0.00    +0.000 A 
ATOM     11  N   UNL     1       7.521   6.938  16.810  0.00  0.00    +0.000 NA
ENDBRANCH   4   7
BRANCH   5  12
ATOM     12  C   UNL     1       4.408   4.631  16.412  0.00  0.00    +0.000 A 
ATOM     13  C   UNL     1       3.340   3.760  16.504  0.00  0.00    +0.000 A 
ATOM     14  N   UNL     1       2.724   4.115  17.662  0.00  0.00    +0.000 N 
ATOM     15  N   UNL     1       3.358   5.124  18.273  0.00  0.00    +0.000 NA
ATOM     16  N   UNL     1       4.420   5.424  17.534  0.00  0.00    +0.000 NA
BRANCH  14  17
ATOM     17  C   UNL     1       1.616   3.447  18.294  0.00  0.00    +0.000 C 
BRANCH  17  18
ATOM     18  C   UNL     1       1.971   2.084  18.894  0.00  0.00    +0.000 C 
ATOM     19  C   UNL     1       3.419   1.622  18.614  0.00  0.00    +0.000 C 
ATOM     20  N   UNL     1       4.437   2.410  19.336  0.00  0.00    +0.000 NA
ATOM     21  C   UNL     1       4.115   2.378  20.772  0.00  0.00    +0.000 C 
ATOM     22  C   UNL     1       2.680   2.835  21.067  0.00  0.00    +0.000 C 
ATOM     23  O   UNL     1       1.712   2.087  20.318  0.00  0.00    +0.000 OA
ATOM     24  H   UNL     1       4.433   3.372  19.004  0.00  0.00    +0.000 HD
ENDBRANCH  17  18
ENDBRANCH  14  17
ENDBRANCH   5  12
BRANCH   1  26
ATOM     25  C   UNL     1       4.206   3.300  11.524  0.00  0.00    +0.000 C 
ATOM     26  O   UNL     1       5.594   3.330  11.861  0.00  0.00    +0.000 OA
ENDBRANCH   1  26
TORSDOF 5
ENDMDL
MODEL 9
REMARK VINA RESULT:      -7.3      2.189      2.761
REMARK  Name = 
REMARK  6 active torsions:
REMARK  status: ('A' for Active; 'I' for Inactive)
REMARK    1  A    between atoms: C_1  and  O_2
REMARK    2  A    between atoms: O_2  and  C_3
REMARK    3  A    between atoms: C_6  and  N_7
REMARK    4  A    between atoms: C_12  and  C_13
REMARK    5  A    between atoms: N_15  and  C_16
REMARK    6  A    between atoms: C_16  and  C_17
REMARK                            x       y       z     vdW  Elec       q    Type
REMARK                         _______ _______ _______ _____ _____    ______ ____
ROOT
ATOM      1  C   UNL     1       6.222   5.966  17.272  0.00  0.00    +0.000 A 
ATOM      2  C   UNL     1       6.010   4.598  17.313  0.00  0.00    +0.000 A 
ATOM      3  C   UNL     1       4.778   4.080  17.735  0.00  0.00    +0.000 A 
ATOM      4  C   UNL     1       3.744   4.941  18.157  0.00  0.00    +0.000 A 
ATOM      5  C   UNL     1       3.948   6.335  18.133  0.00  0.00    +0.000 A 
ATOM      6  C   UNL     1       5.195   6.818  17.675  0.00  0.00    +0.000 A 
ENDROOT
BRANCH   4   7
ATOM      7  N   UNL     1       2.519   4.352  18.595  0.00  0.00    +0.000 N 
ATOM      8  C   UNL     1       2.144   4.083  19.897  0.00  0.00    +0.000 A 
ATOM      9  C   UNL     1       0.985   3.347  19.829  0.00  0.00    +0.000 A 
ATOM     10  C   UNL     1       0.675   3.310  18.463  0.00  0.00    +0.000 A 
ATOM     11  N   UNL     1       1.531   4.019  17.735  0.00  0.00    +0.000 NA
ENDBRANCH   4   7
BRANCH   5  12
ATOM     12  C   UNL     1       2.955   7.348  18.460  0.00  0.00    +0.000 A 
ATOM     13  C   UNL     1       2.427   8.262  17.569  0.00  0.00    +0.000 A 
ATOM     14  N   UNL     1       1.496   8.933  18.296  0.00  0.00    +0.000 N 
ATOM     15  N   UNL     1       1.422   8.475  19.552  0.00  0.00    +0.000 NA
ATOM     16  N   UNL     1       2.287   7.472  19.655  0.00  0.00    +0.000 NA
BRANCH  14  17
ATOM     17  C   UNL     1       0.567   9.920  17.814  0.00  0.00    +0.000 C 
BRANCH  17  18
ATOM     18  C   UNL     1      -0.427  10.409  18.871  0.00  0.00    +0.000 C 
ATOM     19  C   UNL     1      -0.725  11.925  18.813  0.00  0.00    +0.000 C 
ATOM     20  N   UNL     1      -1.509  12.324  17.629  0.00  0.00    +0.000 NA
ATOM     21  C   UNL     1      -2.739  11.517  17.593  0.00  0.00    +0.000 C 
ATOM     22  C   UNL     1      -2.460  10.010  17.649  0.00  0.00    +0.000 C 
ATOM     23  O   UNL     1      -1.657   9.652  18.783  0.00  0.00    +0.000 OA
ATOM     24  H   UNL     1      -0.968  12.163  16.782  0.00  0.00    +0.000 HD
ENDBRANCH  17  18
ENDBRANCH  14  17
ENDBRANCH   5  12
BRANCH   1  26
ATOM     25  C   UNL     1       7.903   7.650  17.290  0.00  0.00    +0.000 C 
ATOM     26  O   UNL     1       7.450   6.377  16.828  0.00  0.00    +0.000 OA
ENDBRANCH   1  26
TORSDOF 5
ENDMDL
