MODEL 1
REMARK VINA RESULT:      -7.8      0.000      0.000
REMARK  Name = 
REMARK  8 active torsions:
REMARK  status: ('A' for Active; 'I' for Inactive)
REMARK    1  A    between atoms: C_1  and  C_2
REMARK    2  A    between atoms: C_2  and  O_3
REMARK    3  A    between atoms: O_3  and  C_4
REMARK    4  A    between atoms: C_4  and  C_6
REMARK    5  A    between atoms: C_10  and  C_11
REMARK    6  A    between atoms: C_11  and  O_12
REMARK    7  A    between atoms: O_12  and  C_13
REMARK    8  A    between atoms: C_16  and  C_17
REMARK                            x       y       z     vdW  Elec       q    Type
REMARK                         _______ _______ _______ _____ _____    ______ ____
ROOT
ATOM      1  C   UNL     1       4.594   7.369  17.697  0.00  0.00    +0.000 C 
ENDROOT
BRANCH   1   6
ATOM      2  C   UNL     1       6.739   5.065  15.552  0.00  0.00    +0.000 A 
ATOM      3  C   UNL     1       7.538   4.443  16.520  0.00  0.00    +0.000 A 
ATOM      4  C   UNL     1       7.370   4.749  17.869  0.00  0.00    +0.000 A 
ATOM      5  C   UNL     1       6.407   5.683  18.261  0.00  0.00    +0.000 A 
ATOM      6  C   UNL     1       5.605   6.319  17.303  0.00  0.00    +0.000 A 
ATOM      7  C   UNL     1       5.768   5.985  15.950  0.00  0.00    +0.000 A 
ATOM      8  F   UNL     1       4.981   6.580  15.039  0.00  0.00    +0.000 F 
BRANCH   2   9
ATOM      9  C   UNL     1       7.020   4.759  14.137  0.00  0.00    +0.000 C 
ATOM     10  O   UNL     1       7.734   5.460  13.438  0.00  0.00    +0.000 OA
BRANCH   9  11
ATOM     11  O   UNL     1       6.212   3.756  13.715  0.00  0.00    +0.000 OA
BRANCH  11  13
ATOM     12  C   UNL     1       4.856   3.232  11.819  0.00  0.00    +0.000 C 
ATOM     13  C   UNL     1       6.273   3.471  12.310  0.00  0.00    +0.000 C 
ENDBRANCH  11  13
ENDBRANCH   9  11
ENDBRANCH   2   9
ENDBRANCH   1   6
BRANCH   1  14
ATOM     14  O   UNL     1       3.284   6.832  17.549  0.00  0.00    +0.000 OA
BRANCH  14  15
ATOM     15  C   UNL     1       2.903   5.815  18.388  0.00  0.00    +0.000 A 
ATOM     16  C   UNL     1       2.561   6.267  19.677  0.00  0.00    +0.000 A 
ATOM     17  C   UNL     1       2.228   5.376  20.701  0.00  0.00    +0.000 A 
ATOM     18  C   UNL     1       2.240   3.998  20.466  0.00  0.00    +0.000 A 
ATOM     19  C   UNL     1       2.578   3.543  19.185  0.00  0.00    +0.000 A 
ATOM     20  C   UNL     1       2.919   4.433  18.154  0.00  0.00    +0.000 A 
ATOM     21 CL   UNL     1       3.417   3.673  16.686  0.00  0.00    +0.000 Cl
BRANCH  18  22
ATOM     22  C   UNL     1       1.935   2.997  21.554  0.00  0.00    +0.000 C 
ATOM     23  F   UNL     1       2.652   1.845  21.454  0.00  0.00    +0.000 F 
ATOM     24  F   UNL     1       2.187   3.492  22.796  0.00  0.00    +0.000 F 
ATOM     25  F   UNL     1       0.625   2.625  21.559  0.00  0.00    +0.000 F 
ENDBRANCH  18  22
ENDBRANCH  14  15
ENDBRANCH   1  14
TORSDOF 7
ENDMDL
MODEL 2
REMARK VINA RESULT:      -7.7      1.351      1.833
REMARK  Name = 
REMARK  8 active torsions:
REMARK  status: ('A' for Active; 'I' for Inactive)
REMARK    1  A    between atoms: C_1  and  C_2
REMARK    2  A    between atoms: C_2  and  O_3
REMARK    3  A    between atoms: O_3  and  C_4
REMARK    4  A    between atoms: C_4  and  C_6
REMARK    5  A    between atoms: C_10  and  C_11
REMARK    6  A    between atoms: C_11  and  O_12
REMARK    7  A    between atoms: O_12  and  C_13
REMARK    8  A    between atoms: C_16  and  C_17
REMARK                            x       y       z     vdW  Elec       q    Type
REMARK                         _______ _______ _______ _____ _____    ______ ____
ROOT
ATOM      1  C   UNL     1       4.660   7.610  17.648  0.00  0.00    +0.000 C 
ENDROOT
BRANCH   1   6
ATOM      2  C   UNL     1       6.645   5.111  15.570  0.00  0.00    +0.000 A 
ATOM      3  C   UNL     1       7.384   4.447  16.558  0.00  0.00    +0.000 A 
ATOM      4  C   UNL     1       7.226   4.790  17.899  0.00  0.00    +0.000 A 
ATOM      5  C   UNL     1       6.333   5.801  18.263  0.00  0.00    +0.000 A 
ATOM      6  C   UNL     1       5.592   6.479  17.285  0.00  0.00    +0.000 A 
ATOM      7  C   UNL     1       5.743   6.109  15.939  0.00  0.00    +0.000 A 
ATOM      8  F   UNL     1       5.014   6.745  15.009  0.00  0.00    +0.000 F 
BRANCH   2   9
ATOM      9  C   UNL     1       6.918   4.758  14.164  0.00  0.00    +0.000 C 
ATOM     10  O   UNL     1       7.610   5.446  13.432  0.00  0.00    +0.000 OA
BRANCH   9  11
ATOM     11  O   UNL     1       6.126   3.725  13.788  0.00  0.00    +0.000 OA
BRANCH  11  13
ATOM     12  C   UNL     1       4.761   3.337  11.866  0.00  0.00    +0.000 C 
ATOM     13  C   UNL     1       6.183   3.384  12.396  0.00  0.00    +0.000 C 
ENDBRANCH  11  13
ENDBRANCH   9  11
ENDBRANCH   2   9
ENDBRANCH   1   6
BRANCH   1  14
ATOM     14  O   UNL     1       3.315   7.188  17.448  0.00  0.00    +0.000 OA
BRANCH  14  15
ATOM     15  C   UNL     1       2.830   6.179  18.241  0.00  0.00    +0.000 A 
ATOM     16  C   UNL     1       2.821   4.929  17.593  0.00  0.00    +0.000 A 
ATOM     17  C   UNL     1       2.285   3.791  18.204  0.00  0.00    +0.000 A 
ATOM     18  C   UNL     1       1.729   3.876  19.483  0.00  0.00    +0.000 A 
ATOM     19  C   UNL     1       1.736   5.117  20.133  0.00  0.00    +0.000 A 
ATOM     20  C   UNL     1       2.268   6.264  19.522  0.00  0.00    +0.000 A 
ATOM     21 CL   UNL     1       2.078   7.716  20.436  0.00  0.00    +0.000 Cl
BRANCH  18  22
ATOM     22  C   UNL     1       1.095   2.686  20.162  0.00  0.00    +0.000 C 
ATOM     23  F   UNL     1      -0.118   2.344  19.650  0.00  0.00    +0.000 F 
ATOM     24  F   UNL     1       1.869   1.570  20.076  0.00  0.00    +0.000 F 
ATOM     25  F   UNL     1       0.894   2.899  21.493  0.00  0.00    +0.000 F 
ENDBRANCH  18  22
ENDBRANCH  14  15
ENDBRANCH   1  14
TORSDOF 7
ENDMDL
MODEL 3
REMARK VINA RESULT:      -7.2      2.792      3.470
REMARK  Name = 
REMARK  8 active torsions:
REMARK  status: ('A' for Active; 'I' for Inactive)
REMARK    1  A    between atoms: C_1  and  C_2
REMARK    2  A    between atoms: C_2  and  O_3
REMARK    3  A    between atoms: O_3  and  C_4
REMARK    4  A    between atoms: C_4  and  C_6
REMARK    5  A    between atoms: C_10  and  C_11
REMARK    6  A    between atoms: C_11  and  O_12
REMARK    7  A    between atoms: O_12  and  C_13
REMARK    8  A    between atoms: C_16  and  C_17
REMARK                            x       y       z     vdW  Elec       q    Type
REMARK                         _______ _______ _______ _____ _____    ______ ____
ROOT
ATOM      1  C   UNL     1       4.392   3.740  19.049  0.00  0.00    +0.000 C 
ENDROOT
BRANCH   1   6
ATOM      2  C   UNL     1       6.863   4.928  16.406  0.00  0.00    +0.000 A 
ATOM      3  C   UNL     1       7.608   5.874  17.123  0.00  0.00    +0.000 A 
ATOM      4  C   UNL     1       7.328   6.114  18.466  0.00  0.00    +0.000 A 
ATOM      5  C   UNL     1       6.300   5.415  19.104  0.00  0.00    +0.000 A 
ATOM      6  C   UNL     1       5.541   4.470  18.398  0.00  0.00    +0.000 A 
ATOM      7  C   UNL     1       5.847   4.221  17.051  0.00  0.00    +0.000 A 
ATOM      8  F   UNL     1       5.134   3.299  16.386  0.00  0.00    +0.000 F 
BRANCH   2   9
ATOM      9  C   UNL     1       7.155   4.780  14.968  0.00  0.00    +0.000 C 
ATOM     10  O   UNL     1       7.799   5.602  14.336  0.00  0.00    +0.000 OA
BRANCH   9  11
ATOM     11  O   UNL     1       6.431   3.756  14.456  0.00  0.00    +0.000 OA
BRANCH  11  13
ATOM     12  C   UNL     1       5.914   3.101  12.217  0.00  0.00    +0.000 C 
ATOM     13  C   UNL     1       5.610   4.090  13.328  0.00  0.00    +0.000 C 
ENDBRANCH  11  13
ENDBRANCH   9  11
ENDBRANCH   2   9
ENDBRANCH   1   6
BRANCH   1  14
ATOM     14  O   UNL     1       3.165   4.253  18.539  0.00  0.00    +0.000 OA
BRANCH  14  15
ATOM     15  C   UNL     1       2.524   5.229  19.258  0.00  0.00    +0.000 A 
ATOM     16  C   UNL     1       2.701   6.516  18.715  0.00  0.00    +0.000 A 
ATOM     17  C   UNL     1       2.196   7.655  19.349  0.00  0.00    +0.000 A 
ATOM     18  C   UNL     1       1.507   7.539  20.560  0.00  0.00    +0.000 A 
ATOM     19  C   UNL     1       1.326   6.261  21.104  0.00  0.00    +0.000 A 
ATOM     20  C   UNL     1       1.836   5.114  20.474  0.00  0.00    +0.000 A 
ATOM     21 CL   UNL     1       1.611   3.649  21.360  0.00  0.00    +0.000 Cl
BRANCH  18  22
ATOM     22  C   UNL     1       0.987   8.744  21.305  0.00  0.00    +0.000 C 
ATOM     23  F   UNL     1       0.897   9.865  20.540  0.00  0.00    +0.000 F 
ATOM     24  F   UNL     1      -0.256   8.536  21.819  0.00  0.00    +0.000 F 
ATOM     25  F   UNL     1       1.777   9.075  22.364  0.00  0.00    +0.000 F 
ENDBRANCH  18  22
ENDBRANCH  14  15
ENDBRANCH   1  14
TORSDOF 7
ENDMDL
MODEL 4
REMARK VINA RESULT:      -7.2      5.344      9.113
REMARK  Name = 
REMARK  8 active torsions:
REMARK  status: ('A' for Active; 'I' for Inactive)
REMARK    1  A    between atoms: C_1  and  C_2
REMARK    2  A    between atoms: C_2  and  O_3
REMARK    3  A    between atoms: O_3  and  C_4
REMARK    4  A    between atoms: C_4  and  C_6
REMARK    5  A    between atoms: C_10  and  C_11
REMARK    6  A    between atoms: C_11  and  O_12
REMARK    7  A    between atoms: O_12  and  C_13
REMARK    8  A    between atoms: C_16  and  C_17
REMARK                            x       y       z     vdW  Elec       q    Type
REMARK                         _______ _______ _______ _____ _____    ______ ____
ROOT
ATOM      1  C   UNL     1       1.318   8.128  21.226  0.00  0.00    +0.000 C 
ENDROOT
BRANCH   1   6
ATOM      2  C   UNL     1      -0.787  11.244  21.830  0.00  0.00    +0.000 A 
ATOM      3  C   UNL     1      -1.049  11.665  20.520  0.00  0.00    +0.000 A 
ATOM      4  C   UNL     1      -0.564  10.932  19.439  0.00  0.00    +0.000 A 
ATOM      5  C   UNL     1       0.188   9.775  19.658  0.00  0.00    +0.000 A 
ATOM      6  C   UNL     1       0.464   9.344  20.963  0.00  0.00    +0.000 A 
ATOM      7  C   UNL     1      -0.049  10.079  22.044  0.00  0.00    +0.000 A 
ATOM      8  F   UNL     1       0.198   9.650  23.292  0.00  0.00    +0.000 F 
BRANCH   2   9
ATOM      9  C   UNL     1      -1.258  12.107  22.929  0.00  0.00    +0.000 C 
ATOM     10  O   UNL     1      -0.580  13.006  23.401  0.00  0.00    +0.000 OA
BRANCH   9  11
ATOM     11  O   UNL     1      -2.407  11.608  23.446  0.00  0.00    +0.000 OA
BRANCH  11  13
ATOM     12  C   UNL     1      -4.262  12.463  24.685  0.00  0.00    +0.000 C 
ATOM     13  C   UNL     1      -3.549  12.470  23.345  0.00  0.00    +0.000 C 
ENDBRANCH  11  13
ENDBRANCH   9  11
ENDBRANCH   2   9
ENDBRANCH   1   6
BRANCH   1  14
ATOM     14  O   UNL     1       2.155   7.895  20.098  0.00  0.00    +0.000 OA
BRANCH  14  15
ATOM     15  C   UNL     1       2.228   6.619  19.600  0.00  0.00    +0.000 A 
ATOM     16  C   UNL     1       1.595   5.671  20.427  0.00  0.00    +0.000 A 
ATOM     17  C   UNL     1       1.631   4.304  20.136  0.00  0.00    +0.000 A 
ATOM     18  C   UNL     1       2.317   3.843  19.009  0.00  0.00    +0.000 A 
ATOM     19  C   UNL     1       2.948   4.781  18.182  0.00  0.00    +0.000 A 
ATOM     20  C   UNL     1       2.919   6.155  18.472  0.00  0.00    +0.000 A 
ATOM     21 CL   UNL     1       3.852   7.134  17.399  0.00  0.00    +0.000 Cl
BRANCH  18  22
ATOM     22  C   UNL     1       2.425   2.373  18.682  0.00  0.00    +0.000 C 
ATOM     23  F   UNL     1       3.549   1.784  19.173  0.00  0.00    +0.000 F 
ATOM     24  F   UNL     1       1.378   1.656  19.173  0.00  0.00    +0.000 F 
ATOM     25  F   UNL     1       2.437   2.144  17.339  0.00  0.00    +0.000 F 
ENDBRANCH  18  22
ENDBRANCH  14  15
ENDBRANCH   1  14
TORSDOF 7
ENDMDL
MODEL 5
REMARK VINA RESULT:      -7.2      2.716      3.393
REMARK  Name = 
REMARK  8 active torsions:
REMARK  status: ('A' for Active; 'I' for Inactive)
REMARK    1  A    between atoms: C_1  and  C_2
REMARK    2  A    between atoms: C_2  and  O_3
REMARK    3  A    between atoms: O_3  and  C_4
REMARK    4  A    between atoms: C_4  and  C_6
REMARK    5  A    between atoms: C_10  and  C_11
REMARK    6  A    between atoms: C_11  and  O_12
REMARK    7  A    between atoms: O_12  and  C_13
REMARK    8  A    between atoms: C_16  and  C_17
REMARK                            x       y       z     vdW  Elec       q    Type
REMARK                         _______ _______ _______ _____ _____    ______ ____
ROOT
ATOM      1  C   UNL     1       3.953   3.624  18.898  0.00  0.00    +0.000 C 
ENDROOT
BRANCH   1   6
ATOM      2  C   UNL     1       6.688   4.707  16.479  0.00  0.00    +0.000 A 
ATOM      3  C   UNL     1       7.545   5.423  17.326  0.00  0.00    +0.000 A 
ATOM      4  C   UNL     1       7.252   5.539  18.683  0.00  0.00    +0.000 A 
ATOM      5  C   UNL     1       6.100   4.945  19.205  0.00  0.00    +0.000 A 
ATOM      6  C   UNL     1       5.230   4.230  18.369  0.00  0.00    +0.000 A 
ATOM      7  C   UNL     1       5.548   4.101  17.008  0.00  0.00    +0.000 A 
ATOM      8  F   UNL     1       4.724   3.396  16.216  0.00  0.00    +0.000 F 
BRANCH   2   9
ATOM      9  C   UNL     1       7.012   4.690  15.041  0.00  0.00    +0.000 C 
ATOM     10  O   UNL     1       7.545   5.629  14.472  0.00  0.00    +0.000 OA
BRANCH   9  11
ATOM     11  O   UNL     1       6.437   3.613  14.453  0.00  0.00    +0.000 OA
BRANCH  11  13
ATOM     12  C   UNL     1       6.577   3.320  12.086  0.00  0.00    +0.000 C 
ATOM     13  C   UNL     1       5.745   3.881  13.225  0.00  0.00    +0.000 C 
ENDBRANCH  11  13
ENDBRANCH   9  11
ENDBRANCH   2   9
ENDBRANCH   1   6
BRANCH   1  14
ATOM     14  O   UNL     1       2.845   4.380  18.420  0.00  0.00    +0.000 OA
BRANCH  14  15
ATOM     15  C   UNL     1       2.498   5.518  19.104  0.00  0.00    +0.000 A 
ATOM     16  C   UNL     1       1.810   5.248  20.302  0.00  0.00    +0.000 A 
ATOM     17  C   UNL     1       1.296   6.275  21.100  0.00  0.00    +0.000 A 
ATOM     18  C   UNL     1       1.447   7.610  20.711  0.00  0.00    +0.000 A 
ATOM     19  C   UNL     1       2.132   7.884  19.520  0.00  0.00    +0.000 A 
ATOM     20  C   UNL     1       2.645   6.856  18.712  0.00  0.00    +0.000 A 
ATOM     21 CL   UNL     1       3.351   7.391  17.231  0.00  0.00    +0.000 Cl
BRANCH  18  22
ATOM     22  C   UNL     1       0.868   8.749  21.514  0.00  0.00    +0.000 C 
ATOM     23  F   UNL     1      -0.371   8.493  22.014  0.00  0.00    +0.000 F 
ATOM     24  F   UNL     1       1.646   9.076  22.582  0.00  0.00    +0.000 F 
ATOM     25  F   UNL     1       0.748   9.889  20.778  0.00  0.00    +0.000 F 
ENDBRANCH  18  22
ENDBRANCH  14  15
ENDBRANCH   1  14
TORSDOF 7
ENDMDL
MODEL 6
REMARK VINA RESULT:      -7.1      3.293      4.682
REMARK  Name = 
REMARK  8 active torsions:
REMARK  status: ('A' for Active; 'I' for Inactive)
REMARK    1  A    between atoms: C_1  and  C_2
REMARK    2  A    between atoms: C_2  and  O_3
REMARK    3  A    between atoms: O_3  and  C_4
REMARK    4  A    between atoms: C_4  and  C_6
REMARK    5  A    between atoms: C_10  and  C_11
REMARK    6  A    between atoms: C_11  and  O_12
REMARK    7  A    between atoms: O_12  and  C_13
REMARK    8  A    between atoms: C_16  and  C_17
REMARK                            x       y       z     vdW  Elec       q    Type
REMARK                         _______ _______ _______ _____ _____    ______ ____
ROOT
ATOM      1  C   UNL     1       3.897   3.659  18.556  0.00  0.00    +0.000 C 
ENDROOT
BRANCH   1   6
ATOM      2  C   UNL     1       6.868   5.772  17.453  0.00  0.00    +0.000 A 
ATOM      3  C   UNL     1       7.030   5.357  16.124  0.00  0.00    +0.000 A 
ATOM      4  C   UNL     1       6.167   4.411  15.576  0.00  0.00    +0.000 A 
ATOM      5  C   UNL     1       5.138   3.868  16.351  0.00  0.00    +0.000 A 
ATOM      6  C   UNL     1       4.967   4.269  17.683  0.00  0.00    +0.000 A 
ATOM      7  C   UNL     1       5.829   5.239  18.218  0.00  0.00    +0.000 A 
ATOM      8  F   UNL     1       5.647   5.637  19.487  0.00  0.00    +0.000 F 
BRANCH   2   9
ATOM      9  C   UNL     1       7.862   6.715  17.997  0.00  0.00    +0.000 C 
ATOM     10  O   UNL     1       8.339   6.600  19.115  0.00  0.00    +0.000 OA
BRANCH   9  11
ATOM     11  O   UNL     1       7.971   7.791  17.182  0.00  0.00    +0.000 OA
BRANCH  11  13
ATOM     12  C   UNL     1       8.741   9.774  18.269  0.00  0.00    +0.000 C 
ATOM     13  C   UNL     1       7.524   9.033  17.743  0.00  0.00    +0.000 C 
ENDBRANCH  11  13
ENDBRANCH   9  11
ENDBRANCH   2   9
ENDBRANCH   1   6
BRANCH   1  14
ATOM     14  O   UNL     1       2.660   4.318  18.304  0.00  0.00    +0.000 OA
BRANCH  14  15
ATOM     15  C   UNL     1       2.381   5.459  19.013  0.00  0.00    +0.000 A 
ATOM     16  C   UNL     1       1.720   5.201  20.229  0.00  0.00    +0.000 A 
ATOM     17  C   UNL     1       1.274   6.236  21.056  0.00  0.00    +0.000 A 
ATOM     18  C   UNL     1       1.467   7.569  20.680  0.00  0.00    +0.000 A 
ATOM     19  C   UNL     1       2.125   7.832  19.472  0.00  0.00    +0.000 A 
ATOM     20  C   UNL     1       2.570   6.796  18.635  0.00  0.00    +0.000 A 
ATOM     21 CL   UNL     1       3.252   7.324  17.140  0.00  0.00    +0.000 Cl
BRANCH  18  22
ATOM     22  C   UNL     1       0.960   8.719  21.515  0.00  0.00    +0.000 C 
ATOM     23  F   UNL     1      -0.301   8.535  21.994  0.00  0.00    +0.000 F 
ATOM     24  F   UNL     1       1.745   8.953  22.602  0.00  0.00    +0.000 F 
ATOM     25  F   UNL     1       0.930   9.888  20.818  0.00  0.00    +0.000 F 
ENDBRANCH  18  22
ENDBRANCH  14  15
ENDBRANCH   1  14
TORSDOF 7
ENDMDL
MODEL 7
REMARK VINA RESULT:      -7.1      4.138      8.620
REMARK  Name = 
REMARK  8 active torsions:
REMARK  status: ('A' for Active; 'I' for Inactive)
REMARK    1  A    between atoms: C_1  and  C_2
REMARK    2  A    between atoms: C_2  and  O_3
REMARK    3  A    between atoms: O_3  and  C_4
REMARK    4  A    between atoms: C_4  and  C_6
REMARK    5  A    between atoms: C_10  and  C_11
REMARK    6  A    between atoms: C_11  and  O_12
REMARK    7  A    between atoms: O_12  and  C_13
REMARK    8  A    between atoms: C_16  and  C_17
REMARK                            x       y       z     vdW  Elec       q    Type
REMARK                         _______ _______ _______ _____ _____    ______ ____
ROOT
ATOM      1  C   UNL     1       2.464   6.824  19.648  0.00  0.00    +0.000 C 
ENDROOT
BRANCH   1   6
ATOM      2  C   UNL     1       0.512   9.767  21.074  0.00  0.00    +0.000 A 
ATOM      3  C   UNL     1       0.444  10.623  19.967  0.00  0.00    +0.000 A 
ATOM      4  C   UNL     1       1.009  10.241  18.751  0.00  0.00    +0.000 A 
ATOM      5  C   UNL     1       1.650   9.005  18.634  0.00  0.00    +0.000 A 
ATOM      6  C   UNL     1       1.732   8.141  19.735  0.00  0.00    +0.000 A 
ATOM      7  C   UNL     1       1.140   8.527  20.948  0.00  0.00    +0.000 A 
ATOM      8  F   UNL     1       1.201   7.686  21.993  0.00  0.00    +0.000 F 
BRANCH   2   9
ATOM      9  C   UNL     1      -0.032  10.263  22.352  0.00  0.00    +0.000 C 
ATOM     10  O   UNL     1       0.422   9.936  23.436  0.00  0.00    +0.000 OA
BRANCH   9  11
ATOM     11  O   UNL     1      -1.198  10.918  22.131  0.00  0.00    +0.000 OA
BRANCH  11  13
ATOM     12  C   UNL     1      -2.840  12.180  23.322  0.00  0.00    +0.000 C 
ATOM     13  C   UNL     1      -1.383  12.116  22.899  0.00  0.00    +0.000 C 
ENDBRANCH  11  13
ENDBRANCH   9  11
ENDBRANCH   2   9
ENDBRANCH   1   6
BRANCH   1  14
ATOM     14  O   UNL     1       2.184   6.219  18.390  0.00  0.00    +0.000 OA
BRANCH  14  15
ATOM     15  C   UNL     1       3.226   5.650  17.701  0.00  0.00    +0.000 A 
ATOM     16  C   UNL     1       4.157   6.598  17.235  0.00  0.00    +0.000 A 
ATOM     17  C   UNL     1       5.245   6.227  16.439  0.00  0.00    +0.000 A 
ATOM     18  C   UNL     1       5.426   4.890  16.075  0.00  0.00    +0.000 A 
ATOM     19  C   UNL     1       4.504   3.942  16.537  0.00  0.00    +0.000 A 
ATOM     20  C   UNL     1       3.406   4.310  17.332  0.00  0.00    +0.000 A 
ATOM     21 CL   UNL     1       2.322   3.018  17.700  0.00  0.00    +0.000 Cl
BRANCH  18  22
ATOM     22  C   UNL     1       6.557   4.449  15.178  0.00  0.00    +0.000 C 
ATOM     23  F   UNL     1       6.292   3.311  14.481  0.00  0.00    +0.000 F 
ATOM     24  F   UNL     1       6.878   5.393  14.251  0.00  0.00    +0.000 F 
ATOM     25  F   UNL     1       7.702   4.206  15.874  0.00  0.00    +0.000 F 
ENDBRANCH  18  22
ENDBRANCH  14  15
ENDBRANCH   1  14
TORSDOF 7
ENDMDL
MODEL 8
REMARK VINA RESULT:      -7.0      5.425      7.028
REMARK  Name = 
REMARK  8 active torsions:
REMARK  status: ('A' for Active; 'I' for Inactive)
REMARK    1  A    between atoms: C_1  and  C_2
REMARK    2  A    between atoms: C_2  and  O_3
REMARK    3  A    between atoms: O_3  and  C_4
REMARK    4  A    between atoms: C_4  and  C_6
REMARK    5  A    between atoms: C_10  and  C_11
REMARK    6  A    between atoms: C_11  and  O_12
REMARK    7  A    between atoms: O_12  and  C_13
REMARK    8  A    between atoms: C_16  and  C_17
REMARK                            x       y       z     vdW  Elec       q    Type
REMARK                         _______ _______ _______ _____ _____    ______ ____
ROOT
ATOM      1  C   UNL     1       1.303   7.435  20.744  0.00  0.00    +0.000 C 
ENDROOT
BRANCH   1   6
ATOM      2  C   UNL     1       3.742   5.339  18.704  0.00  0.00    +0.000 A 
ATOM      3  C   UNL     1       3.981   6.176  17.605  0.00  0.00    +0.000 A 
ATOM      4  C   UNL     1       3.373   7.427  17.533  0.00  0.00    +0.000 A 
ATOM      5  C   UNL     1       2.517   7.851  18.553  0.00  0.00    +0.000 A 
ATOM      6  C   UNL     1       2.263   7.022  19.655  0.00  0.00    +0.000 A 
ATOM      7  C   UNL     1       2.900   5.773  19.728  0.00  0.00    +0.000 A 
ATOM      8  F   UNL     1       2.671   4.993  20.797  0.00  0.00    +0.000 F 
BRANCH   2   9
ATOM      9  C   UNL     1       4.352   3.996  18.682  0.00  0.00    +0.000 C 
ATOM     10  O   UNL     1       5.268   3.674  19.420  0.00  0.00    +0.000 OA
BRANCH   9  11
ATOM     11  O   UNL     1       3.901   3.305  17.607  0.00  0.00    +0.000 OA
BRANCH  11  13
ATOM     12  C   UNL     1       2.374   1.940  18.836  0.00  0.00    +0.000 C 
ATOM     13  C   UNL     1       2.526   2.901  17.671  0.00  0.00    +0.000 C 
ENDBRANCH  11  13
ENDBRANCH   9  11
ENDBRANCH   2   9
ENDBRANCH   1   6
BRANCH   1  14
ATOM     14  O   UNL     1       1.793   8.614  21.374  0.00  0.00    +0.000 OA
BRANCH  14  15
ATOM     15  C   UNL     1       0.893   9.603  21.681  0.00  0.00    +0.000 A 
ATOM     16  C   UNL     1       0.183   9.349  22.870  0.00  0.00    +0.000 A 
ATOM     17  C   UNL     1      -0.838  10.196  23.310  0.00  0.00    +0.000 A 
ATOM     18  C   UNL     1      -1.188  11.323  22.560  0.00  0.00    +0.000 A 
ATOM     19  C   UNL     1      -0.484  11.582  21.377  0.00  0.00    +0.000 A 
ATOM     20  C   UNL     1       0.539  10.731  20.928  0.00  0.00    +0.000 A 
ATOM     21 CL   UNL     1       1.204  11.157  19.393  0.00  0.00    +0.000 Cl
BRANCH  18  22
ATOM     22  C   UNL     1      -2.316  12.239  22.968  0.00  0.00    +0.000 C 
ATOM     23  F   UNL     1      -1.899  13.388  23.568  0.00  0.00    +0.000 F 
ATOM     24  F   UNL     1      -3.079  12.623  21.909  0.00  0.00    +0.000 F 
ATOM     25  F   UNL     1      -3.170  11.646  23.848  0.00  0.00    +0.000 F 
ENDBRANCH  18  22
ENDBRANCH  14  15
ENDBRANCH   1  14
TORSDOF 7
ENDMDL
MODEL 9
REMARK VINA RESULT:      -7.0      4.478      5.442
REMARK  Name = 
REMARK  8 active torsions:
REMARK  status: ('A' for Active; 'I' for Inactive)
REMARK    1  A    between atoms: C_1  and  C_2
REMARK    2  A    between atoms: C_2  and  O_3
REMARK    3  A    between atoms: O_3  and  C_4
REMARK    4  A    between atoms: C_4  and  C_6
REMARK    5  A    between atoms: C_10  and  C_11
REMARK    6  A    between atoms: C_11  and  O_12
REMARK    7  A    between atoms: O_12  and  C_13
REMARK    8  A    between atoms: C_16  and  C_17
REMARK                            x       y       z     vdW  Elec       q    Type
REMARK                         _______ _______ _______ _____ _____    ______ ____
ROOT
ATOM      1  C   UNL     1       2.728   7.596  18.592  0.00  0.00    +0.000 C 
ENDROOT
BRANCH   1   6
ATOM      2  C   UNL     1       4.671   4.698  17.065  0.00  0.00    +0.000 A 
ATOM      3  C   UNL     1       3.708   3.680  17.072  0.00  0.00    +0.000 A 
ATOM      4  C   UNL     1       2.424   3.933  17.550  0.00  0.00    +0.000 A 
ATOM      5  C   UNL     1       2.092   5.204  18.027  0.00  0.00    +0.000 A 
ATOM      6  C   UNL     1       3.046   6.231  18.033  0.00  0.00    +0.000 A 
ATOM      7  C   UNL     1       4.330   5.970  17.529  0.00  0.00    +0.000 A 
ATOM      8  F   UNL     1       5.233   6.963  17.514  0.00  0.00    +0.000 F 
BRANCH   2   9
ATOM      9  C   UNL     1       6.032   4.345  16.624  0.00  0.00    +0.000 C 
ATOM     10  O   UNL     1       7.036   4.803  17.145  0.00  0.00    +0.000 OA
BRANCH   9  11
ATOM     11  O   UNL     1       5.973   3.649  15.463  0.00  0.00    +0.000 OA
BRANCH  11  13
ATOM     12  C   UNL     1       5.985   3.705  13.074  0.00  0.00    +0.000 C 
ATOM     13  C   UNL     1       6.601   4.279  14.337  0.00  0.00    +0.000 C 
ENDBRANCH  11  13
ENDBRANCH   9  11
ENDBRANCH   2   9
ENDBRANCH   1   6
BRANCH   1  14
ATOM     14  O   UNL     1       2.034   7.444  19.826  0.00  0.00    +0.000 OA
BRANCH  14  15
ATOM     15  C   UNL     1       1.324   8.516  20.304  0.00  0.00    +0.000 A 
ATOM     16  C   UNL     1       1.200   8.510  21.707  0.00  0.00    +0.000 A 
ATOM     17  C   UNL     1       0.440   9.471  22.380  0.00  0.00    +0.000 A 
ATOM     18  C   UNL     1      -0.231  10.465  21.662  0.00  0.00    +0.000 A 
ATOM     19  C   UNL     1      -0.111  10.478  20.267  0.00  0.00    +0.000 A 
ATOM     20  C   UNL     1       0.647   9.511  19.585  0.00  0.00    +0.000 A 
ATOM     21 CL   UNL     1       0.576   9.627  17.864  0.00  0.00    +0.000 Cl
BRANCH  18  22
ATOM     22  C   UNL     1      -1.102  11.494  22.341  0.00  0.00    +0.000 C 
ATOM     23  F   UNL     1      -2.155  11.907  21.584  0.00  0.00    +0.000 F 
ATOM     24  F   UNL     1      -1.633  11.034  23.506  0.00  0.00    +0.000 F 
ATOM     25  F   UNL     1      -0.410  12.621  22.667  0.00  0.00    +0.000 F 
ENDBRANCH  18  22
ENDBRANCH  14  15
ENDBRANCH   1  14
TORSDOF 7
ENDMDL
