MODEL 1
REMARK VINA RESULT:      -7.7      0.000      0.000
REMARK  Name = 
REMARK  4 active torsions:
REMARK  status: ('A' for Active; 'I' for Inactive)
REMARK    1  A    between atoms: C_4  and  C_5
REMARK    2  A    between atoms: C_8  and  N_9
REMARK    3  A    between atoms: C_20  and  C_21
REMARK    4  A    between atoms: C_24  and  N_25
REMARK                            x       y       z     vdW  Elec       q    Type
REMARK                         _______ _______ _______ _____ _____    ______ ____
ROOT
ATOM      1  O   UNL     1       3.624   7.156  17.530  0.00  0.00    +0.000 OA
ATOM      2  C   UNL     1       3.045   6.972  18.596  0.00  0.00    +0.000 C 
ATOM      3  C   UNL     1       3.308   5.775  19.463  0.00  0.00    +0.000 C 
ATOM      4  C   UNL     1       4.074   4.738  19.066  0.00  0.00    +0.000 C 
ATOM      5  C   UNL     1       2.692   5.773  20.831  0.00  0.00    +0.000 C 
ATOM      6  N   UNL     1       1.393   6.429  20.871  0.00  0.00    +0.000 NA
ATOM      7  C   UNL     1       1.550   7.833  20.500  0.00  0.00    +0.000 C 
ATOM      8  C   UNL     1       2.064   7.983  19.105  0.00  0.00    +0.000 C 
ATOM      9  C   UNL     1       1.736   8.972  18.252  0.00  0.00    +0.000 C 
ATOM     10  H   UNL     1       1.021   6.379  21.820  0.00  0.00    +0.000 HD
ENDROOT
BRANCH   4  11
ATOM     11  C   UNL     1       4.810   4.599  17.809  0.00  0.00    +0.000 A 
ATOM     12  C   UNL     1       4.176   4.054  16.696  0.00  0.00    +0.000 A 
ATOM     13  C   UNL     1       4.859   3.935  15.479  0.00  0.00    +0.000 A 
ATOM     14  C   UNL     1       6.197   4.328  15.327  0.00  0.00    +0.000 A 
ATOM     15  C   UNL     1       6.807   4.884  16.468  0.00  0.00    +0.000 A 
ATOM     16  C   UNL     1       6.131   5.020  17.692  0.00  0.00    +0.000 A 
BRANCH  14  17
ATOM     17  N   UNL     1       6.885   4.202  14.132  0.00  0.00    +0.000 N 
ATOM     18  C   UNL     1       7.893   5.152  13.656  0.00  0.00    +0.000 C 
ATOM     19  C   UNL     1       7.555   5.341  12.184  0.00  0.00    +0.000 C 
ATOM     20  C   UNL     1       7.051   3.971  11.774  0.00  0.00    +0.000 C 
ATOM     21  C   UNL     1       6.272   3.494  13.000  0.00  0.00    +0.000 C 
ENDBRANCH  14  17
ENDBRANCH   4  11
BRANCH   9  22
ATOM     22  C   UNL     1       0.878  10.104  18.590  0.00  0.00    +0.000 A 
ATOM     23  C   UNL     1      -0.503   9.982  18.442  0.00  0.00    +0.000 A 
ATOM     24  C   UNL     1      -1.345  11.043  18.787  0.00  0.00    +0.000 A 
ATOM     25  C   UNL     1      -0.835  12.248  19.282  0.00  0.00    +0.000 A 
ATOM     26  C   UNL     1       0.561  12.359  19.398  0.00  0.00    +0.000 A 
ATOM     27  C   UNL     1       1.412  11.300  19.064  0.00  0.00    +0.000 A 
BRANCH  25  28
ATOM     28  N   UNL     1      -1.634  13.323  19.662  0.00  0.00    +0.000 N 
ATOM     29  C   UNL     1      -1.072  14.519  20.299  0.00  0.00    +0.000 C 
ATOM     30  C   UNL     1      -1.823  14.638  21.616  0.00  0.00    +0.000 C 
ATOM     31  C   UNL     1      -3.202  14.106  21.264  0.00  0.00    +0.000 C 
ATOM     32  C   UNL     1      -2.899  12.948  20.316  0.00  0.00    +0.000 C 
ENDBRANCH  25  28
ENDBRANCH   9  22
TORSDOF 4
ENDMDL
MODEL 2
REMARK VINA RESULT:      -7.6      3.504     10.795
REMARK  Name = 
REMARK  4 active torsions:
REMARK  status: ('A' for Active; 'I' for Inactive)
REMARK    1  A    between atoms: C_4  and  C_5
REMARK    2  A    between atoms: C_8  and  N_9
REMARK    3  A    between atoms: C_20  and  C_21
REMARK    4  A    between atoms: C_24  and  N_25
REMARK                            x       y       z     vdW  Elec       q    Type
REMARK                         _______ _______ _______ _____ _____    ______ ____
ROOT
ATOM      1  O   UNL     1       0.361  11.983  20.148  0.00  0.00    +0.000 OA
ATOM      2  C   UNL     1       0.099  11.229  21.080  0.00  0.00    +0.000 C 
ATOM      3  C   UNL     1      -0.676  11.674  22.286  0.00  0.00    +0.000 C 
ATOM      4  C   UNL     1      -1.004  12.963  22.511  0.00  0.00    +0.000 C 
ATOM      5  C   UNL     1      -1.107  10.611  23.254  0.00  0.00    +0.000 C 
ATOM      6  N   UNL     1      -0.146   9.522  23.368  0.00  0.00    +0.000 NA
ATOM      7  C   UNL     1      -0.011   8.861  22.072  0.00  0.00    +0.000 C 
ATOM      8  C   UNL     1       0.515   9.791  21.027  0.00  0.00    +0.000 C 
ATOM      9  C   UNL     1       1.329   9.447  20.011  0.00  0.00    +0.000 C 
ATOM     10  H   UNL     1      -0.486   8.845  24.050  0.00  0.00    +0.000 HD
ENDROOT
BRANCH   4  11
ATOM     11  C   UNL     1      -0.738  14.117  21.651  0.00  0.00    +0.000 A 
ATOM     12  C   UNL     1       0.453  14.824  21.794  0.00  0.00    +0.000 A 
ATOM     13  C   UNL     1       0.733  15.915  20.963  0.00  0.00    +0.000 A 
ATOM     14  C   UNL     1      -0.163  16.361  19.981  0.00  0.00    +0.000 A 
ATOM     15  C   UNL     1      -1.354  15.620  19.855  0.00  0.00    +0.000 A 
ATOM     16  C   UNL     1      -1.644  14.516  20.673  0.00  0.00    +0.000 A 
BRANCH  14  17
ATOM     17  N   UNL     1       0.098  17.448  19.163  0.00  0.00    +0.000 N 
ATOM     18  C   UNL     1      -0.914  18.405  18.714  0.00  0.00    +0.000 C 
ATOM     19  C   UNL     1      -0.604  18.603  17.237  0.00  0.00    +0.000 C 
ATOM     20  C   UNL     1       0.908  18.495  17.191  0.00  0.00    +0.000 C 
ATOM     21  C   UNL     1       1.220  17.404  18.216  0.00  0.00    +0.000 C 
ENDBRANCH  14  17
ENDBRANCH   4  11
BRANCH   9  22
ATOM     22  C   UNL     1       1.765   8.083  19.728  0.00  0.00    +0.000 A 
ATOM     23  C   UNL     1       2.379   7.801  18.508  0.00  0.00    +0.000 A 
ATOM     24  C   UNL     1       2.829   6.508  18.229  0.00  0.00    +0.000 A 
ATOM     25  C   UNL     1       2.677   5.466  19.151  0.00  0.00    +0.000 A 
ATOM     26  C   UNL     1       2.032   5.767  20.363  0.00  0.00    +0.000 A 
ATOM     27  C   UNL     1       1.585   7.060  20.656  0.00  0.00    +0.000 A 
BRANCH  25  28
ATOM     28  N   UNL     1       3.132   4.170  18.928  0.00  0.00    +0.000 N 
ATOM     29  C   UNL     1       3.189   3.589  17.582  0.00  0.00    +0.000 C 
ATOM     30  C   UNL     1       2.342   2.330  17.672  0.00  0.00    +0.000 C 
ATOM     31  C   UNL     1       2.586   1.865  19.098  0.00  0.00    +0.000 C 
ATOM     32  C   UNL     1       2.635   3.170  19.888  0.00  0.00    +0.000 C 
ENDBRANCH  25  28
ENDBRANCH   9  22
TORSDOF 4
ENDMDL
MODEL 3
REMARK VINA RESULT:      -7.5      2.600     11.697
REMARK  Name = 
REMARK  4 active torsions:
REMARK  status: ('A' for Active; 'I' for Inactive)
REMARK    1  A    between atoms: C_4  and  C_5
REMARK    2  A    between atoms: C_8  and  N_9
REMARK    3  A    between atoms: C_20  and  C_21
REMARK    4  A    between atoms: C_24  and  N_25
REMARK                            x       y       z     vdW  Elec       q    Type
REMARK                         _______ _______ _______ _____ _____    ______ ____
ROOT
ATOM      1  O   UNL     1      -0.701  10.781  20.277  0.00  0.00    +0.000 OA
ATOM      2  C   UNL     1       0.190  11.254  19.578  0.00  0.00    +0.000 C 
ATOM      3  C   UNL     1       0.272  12.717  19.253  0.00  0.00    +0.000 C 
ATOM      4  C   UNL     1      -0.706  13.592  19.567  0.00  0.00    +0.000 C 
ATOM      5  C   UNL     1       1.516  13.198  18.567  0.00  0.00    +0.000 C 
ATOM      6  N   UNL     1       2.073  12.216  17.646  0.00  0.00    +0.000 NA
ATOM      7  C   UNL     1       2.457  11.019  18.391  0.00  0.00    +0.000 C 
ATOM      8  C   UNL     1       1.280  10.374  19.048  0.00  0.00    +0.000 C 
ATOM      9  C   UNL     1       1.113   9.050  19.228  0.00  0.00    +0.000 C 
ATOM     10  H   UNL     1       2.903  12.607  17.201  0.00  0.00    +0.000 HD
ENDROOT
BRANCH   4  11
ATOM     11  C   UNL     1      -1.947  13.325  20.296  0.00  0.00    +0.000 A 
ATOM     12  C   UNL     1      -2.003  13.553  21.668  0.00  0.00    +0.000 A 
ATOM     13  C   UNL     1      -3.189  13.324  22.376  0.00  0.00    +0.000 A 
ATOM     14  C   UNL     1      -4.351  12.839  21.758  0.00  0.00    +0.000 A 
ATOM     15  C   UNL     1      -4.265  12.627  20.369  0.00  0.00    +0.000 A 
ATOM     16  C   UNL     1      -3.086  12.863  19.644  0.00  0.00    +0.000 A 
BRANCH  14  17
ATOM     17  N   UNL     1      -5.525  12.596  22.452  0.00  0.00    +0.000 N 
ATOM     18  C   UNL     1      -6.841  12.467  21.826  0.00  0.00    +0.000 C 
ATOM     19  C   UNL     1      -7.759  13.283  22.726  0.00  0.00    +0.000 C 
ATOM     20  C   UNL     1      -7.167  13.060  24.105  0.00  0.00    +0.000 C 
ATOM     21  C   UNL     1      -5.660  13.038  23.847  0.00  0.00    +0.000 C 
ENDBRANCH  14  17
ENDBRANCH   4  11
BRANCH   9  22
ATOM     22  C   UNL     1       2.102   8.037  18.874  0.00  0.00    +0.000 A 
ATOM     23  C   UNL     1       2.332   6.972  19.745  0.00  0.00    +0.000 A 
ATOM     24  C   UNL     1       3.254   5.977  19.412  0.00  0.00    +0.000 A 
ATOM     25  C   UNL     1       3.971   6.017  18.210  0.00  0.00    +0.000 A 
ATOM     26  C   UNL     1       3.743   7.113  17.360  0.00  0.00    +0.000 A 
ATOM     27  C   UNL     1       2.815   8.110  17.680  0.00  0.00    +0.000 A 
BRANCH  25  28
ATOM     28  N   UNL     1       4.880   5.037  17.824  0.00  0.00    +0.000 N 
ATOM     29  C   UNL     1       6.092   4.755  18.601  0.00  0.00    +0.000 C 
ATOM     30  C   UNL     1       7.233   4.949  17.614  0.00  0.00    +0.000 C 
ATOM     31  C   UNL     1       6.619   4.493  16.301  0.00  0.00    +0.000 C 
ATOM     32  C   UNL     1       5.187   5.016  16.384  0.00  0.00    +0.000 C 
ENDBRANCH  25  28
ENDBRANCH   9  22
TORSDOF 4
ENDMDL
MODEL 4
REMARK VINA RESULT:      -7.4      3.823     10.501
REMARK  Name = 
REMARK  4 active torsions:
REMARK  status: ('A' for Active; 'I' for Inactive)
REMARK    1  A    between atoms: C_4  and  C_5
REMARK    2  A    between atoms: C_8  and  N_9
REMARK    3  A    between atoms: C_20  and  C_21
REMARK    4  A    between atoms: C_24  and  N_25
REMARK                            x       y       z     vdW  Elec       q    Type
REMARK                         _______ _______ _______ _____ _____    ______ ____
ROOT
ATOM      1  O   UNL     1       0.769  11.654  20.018  0.00  0.00    +0.000 OA
ATOM      2  C   UNL     1       0.352  10.985  20.957  0.00  0.00    +0.000 C 
ATOM      3  C   UNL     1      -0.439  11.581  22.085  0.00  0.00    +0.000 C 
ATOM      4  C   UNL     1      -0.613  12.910  22.235  0.00  0.00    +0.000 C 
ATOM      5  C   UNL     1      -1.066  10.628  23.061  0.00  0.00    +0.000 C 
ATOM      6  N   UNL     1      -0.261   9.434  23.286  0.00  0.00    +0.000 NA
ATOM      7  C   UNL     1      -0.125   8.700  22.031  0.00  0.00    +0.000 C 
ATOM      8  C   UNL     1       0.583   9.505  20.991  0.00  0.00    +0.000 C 
ATOM      9  C   UNL     1       1.412   9.014  20.051  0.00  0.00    +0.000 C 
ATOM     10  H   UNL     1      -0.730   8.838  23.968  0.00  0.00    +0.000 HD
ENDROOT
BRANCH   4  11
ATOM     11  C   UNL     1      -0.146  13.979  21.352  0.00  0.00    +0.000 A 
ATOM     12  C   UNL     1      -0.953  14.407  20.301  0.00  0.00    +0.000 A 
ATOM     13  C   UNL     1      -0.531  15.445  19.461  0.00  0.00    +0.000 A 
ATOM     14  C   UNL     1       0.712  16.076  19.614  0.00  0.00    +0.000 A 
ATOM     15  C   UNL     1       1.501  15.627  20.690  0.00  0.00    +0.000 A 
ATOM     16  C   UNL     1       1.086  14.595  21.548  0.00  0.00    +0.000 A 
BRANCH  14  17
ATOM     17  N   UNL     1       1.145  17.094  18.780  0.00  0.00    +0.000 N 
ATOM     18  C   UNL     1       0.336  18.256  18.408  0.00  0.00    +0.000 C 
ATOM     19  C   UNL     1       0.572  18.406  16.911  0.00  0.00    +0.000 C 
ATOM     20  C   UNL     1       2.016  17.972  16.752  0.00  0.00    +0.000 C 
ATOM     21  C   UNL     1       2.156  16.821  17.750  0.00  0.00    +0.000 C 
ENDBRANCH  14  17
ENDBRANCH   4  11
BRANCH   9  22
ATOM     22  C   UNL     1       1.689   7.594  19.854  0.00  0.00    +0.000 A 
ATOM     23  C   UNL     1       1.456   6.701  20.899  0.00  0.00    +0.000 A 
ATOM     24  C   UNL     1       1.686   5.334  20.722  0.00  0.00    +0.000 A 
ATOM     25  C   UNL     1       2.157   4.824  19.507  0.00  0.00    +0.000 A 
ATOM     26  C   UNL     1       2.410   5.745  18.476  0.00  0.00    +0.000 A 
ATOM     27  C   UNL     1       2.174   7.114  18.639  0.00  0.00    +0.000 A 
BRANCH  25  28
ATOM     28  N   UNL     1       2.378   3.469  19.275  0.00  0.00    +0.000 N 
ATOM     29  C   UNL     1       3.149   2.640  20.207  0.00  0.00    +0.000 C 
ATOM     30  C   UNL     1       4.274   2.061  19.363  0.00  0.00    +0.000 C 
ATOM     31  C   UNL     1       3.618   1.894  18.002  0.00  0.00    +0.000 C 
ATOM     32  C   UNL     1       2.733   3.133  17.886  0.00  0.00    +0.000 C 
ENDBRANCH  25  28
ENDBRANCH   9  22
TORSDOF 4
ENDMDL
MODEL 5
REMARK VINA RESULT:      -7.4      2.788     11.932
REMARK  Name = 
REMARK  4 active torsions:
REMARK  status: ('A' for Active; 'I' for Inactive)
REMARK    1  A    between atoms: C_4  and  C_5
REMARK    2  A    between atoms: C_8  and  N_9
REMARK    3  A    between atoms: C_20  and  C_21
REMARK    4  A    between atoms: C_24  and  N_25
REMARK                            x       y       z     vdW  Elec       q    Type
REMARK                         _______ _______ _______ _____ _____    ______ ____
ROOT
ATOM      1  O   UNL     1      -0.784  11.968  20.886  0.00  0.00    +0.000 OA
ATOM      2  C   UNL     1      -1.243  11.426  19.886  0.00  0.00    +0.000 C 
ATOM      3  C   UNL     1      -2.531  11.861  19.250  0.00  0.00    +0.000 C 
ATOM      4  C   UNL     1      -3.357  12.766  19.815  0.00  0.00    +0.000 C 
ATOM      5  C   UNL     1      -2.876  11.258  17.920  0.00  0.00    +0.000 C 
ATOM      6  N   UNL     1      -2.429   9.878  17.788  0.00  0.00    +0.000 NA
ATOM      7  C   UNL     1      -0.973   9.831  17.889  0.00  0.00    +0.000 C 
ATOM      8  C   UNL     1      -0.494  10.313  19.220  0.00  0.00    +0.000 C 
ATOM      9  C   UNL     1       0.581   9.843  19.882  0.00  0.00    +0.000 C 
ATOM     10  H   UNL     1      -2.708   9.522  16.874  0.00  0.00    +0.000 HD
ENDROOT
BRANCH   4  11
ATOM     11  C   UNL     1      -3.154  13.509  21.059  0.00  0.00    +0.000 A 
ATOM     12  C   UNL     1      -2.603  14.786  21.017  0.00  0.00    +0.000 A 
ATOM     13  C   UNL     1      -2.424  15.520  22.196  0.00  0.00    +0.000 A 
ATOM     14  C   UNL     1      -2.759  15.007  23.458  0.00  0.00    +0.000 A 
ATOM     15  C   UNL     1      -3.321  13.717  23.467  0.00  0.00    +0.000 A 
ATOM     16  C   UNL     1      -3.518  12.974  22.291  0.00  0.00    +0.000 A 
BRANCH  14  17
ATOM     17  N   UNL     1      -2.572  15.719  24.631  0.00  0.00    +0.000 N 
ATOM     18  C   UNL     1      -3.001  17.104  24.832  0.00  0.00    +0.000 C 
ATOM     19  C   UNL     1      -1.816  17.760  25.528  0.00  0.00    +0.000 C 
ATOM     20  C   UNL     1      -1.267  16.640  26.390  0.00  0.00    +0.000 C 
ATOM     21  C   UNL     1      -1.445  15.397  25.517  0.00  0.00    +0.000 C 
ENDBRANCH  14  17
ENDBRANCH   4  11
BRANCH   9  22
ATOM     22  C   UNL     1       1.497   8.834  19.359  0.00  0.00    +0.000 A 
ATOM     23  C   UNL     1       2.107   9.039  18.122  0.00  0.00    +0.000 A 
ATOM     24  C   UNL     1       3.008   8.099  17.617  0.00  0.00    +0.000 A 
ATOM     25  C   UNL     1       3.321   6.933  18.325  0.00  0.00    +0.000 A 
ATOM     26  C   UNL     1       2.674   6.733  19.557  0.00  0.00    +0.000 A 
ATOM     27  C   UNL     1       1.777   7.672  20.076  0.00  0.00    +0.000 A 
BRANCH  25  28
ATOM     28  N   UNL     1       4.230   5.980  17.874  0.00  0.00    +0.000 N 
ATOM     29  C   UNL     1       5.383   6.341  17.042  0.00  0.00    +0.000 C 
ATOM     30  C   UNL     1       5.227   5.497  15.787  0.00  0.00    +0.000 C 
ATOM     31  C   UNL     1       4.592   4.224  16.318  0.00  0.00    +0.000 C 
ATOM     32  C   UNL     1       3.621   4.733  17.381  0.00  0.00    +0.000 C 
ENDBRANCH  25  28
ENDBRANCH   9  22
TORSDOF 4
ENDMDL
MODEL 6
REMARK VINA RESULT:      -7.4      3.037     11.958
REMARK  Name = 
REMARK  4 active torsions:
REMARK  status: ('A' for Active; 'I' for Inactive)
REMARK    1  A    between atoms: C_4  and  C_5
REMARK    2  A    between atoms: C_8  and  N_9
REMARK    3  A    between atoms: C_20  and  C_21
REMARK    4  A    between atoms: C_24  and  N_25
REMARK                            x       y       z     vdW  Elec       q    Type
REMARK                         _______ _______ _______ _____ _____    ______ ____
ROOT
ATOM      1  O   UNL     1      -0.821  11.977  20.891  0.00  0.00    +0.000 OA
ATOM      2  C   UNL     1      -1.299  11.440  19.896  0.00  0.00    +0.000 C 
ATOM      3  C   UNL     1      -2.605  11.872  19.294  0.00  0.00    +0.000 C 
ATOM      4  C   UNL     1      -3.424  12.766  19.886  0.00  0.00    +0.000 C 
ATOM      5  C   UNL     1      -2.976  11.279  17.967  0.00  0.00    +0.000 C 
ATOM      6  N   UNL     1      -2.523   9.903  17.812  0.00  0.00    +0.000 NA
ATOM      7  C   UNL     1      -1.065   9.865  17.880  0.00  0.00    +0.000 C 
ATOM      8  C   UNL     1      -0.558  10.338  19.204  0.00  0.00    +0.000 C 
ATOM      9  C   UNL     1       0.534   9.870  19.837  0.00  0.00    +0.000 C 
ATOM     10  H   UNL     1      -2.820   9.553  16.902  0.00  0.00    +0.000 HD
ENDROOT
BRANCH   4  11
ATOM     11  C   UNL     1      -3.197  13.500  21.132  0.00  0.00    +0.000 A 
ATOM     12  C   UNL     1      -3.640  12.963  22.338  0.00  0.00    +0.000 A 
ATOM     13  C   UNL     1      -3.410  13.640  23.542  0.00  0.00    +0.000 A 
ATOM     14  C   UNL     1      -2.757  14.881  23.592  0.00  0.00    +0.000 A 
ATOM     15  C   UNL     1      -2.313  15.392  22.358  0.00  0.00    +0.000 A 
ATOM     16  C   UNL     1      -2.526  14.719  21.144  0.00  0.00    +0.000 A 
BRANCH  14  17
ATOM     17  N   UNL     1      -2.537  15.565  24.776  0.00  0.00    +0.000 N 
ATOM     18  C   UNL     1      -3.236  16.792  25.161  0.00  0.00    +0.000 C 
ATOM     19  C   UNL     1      -2.133  17.688  25.710  0.00  0.00    +0.000 C 
ATOM     20  C   UNL     1      -1.194  16.700  26.374  0.00  0.00    +0.000 C 
ATOM     21  C   UNL     1      -1.228  15.490  25.438  0.00  0.00    +0.000 C 
ENDBRANCH  14  17
ENDBRANCH   4  11
BRANCH   9  22
ATOM     22  C   UNL     1       1.444   8.871  19.284  0.00  0.00    +0.000 A 
ATOM     23  C   UNL     1       1.736   7.728  20.027  0.00  0.00    +0.000 A 
ATOM     24  C   UNL     1       2.582   6.746  19.505  0.00  0.00    +0.000 A 
ATOM     25  C   UNL     1       3.160   6.878  18.237  0.00  0.00    +0.000 A 
ATOM     26  C   UNL     1       2.873   8.051  17.517  0.00  0.00    +0.000 A 
ATOM     27  C   UNL     1       2.021   9.036  18.027  0.00  0.00    +0.000 A 
BRANCH  25  28
ATOM     28  N   UNL     1       3.988   5.917  17.665  0.00  0.00    +0.000 N 
ATOM     29  C   UNL     1       3.537   4.539  17.443  0.00  0.00    +0.000 C 
ATOM     30  C   UNL     1       4.544   3.681  18.193  0.00  0.00    +0.000 C 
ATOM     31  C   UNL     1       5.833   4.470  18.042  0.00  0.00    +0.000 C 
ATOM     32  C   UNL     1       5.373   5.921  18.166  0.00  0.00    +0.000 C 
ENDBRANCH  25  28
ENDBRANCH   9  22
TORSDOF 4
ENDMDL
MODEL 7
REMARK VINA RESULT:      -7.4      2.769     11.906
REMARK  Name = 
REMARK  4 active torsions:
REMARK  status: ('A' for Active; 'I' for Inactive)
REMARK    1  A    between atoms: C_4  and  C_5
REMARK    2  A    between atoms: C_8  and  N_9
REMARK    3  A    between atoms: C_20  and  C_21
REMARK    4  A    between atoms: C_24  and  N_25
REMARK                            x       y       z     vdW  Elec       q    Type
REMARK                         _______ _______ _______ _____ _____    ______ ____
ROOT
ATOM      1  O   UNL     1      -0.687  11.836  20.858  0.00  0.00    +0.000 OA
ATOM      2  C   UNL     1      -1.134  11.332  19.833  0.00  0.00    +0.000 C 
ATOM      3  C   UNL     1      -2.411  11.797  19.195  0.00  0.00    +0.000 C 
ATOM      4  C   UNL     1      -3.240  12.686  19.779  0.00  0.00    +0.000 C 
ATOM      5  C   UNL     1      -2.740  11.244  17.839  0.00  0.00    +0.000 C 
ATOM      6  N   UNL     1      -2.298   9.867  17.665  0.00  0.00    +0.000 NA
ATOM      7  C   UNL     1      -0.843   9.808  17.785  0.00  0.00    +0.000 C 
ATOM      8  C   UNL     1      -0.381  10.239  19.139  0.00  0.00    +0.000 C 
ATOM      9  C   UNL     1       0.681   9.740  19.799  0.00  0.00    +0.000 C 
ATOM     10  H   UNL     1      -2.565   9.544  16.735  0.00  0.00    +0.000 HD
ENDROOT
BRANCH   4  11
ATOM     11  C   UNL     1      -3.051  13.383  21.052  0.00  0.00    +0.000 A 
ATOM     12  C   UNL     1      -2.472  14.649  21.065  0.00  0.00    +0.000 A 
ATOM     13  C   UNL     1      -2.305  15.340  22.272  0.00  0.00    +0.000 A 
ATOM     14  C   UNL     1      -2.681  14.794  23.508  0.00  0.00    +0.000 A 
ATOM     15  C   UNL     1      -3.272  13.517  23.460  0.00  0.00    +0.000 A 
ATOM     16  C   UNL     1      -3.456  12.817  22.257  0.00  0.00    +0.000 A 
BRANCH  14  17
ATOM     17  N   UNL     1      -2.508  15.463  24.708  0.00  0.00    +0.000 N 
ATOM     18  C   UNL     1      -3.252  16.661  25.099  0.00  0.00    +0.000 C 
ATOM     19  C   UNL     1      -2.189  17.580  25.686  0.00  0.00    +0.000 C 
ATOM     20  C   UNL     1      -1.234  16.609  26.353  0.00  0.00    +0.000 C 
ATOM     21  C   UNL     1      -1.211  15.416  25.396  0.00  0.00    +0.000 C 
ENDBRANCH  14  17
ENDBRANCH   4  11
BRANCH   9  22
ATOM     22  C   UNL     1       1.599   8.744  19.254  0.00  0.00    +0.000 A 
ATOM     23  C   UNL     1       1.843   7.574  19.973  0.00  0.00    +0.000 A 
ATOM     24  C   UNL     1       2.695   6.595  19.456  0.00  0.00    +0.000 A 
ATOM     25  C   UNL     1       3.328   6.757  18.218  0.00  0.00    +0.000 A 
ATOM     26  C   UNL     1       3.089   7.956  17.523  0.00  0.00    +0.000 A 
ATOM     27  C   UNL     1       2.230   8.938  18.028  0.00  0.00    +0.000 A 
BRANCH  25  28
ATOM     28  N   UNL     1       4.165   5.801  17.651  0.00  0.00    +0.000 N 
ATOM     29  C   UNL     1       5.032   4.946  18.470  0.00  0.00    +0.000 C 
ATOM     30  C   UNL     1       6.434   5.203  17.940  0.00  0.00    +0.000 C 
ATOM     31  C   UNL     1       6.191   5.453  16.461  0.00  0.00    +0.000 C 
ATOM     32  C   UNL     1       4.889   6.251  16.450  0.00  0.00    +0.000 C 
ENDBRANCH  25  28
ENDBRANCH   9  22
TORSDOF 4
ENDMDL
MODEL 8
REMARK VINA RESULT:      -7.4      0.374      1.265
REMARK  Name = 
REMARK  4 active torsions:
REMARK  status: ('A' for Active; 'I' for Inactive)
REMARK    1  A    between atoms: C_4  and  C_5
REMARK    2  A    between atoms: C_8  and  N_9
REMARK    3  A    between atoms: C_20  and  C_21
REMARK    4  A    between atoms: C_24  and  N_25
REMARK                            x       y       z     vdW  Elec       q    Type
REMARK                         _______ _______ _______ _____ _____    ______ ____
ROOT
ATOM      1  O   UNL     1       3.514   6.997  17.569  0.00  0.00    +0.000 OA
ATOM      2  C   UNL     1       2.969   6.783  18.647  0.00  0.00    +0.000 C 
ATOM      3  C   UNL     1       3.292   5.584  19.491  0.00  0.00    +0.000 C 
ATOM      4  C   UNL     1       4.077   4.576  19.060  0.00  0.00    +0.000 C 
ATOM      5  C   UNL     1       2.714   5.546  20.875  0.00  0.00    +0.000 C 
ATOM      6  N   UNL     1       1.396   6.162  20.959  0.00  0.00    +0.000 NA
ATOM      7  C   UNL     1       1.501   7.575  20.602  0.00  0.00    +0.000 C 
ATOM      8  C   UNL     1       1.973   7.758  19.195  0.00  0.00    +0.000 C 
ATOM      9  C   UNL     1       1.592   8.747  18.365  0.00  0.00    +0.000 C 
ATOM     10  H   UNL     1       1.052   6.089  21.916  0.00  0.00    +0.000 HD
ENDROOT
BRANCH   4  11
ATOM     11  C   UNL     1       4.783   4.474  17.782  0.00  0.00    +0.000 A 
ATOM     12  C   UNL     1       6.130   4.818  17.710  0.00  0.00    +0.000 A 
ATOM     13  C   UNL     1       6.826   4.704  16.500  0.00  0.00    +0.000 A 
ATOM     14  C   UNL     1       6.209   4.272  15.317  0.00  0.00    +0.000 A 
ATOM     15  C   UNL     1       4.849   3.924  15.424  0.00  0.00    +0.000 A 
ATOM     16  C   UNL     1       4.141   4.022  16.634  0.00  0.00    +0.000 A 
BRANCH  14  17
ATOM     17  N   UNL     1       6.885   4.170  14.112  0.00  0.00    +0.000 N 
ATOM     18  C   UNL     1       7.830   5.168  13.610  0.00  0.00    +0.000 C 
ATOM     19  C   UNL     1       7.460   5.319  12.140  0.00  0.00    +0.000 C 
ATOM     20  C   UNL     1       7.029   3.917  11.755  0.00  0.00    +0.000 C 
ATOM     21  C   UNL     1       6.297   3.414  12.999  0.00  0.00    +0.000 C 
ENDBRANCH  14  17
ENDBRANCH   4  11
BRANCH   9  22
ATOM     22  C   UNL     1       0.710   9.847  18.740  0.00  0.00    +0.000 A 
ATOM     23  C   UNL     1       1.219  10.904  19.495  0.00  0.00    +0.000 A 
ATOM     24  C   UNL     1       0.398  11.981  19.841  0.00  0.00    +0.000 A 
ATOM     25  C   UNL     1      -0.945  12.032  19.450  0.00  0.00    +0.000 A 
ATOM     26  C   UNL     1      -1.443  10.944  18.713  0.00  0.00    +0.000 A 
ATOM     27  C   UNL     1      -0.628   9.865  18.354  0.00  0.00    +0.000 A 
BRANCH  25  28
ATOM     28  N   UNL     1      -1.793  13.094  19.749  0.00  0.00    +0.000 N 
ATOM     29  C   UNL     1      -1.466  14.079  20.785  0.00  0.00    +0.000 C 
ATOM     30  C   UNL     1      -2.641  14.025  21.748  0.00  0.00    +0.000 C 
ATOM     31  C   UNL     1      -3.812  13.721  20.830  0.00  0.00    +0.000 C 
ATOM     32  C   UNL     1      -3.220  12.739  19.821  0.00  0.00    +0.000 C 
ENDBRANCH  25  28
ENDBRANCH   9  22
TORSDOF 4
ENDMDL
MODEL 9
REMARK VINA RESULT:      -7.4      2.839     11.964
REMARK  Name = 
REMARK  4 active torsions:
REMARK  status: ('A' for Active; 'I' for Inactive)
REMARK    1  A    between atoms: C_4  and  C_5
REMARK    2  A    between atoms: C_8  and  N_9
REMARK    3  A    between atoms: C_20  and  C_21
REMARK    4  A    between atoms: C_24  and  N_25
REMARK                            x       y       z     vdW  Elec       q    Type
REMARK                         _______ _______ _______ _____ _____    ______ ____
ROOT
ATOM      1  O   UNL     1      -0.872  12.040  20.933  0.00  0.00    +0.000 OA
ATOM      2  C   UNL     1      -1.355  11.502  19.942  0.00  0.00    +0.000 C 
ATOM      3  C   UNL     1      -2.662  11.935  19.343  0.00  0.00    +0.000 C 
ATOM      4  C   UNL     1      -3.476  12.834  19.934  0.00  0.00    +0.000 C 
ATOM      5  C   UNL     1      -3.039  11.338  18.019  0.00  0.00    +0.000 C 
ATOM      6  N   UNL     1      -2.591   9.960  17.869  0.00  0.00    +0.000 NA
ATOM      7  C   UNL     1      -1.133   9.918  17.931  0.00  0.00    +0.000 C 
ATOM      8  C   UNL     1      -0.621  10.394  19.252  0.00  0.00    +0.000 C 
ATOM      9  C   UNL     1       0.473   9.925  19.883  0.00  0.00    +0.000 C 
ATOM     10  H   UNL     1      -2.893   9.607  16.961  0.00  0.00    +0.000 HD
ENDROOT
BRANCH   4  11
ATOM     11  C   UNL     1      -3.242  13.572  21.176  0.00  0.00    +0.000 A 
ATOM     12  C   UNL     1      -3.642  13.021  22.390  0.00  0.00    +0.000 A 
ATOM     13  C   UNL     1      -3.405  13.702  23.590  0.00  0.00    +0.000 A 
ATOM     14  C   UNL     1      -2.788  14.962  23.629  0.00  0.00    +0.000 A 
ATOM     15  C   UNL     1      -2.388  15.488  22.386  0.00  0.00    +0.000 A 
ATOM     16  C   UNL     1      -2.608  14.810  21.176  0.00  0.00    +0.000 A 
BRANCH  14  17
ATOM     17  N   UNL     1      -2.562  15.650  24.809  0.00  0.00    +0.000 N 
ATOM     18  C   UNL     1      -3.169  16.940  25.141  0.00  0.00    +0.000 C 
ATOM     19  C   UNL     1      -2.019  17.750  25.722  0.00  0.00    +0.000 C 
ATOM     20  C   UNL     1      -1.196  16.701  26.444  0.00  0.00    +0.000 C 
ATOM     21  C   UNL     1      -1.293  15.479  25.530  0.00  0.00    +0.000 C 
ENDBRANCH  14  17
ENDBRANCH   4  11
BRANCH   9  22
ATOM     22  C   UNL     1       1.377   8.921  19.332  0.00  0.00    +0.000 A 
ATOM     23  C   UNL     1       1.943   9.128  18.074  0.00  0.00    +0.000 A 
ATOM     24  C   UNL     1       2.834   8.193  17.540  0.00  0.00    +0.000 A 
ATOM     25  C   UNL     1       3.180   7.031  18.240  0.00  0.00    +0.000 A 
ATOM     26  C   UNL     1       2.578   6.830  19.494  0.00  0.00    +0.000 A 
ATOM     27  C   UNL     1       1.691   7.764  20.041  0.00  0.00    +0.000 A 
BRANCH  25  28
ATOM     28  N   UNL     1       4.081   6.084  17.761  0.00  0.00    +0.000 N 
ATOM     29  C   UNL     1       4.686   5.077  18.639  0.00  0.00    +0.000 C 
ATOM     30  C   UNL     1       6.184   5.284  18.483  0.00  0.00    +0.000 C 
ATOM     31  C   UNL     1       6.312   5.720  17.033  0.00  0.00    +0.000 C 
ATOM     32  C   UNL     1       5.090   6.613  16.827  0.00  0.00    +0.000 C 
ENDBRANCH  25  28
ENDBRANCH   9  22
TORSDOF 4
ENDMDL
