MODEL 1
REMARK VINA RESULT:      -6.4      0.000      0.000
REMARK  Name = 
REMARK  11 active torsions:
REMARK  status: ('A' for Active; 'I' for Inactive)
REMARK    1  A    between atoms: C_1  and  C_2
REMARK    2  A    between atoms: C_2  and  N_3
REMARK    3  A    between atoms: N_5  and  C_6
REMARK    4  A    between atoms: C_6  and  C_7
REMARK    5  A    between atoms: C_7  and  O_8
REMARK    6  A    between atoms: O_8  and  C_9
REMARK    7  A    between atoms: C_11  and  C_12
REMARK    8  A    between atoms: C_17  and  C_18
REMARK    9  A    between atoms: C_18  and  O_20
REMARK   10  A    between atoms: O_20  and  C_21
REMARK   11  A    between atoms: C_22  and  C_23
REMARK                            x       y       z     vdW  Elec       q    Type
REMARK                         _______ _______ _______ _____ _____    ______ ____
ROOT
ATOM      1  N   UNL     1       4.814   3.978  17.780  0.00  0.00    +0.000 N 
ATOM      2  C   UNL     1       5.522   4.820  18.642  0.00  0.00    +0.000 C 
ATOM      3  N   UNL     1       6.883   4.875  18.441  0.00  0.00    +0.000 N 
ATOM      4  N   UNL     1       4.998   5.464  19.631  0.00  0.00    +0.000 NA
ATOM      5  C   UNL     1       3.536   5.374  19.808  0.00  0.00    +0.000 C 
ATOM      6  C   UNL     1       2.929   4.113  19.236  0.00  0.00    +0.000 C 
ATOM      7  C   UNL     1       3.556   3.477  18.217  0.00  0.00    +0.000 C 
ATOM      8  C   UNL     1       3.028   2.227  17.554  0.00  0.00    +0.000 C 
ATOM      9  H   UNL     1       7.134   5.266  17.539  0.00  0.00    +0.000 HD
ENDROOT
BRANCH   5  10
ATOM     10  C   UNL     1       2.889   6.644  19.271  0.00  0.00    +0.000 A 
ATOM     11  C   UNL     1       3.006   7.209  18.011  0.00  0.00    +0.000 A 
ATOM     12  C   UNL     1       2.198   8.368  17.848  0.00  0.00    +0.000 A 
ATOM     13  C   UNL     1       1.506   8.672  18.996  0.00  0.00    +0.000 A 
ATOM     14  S   UNL     1       1.821   7.558  20.254  0.00  0.00    +0.000 S 
ENDBRANCH   5  10
BRANCH   1  16
ATOM     15  C   UNL     1       5.219   4.950  15.553  0.00  0.00    +0.000 C 
ATOM     16  C   UNL     1       5.328   3.702  16.425  0.00  0.00    +0.000 C 
ENDBRANCH   1  16
BRANCH   6  17
ATOM     17  C   UNL     1       1.592   3.740  19.779  0.00  0.00    +0.000 C 
ATOM     18  O   UNL     1       0.614   3.453  19.108  0.00  0.00    +0.000 OA
BRANCH  17  19
ATOM     19  O   UNL     1       1.613   3.795  21.136  0.00  0.00    +0.000 OA
ATOM     20  C   UNL     1       1.685   2.542  21.815  0.00  0.00    +0.000 C 
ENDBRANCH  17  19
ENDBRANCH   6  17
BRANCH   3  21
ATOM     21  C   UNL     1       7.749   5.439  19.483  0.00  0.00    +0.000 C 
BRANCH  21  22
ATOM     22  C   UNL     1       8.301   6.804  19.056  0.00  0.00    +0.000 C 
BRANCH  22  23
ATOM     23  O   UNL     1       7.908   7.066  17.703  0.00  0.00    +0.000 OA
ATOM     24  C   UNL     1       7.458   8.403  17.535  0.00  0.00    +0.000 C 
ENDBRANCH  22  23
ENDBRANCH  21  22
ENDBRANCH   3  21
TORSDOF 7
ENDMDL
MODEL 2
REMARK VINA RESULT:      -6.3      2.863      5.698
REMARK  Name = 
REMARK  11 active torsions:
REMARK  status: ('A' for Active; 'I' for Inactive)
REMARK    1  A    between atoms: C_1  and  C_2
REMARK    2  A    between atoms: C_2  and  N_3
REMARK    3  A    between atoms: N_5  and  C_6
REMARK    4  A    between atoms: C_6  and  C_7
REMARK    5  A    between atoms: C_7  and  O_8
REMARK    6  A    between atoms: O_8  and  C_9
REMARK    7  A    between atoms: C_11  and  C_12
REMARK    8  A    between atoms: C_17  and  C_18
REMARK    9  A    between atoms: C_18  and  O_20
REMARK   10  A    between atoms: O_20  and  C_21
REMARK   11  A    between atoms: C_22  and  C_23
REMARK                            x       y       z     vdW  Elec       q    Type
REMARK                         _______ _______ _______ _____ _____    ______ ____
ROOT
ATOM      1  N   UNL     1       2.787   5.498  18.116  0.00  0.00    +0.000 N 
ATOM      2  C   UNL     1       3.051   6.852  17.898  0.00  0.00    +0.000 C 
ATOM      3  N   UNL     1       2.099   7.731  18.367  0.00  0.00    +0.000 N 
ATOM      4  N   UNL     1       4.062   7.304  17.235  0.00  0.00    +0.000 NA
ATOM      5  C   UNL     1       5.054   6.326  16.750  0.00  0.00    +0.000 C 
ATOM      6  C   UNL     1       4.492   4.938  16.544  0.00  0.00    +0.000 C 
ATOM      7  C   UNL     1       3.408   4.548  17.259  0.00  0.00    +0.000 C 
ATOM      8  C   UNL     1       2.780   3.179  17.153  0.00  0.00    +0.000 C 
ATOM      9  H   UNL     1       2.007   7.712  19.377  0.00  0.00    +0.000 HD
ENDROOT
BRANCH   5  10
ATOM     10  C   UNL     1       6.268   6.348  17.670  0.00  0.00    +0.000 A 
ATOM     11  C   UNL     1       7.367   7.191  17.633  0.00  0.00    +0.000 A 
ATOM     12  C   UNL     1       8.278   6.959  18.700  0.00  0.00    +0.000 A 
ATOM     13  C   UNL     1       7.863   5.928  19.508  0.00  0.00    +0.000 A 
ATOM     14  S   UNL     1       6.380   5.256  18.988  0.00  0.00    +0.000 S 
ENDBRANCH   5  10
BRANCH   1  16
ATOM     15  C   UNL     1       2.845   4.760  20.466  0.00  0.00    +0.000 C 
ATOM     16  C   UNL     1       1.960   5.078  19.264  0.00  0.00    +0.000 C 
ENDBRANCH   1  16
BRANCH   6  17
ATOM     17  C   UNL     1       5.278   4.054  15.638  0.00  0.00    +0.000 C 
ATOM     18  O   UNL     1       5.939   3.090  15.993  0.00  0.00    +0.000 OA
BRANCH  17  19
ATOM     19  O   UNL     1       5.175   4.496  14.358  0.00  0.00    +0.000 OA
ATOM     20  C   UNL     1       6.004   3.841  13.399  0.00  0.00    +0.000 C 
ENDBRANCH  17  19
ENDBRANCH   6  17
BRANCH   3  21
ATOM     21  C   UNL     1       2.099   9.121  17.896  0.00  0.00    +0.000 C 
BRANCH  21  22
ATOM     22  C   UNL     1       0.845   9.861  18.374  0.00  0.00    +0.000 C 
BRANCH  22  23
ATOM     23  O   UNL     1       0.986  10.171  19.766  0.00  0.00    +0.000 OA
ATOM     24  C   UNL     1      -0.106   9.678  20.530  0.00  0.00    +0.000 C 
ENDBRANCH  22  23
ENDBRANCH  21  22
ENDBRANCH   3  21
TORSDOF 7
ENDMDL
MODEL 3
REMARK VINA RESULT:      -5.9      2.929      5.970
REMARK  Name = 
REMARK  11 active torsions:
REMARK  status: ('A' for Active; 'I' for Inactive)
REMARK    1  A    between atoms: C_1  and  C_2
REMARK    2  A    between atoms: C_2  and  N_3
REMARK    3  A    between atoms: N_5  and  C_6
REMARK    4  A    between atoms: C_6  and  C_7
REMARK    5  A    between atoms: C_7  and  O_8
REMARK    6  A    between atoms: O_8  and  C_9
REMARK    7  A    between atoms: C_11  and  C_12
REMARK    8  A    between atoms: C_17  and  C_18
REMARK    9  A    between atoms: C_18  and  O_20
REMARK   10  A    between atoms: O_20  and  C_21
REMARK   11  A    between atoms: C_22  and  C_23
REMARK                            x       y       z     vdW  Elec       q    Type
REMARK                         _______ _______ _______ _____ _____    ______ ____
ROOT
ATOM      1  N   UNL     1       2.579   7.509  18.599  0.00  0.00    +0.000 N 
ATOM      2  C   UNL     1       2.097   7.375  19.903  0.00  0.00    +0.000 C 
ATOM      3  N   UNL     1       1.343   8.426  20.375  0.00  0.00    +0.000 N 
ATOM      4  N   UNL     1       2.377   6.389  20.689  0.00  0.00    +0.000 NA
ATOM      5  C   UNL     1       3.189   5.286  20.142  0.00  0.00    +0.000 C 
ATOM      6  C   UNL     1       4.082   5.700  18.993  0.00  0.00    +0.000 C 
ATOM      7  C   UNL     1       3.734   6.765  18.231  0.00  0.00    +0.000 C 
ATOM      8  C   UNL     1       4.536   7.249  17.046  0.00  0.00    +0.000 C 
ATOM      9  H   UNL     1       0.478   8.554  19.862  0.00  0.00    +0.000 HD
ENDROOT
BRANCH   5  10
ATOM     10  C   UNL     1       2.276   4.117  19.797  0.00  0.00    +0.000 A 
ATOM     11  C   UNL     1       1.824   3.100  20.623  0.00  0.00    +0.000 A 
ATOM     12  C   UNL     1       0.926   2.214  19.966  0.00  0.00    +0.000 A 
ATOM     13  C   UNL     1       0.738   2.562  18.650  0.00  0.00    +0.000 A 
ATOM     14  S   UNL     1       1.629   3.955  18.217  0.00  0.00    +0.000 S 
ENDBRANCH   5  10
BRANCH   1  16
ATOM     15  C   UNL     1       2.113   9.816  17.867  0.00  0.00    +0.000 C 
ATOM     16  C   UNL     1       1.846   8.333  17.619  0.00  0.00    +0.000 C 
ENDBRANCH   1  16
BRANCH   6  17
ATOM     17  C   UNL     1       5.234   4.795  18.717  0.00  0.00    +0.000 C 
ATOM     18  O   UNL     1       5.281   3.967  17.822  0.00  0.00    +0.000 OA
BRANCH  17  19
ATOM     19  O   UNL     1       6.217   5.008  19.630  0.00  0.00    +0.000 OA
ATOM     20  C   UNL     1       7.363   5.720  19.165  0.00  0.00    +0.000 C 
ENDBRANCH  17  19
ENDBRANCH   6  17
BRANCH   3  21
ATOM     21  C   UNL     1       1.086   8.547  21.815  0.00  0.00    +0.000 C 
BRANCH  21  22
ATOM     22  C   UNL     1      -0.386   8.881  22.082  0.00  0.00    +0.000 C 
BRANCH  22  23
ATOM     23  O   UNL     1      -0.473   9.718  23.242  0.00  0.00    +0.000 OA
ATOM     24  C   UNL     1      -1.049  10.981  22.937  0.00  0.00    +0.000 C 
ENDBRANCH  22  23
ENDBRANCH  21  22
ENDBRANCH   3  21
TORSDOF 7
ENDMDL
MODEL 4
REMARK VINA RESULT:      -5.8      2.993      5.888
REMARK  Name = 
REMARK  11 active torsions:
REMARK  status: ('A' for Active; 'I' for Inactive)
REMARK    1  A    between atoms: C_1  and  C_2
REMARK    2  A    between atoms: C_2  and  N_3
REMARK    3  A    between atoms: N_5  and  C_6
REMARK    4  A    between atoms: C_6  and  C_7
REMARK    5  A    between atoms: C_7  and  O_8
REMARK    6  A    between atoms: O_8  and  C_9
REMARK    7  A    between atoms: C_11  and  C_12
REMARK    8  A    between atoms: C_17  and  C_18
REMARK    9  A    between atoms: C_18  and  O_20
REMARK   10  A    between atoms: O_20  and  C_21
REMARK   11  A    between atoms: C_22  and  C_23
REMARK                            x       y       z     vdW  Elec       q    Type
REMARK                         _______ _______ _______ _____ _____    ______ ____
ROOT
ATOM      1  N   UNL     1       2.590   7.493  18.510  0.00  0.00    +0.000 N 
ATOM      2  C   UNL     1       2.131   7.338  19.820  0.00  0.00    +0.000 C 
ATOM      3  N   UNL     1       1.398   8.389  20.326  0.00  0.00    +0.000 N 
ATOM      4  N   UNL     1       2.415   6.335  20.582  0.00  0.00    +0.000 NA
ATOM      5  C   UNL     1       3.206   5.235  19.999  0.00  0.00    +0.000 C 
ATOM      6  C   UNL     1       4.081   5.661  18.841  0.00  0.00    +0.000 C 
ATOM      7  C   UNL     1       3.729   6.744  18.106  0.00  0.00    +0.000 C 
ATOM      8  C   UNL     1       4.514   7.242  16.916  0.00  0.00    +0.000 C 
ATOM      9  H   UNL     1       0.524   8.535  19.832  0.00  0.00    +0.000 HD
ENDROOT
BRANCH   5  10
ATOM     10  C   UNL     1       2.274   4.082  19.650  0.00  0.00    +0.000 A 
ATOM     11  C   UNL     1       1.513   3.900  18.506  0.00  0.00    +0.000 A 
ATOM     12  C   UNL     1       0.811   2.663  18.500  0.00  0.00    +0.000 A 
ATOM     13  C   UNL     1       1.035   1.945  19.651  0.00  0.00    +0.000 A 
ATOM     14  S   UNL     1       2.093   2.755  20.722  0.00  0.00    +0.000 S 
ENDBRANCH   5  10
BRANCH   1  16
ATOM     15  C   UNL     1       2.116   9.818  17.846  0.00  0.00    +0.000 C 
ATOM     16  C   UNL     1       1.847   8.342  17.559  0.00  0.00    +0.000 C 
ENDBRANCH   1  16
BRANCH   6  17
ATOM     17  C   UNL     1       5.217   4.750  18.527  0.00  0.00    +0.000 C 
ATOM     18  O   UNL     1       6.285   4.725  19.118  0.00  0.00    +0.000 OA
BRANCH  17  19
ATOM     19  O   UNL     1       4.901   3.966  17.464  0.00  0.00    +0.000 OA
ATOM     20  C   UNL     1       5.840   3.955  16.389  0.00  0.00    +0.000 C 
ENDBRANCH  17  19
ENDBRANCH   6  17
BRANCH   3  21
ATOM     21  C   UNL     1       1.169   8.485  21.772  0.00  0.00    +0.000 C 
BRANCH  21  22
ATOM     22  C   UNL     1       0.938   9.940  22.195  0.00  0.00    +0.000 C 
BRANCH  22  23
ATOM     23  O   UNL     1       0.126   9.962  23.375  0.00  0.00    +0.000 OA
ATOM     24  C   UNL     1      -1.096  10.655  23.161  0.00  0.00    +0.000 C 
ENDBRANCH  22  23
ENDBRANCH  21  22
ENDBRANCH   3  21
TORSDOF 7
ENDMDL
MODEL 5
REMARK VINA RESULT:      -5.8      1.101      1.251
REMARK  Name = 
REMARK  11 active torsions:
REMARK  status: ('A' for Active; 'I' for Inactive)
REMARK    1  A    between atoms: C_1  and  C_2
REMARK    2  A    between atoms: C_2  and  N_3
REMARK    3  A    between atoms: N_5  and  C_6
REMARK    4  A    between atoms: C_6  and  C_7
REMARK    5  A    between atoms: C_7  and  O_8
REMARK    6  A    between atoms: O_8  and  C_9
REMARK    7  A    between atoms: C_11  and  C_12
REMARK    8  A    between atoms: C_17  and  C_18
REMARK    9  A    between atoms: C_18  and  O_20
REMARK   10  A    between atoms: O_20  and  C_21
REMARK   11  A    between atoms: C_22  and  C_23
REMARK                            x       y       z     vdW  Elec       q    Type
REMARK                         _______ _______ _______ _____ _____    ______ ____
ROOT
ATOM      1  N   UNL     1       4.681   4.897  16.997  0.00  0.00    +0.000 N 
ATOM      2  C   UNL     1       5.442   5.798  17.745  0.00  0.00    +0.000 C 
ATOM      3  N   UNL     1       6.709   6.054  17.268  0.00  0.00    +0.000 N 
ATOM      4  N   UNL     1       5.066   6.323  18.863  0.00  0.00    +0.000 NA
ATOM      5  C   UNL     1       3.702   6.019  19.337  0.00  0.00    +0.000 C 
ATOM      6  C   UNL     1       3.157   4.706  18.822  0.00  0.00    +0.000 C 
ATOM      7  C   UNL     1       3.625   4.206  17.653  0.00  0.00    +0.000 C 
ATOM      8  C   UNL     1       3.135   2.919  17.033  0.00  0.00    +0.000 C 
ATOM      9  H   UNL     1       6.704   6.510  16.362  0.00  0.00    +0.000 HD
ENDROOT
BRANCH   5  10
ATOM     10  C   UNL     1       2.793   7.203  19.035  0.00  0.00    +0.000 A 
ATOM     11  C   UNL     1       2.614   7.872  17.835  0.00  0.00    +0.000 A 
ATOM     12  C   UNL     1       1.627   8.893  17.913  0.00  0.00    +0.000 A 
ATOM     13  C   UNL     1       1.097   8.992  19.177  0.00  0.00    +0.000 A 
ATOM     14  S   UNL     1       1.778   7.854  20.255  0.00  0.00    +0.000 S 
ENDBRANCH   5  10
BRANCH   1  16
ATOM     15  C   UNL     1       6.025   3.725  15.297  0.00  0.00    +0.000 C 
ATOM     16  C   UNL     1       4.920   4.747  15.549  0.00  0.00    +0.000 C 
ENDBRANCH   1  16
BRANCH   6  17
ATOM     17  C   UNL     1       2.030   4.127  19.607  0.00  0.00    +0.000 C 
ATOM     18  O   UNL     1       0.919   3.878  19.167  0.00  0.00    +0.000 OA
BRANCH  17  19
ATOM     19  O   UNL     1       2.413   3.941  20.897  0.00  0.00    +0.000 OA
ATOM     20  C   UNL     1       1.748   2.896  21.605  0.00  0.00    +0.000 C 
ENDBRANCH  17  19
ENDBRANCH   6  17
BRANCH   3  21
ATOM     21  C   UNL     1       7.698   6.697  18.140  0.00  0.00    +0.000 C 
BRANCH  21  22
ATOM     22  C   UNL     1       7.916   8.159  17.737  0.00  0.00    +0.000 C 
BRANCH  22  23
ATOM     23  O   UNL     1       8.687   8.815  18.751  0.00  0.00    +0.000 OA
ATOM     24  C   UNL     1       8.949  10.172  18.419  0.00  0.00    +0.000 C 
ENDBRANCH  22  23
ENDBRANCH  21  22
ENDBRANCH   3  21
TORSDOF 7
ENDMDL
MODEL 6
REMARK VINA RESULT:      -5.7      0.594      1.025
REMARK  Name = 
REMARK  11 active torsions:
REMARK  status: ('A' for Active; 'I' for Inactive)
REMARK    1  A    between atoms: C_1  and  C_2
REMARK    2  A    between atoms: C_2  and  N_3
REMARK    3  A    between atoms: N_5  and  C_6
REMARK    4  A    between atoms: C_6  and  C_7
REMARK    5  A    between atoms: C_7  and  O_8
REMARK    6  A    between atoms: O_8  and  C_9
REMARK    7  A    between atoms: C_11  and  C_12
REMARK    8  A    between atoms: C_17  and  C_18
REMARK    9  A    between atoms: C_18  and  O_20
REMARK   10  A    between atoms: O_20  and  C_21
REMARK   11  A    between atoms: C_22  and  C_23
REMARK                            x       y       z     vdW  Elec       q    Type
REMARK                         _______ _______ _______ _____ _____    ______ ____
ROOT
ATOM      1  N   UNL     1       5.171   3.891  17.759  0.00  0.00    +0.000 N 
ATOM      2  C   UNL     1       5.875   4.802  18.551  0.00  0.00    +0.000 C 
ATOM      3  N   UNL     1       7.221   4.913  18.284  0.00  0.00    +0.000 N 
ATOM      4  N   UNL     1       5.365   5.460  19.538  0.00  0.00    +0.000 NA
ATOM      5  C   UNL     1       3.920   5.308  19.789  0.00  0.00    +0.000 C 
ATOM      6  C   UNL     1       3.351   3.996  19.297  0.00  0.00    +0.000 C 
ATOM      7  C   UNL     1       3.962   3.349  18.275  0.00  0.00    +0.000 C 
ATOM      8  C   UNL     1       3.467   2.048  17.688  0.00  0.00    +0.000 C 
ATOM      9  H   UNL     1       7.411   5.278  17.356  0.00  0.00    +0.000 HD
ENDROOT
BRANCH   5  10
ATOM     10  C   UNL     1       3.185   6.522  19.234  0.00  0.00    +0.000 A 
ATOM     11  C   UNL     1       3.281   7.088  17.973  0.00  0.00    +0.000 A 
ATOM     12  C   UNL     1       2.389   8.181  17.789  0.00  0.00    +0.000 A 
ATOM     13  C   UNL     1       1.655   8.435  18.923  0.00  0.00    +0.000 A 
ATOM     14  S   UNL     1       2.033   7.355  20.192  0.00  0.00    +0.000 S 
ENDBRANCH   5  10
BRANCH   1  16
ATOM     15  C   UNL     1       5.294   4.731  15.446  0.00  0.00    +0.000 C 
ATOM     16  C   UNL     1       5.635   3.583  16.393  0.00  0.00    +0.000 C 
ENDBRANCH   1  16
BRANCH   6  17
ATOM     17  C   UNL     1       2.060   3.582  19.917  0.00  0.00    +0.000 C 
ATOM     18  O   UNL     1       1.919   3.221  21.075  0.00  0.00    +0.000 OA
BRANCH  17  19
ATOM     19  O   UNL     1       1.065   3.640  18.994  0.00  0.00    +0.000 OA
ATOM     20  C   UNL     1       0.329   2.435  18.789  0.00  0.00    +0.000 C 
ENDBRANCH  17  19
ENDBRANCH   6  17
BRANCH   3  21
ATOM     21  C   UNL     1       8.105   5.562  19.260  0.00  0.00    +0.000 C 
BRANCH  21  22
ATOM     22  C   UNL     1       8.322   7.037  18.906  0.00  0.00    +0.000 C 
BRANCH  22  23
ATOM     23  O   UNL     1       7.892   7.264  17.558  0.00  0.00    +0.000 OA
ATOM     24  C   UNL     1       7.274   8.535  17.410  0.00  0.00    +0.000 C 
ENDBRANCH  22  23
ENDBRANCH  21  22
ENDBRANCH   3  21
TORSDOF 7
ENDMDL
MODEL 7
REMARK VINA RESULT:      -5.6      1.139      1.277
REMARK  Name = 
REMARK  11 active torsions:
REMARK  status: ('A' for Active; 'I' for Inactive)
REMARK    1  A    between atoms: C_1  and  C_2
REMARK    2  A    between atoms: C_2  and  N_3
REMARK    3  A    between atoms: N_5  and  C_6
REMARK    4  A    between atoms: C_6  and  C_7
REMARK    5  A    between atoms: C_7  and  O_8
REMARK    6  A    between atoms: O_8  and  C_9
REMARK    7  A    between atoms: C_11  and  C_12
REMARK    8  A    between atoms: C_17  and  C_18
REMARK    9  A    between atoms: C_18  and  O_20
REMARK   10  A    between atoms: O_20  and  C_21
REMARK   11  A    between atoms: C_22  and  C_23
REMARK                            x       y       z     vdW  Elec       q    Type
REMARK                         _______ _______ _______ _____ _____    ______ ____
ROOT
ATOM      1  N   UNL     1       5.024   4.320  17.446  0.00  0.00    +0.000 N 
ATOM      2  C   UNL     1       5.730   5.306  18.141  0.00  0.00    +0.000 C 
ATOM      3  N   UNL     1       7.022   5.529  17.717  0.00  0.00    +0.000 N 
ATOM      4  N   UNL     1       5.280   5.939  19.172  0.00  0.00    +0.000 NA
ATOM      5  C   UNL     1       3.893   5.667  19.591  0.00  0.00    +0.000 C 
ATOM      6  C   UNL     1       3.391   4.299  19.185  0.00  0.00    +0.000 C 
ATOM      7  C   UNL     1       3.935   3.686  18.106  0.00  0.00    +0.000 C 
ATOM      8  C   UNL     1       3.494   2.334  17.596  0.00  0.00    +0.000 C 
ATOM      9  H   UNL     1       7.070   5.888  16.769  0.00  0.00    +0.000 HD
ENDROOT
BRANCH   5  10
ATOM     10  C   UNL     1       2.994   6.799  19.111  0.00  0.00    +0.000 A 
ATOM     11  C   UNL     1       2.028   7.496  19.819  0.00  0.00    +0.000 A 
ATOM     12  C   UNL     1       1.431   8.539  19.058  0.00  0.00    +0.000 A 
ATOM     13  C   UNL     1       1.939   8.593  17.782  0.00  0.00    +0.000 A 
ATOM     14  S   UNL     1       3.135   7.403  17.512  0.00  0.00    +0.000 S 
ENDBRANCH   5  10
BRANCH   1  16
ATOM     15  C   UNL     1       5.098   5.249  15.165  0.00  0.00    +0.000 C 
ATOM     16  C   UNL     1       5.354   4.024  16.039  0.00  0.00    +0.000 C 
ENDBRANCH   1  16
BRANCH   6  17
ATOM     17  C   UNL     1       2.223   3.789  19.956  0.00  0.00    +0.000 C 
ATOM     18  O   UNL     1       1.052   3.950  19.651  0.00  0.00    +0.000 OA
BRANCH  17  19
ATOM     19  O   UNL     1       2.652   3.138  21.069  0.00  0.00    +0.000 OA
ATOM     20  C   UNL     1       1.639   2.539  21.876  0.00  0.00    +0.000 C 
ENDBRANCH  17  19
ENDBRANCH   6  17
BRANCH   3  21
ATOM     21  C   UNL     1       7.950   6.273  18.575  0.00  0.00    +0.000 C 
BRANCH  21  22
ATOM     22  C   UNL     1       8.103   7.719  18.091  0.00  0.00    +0.000 C 
BRANCH  22  23
ATOM     23  O   UNL     1       8.844   8.463  19.066  0.00  0.00    +0.000 OA
ATOM     24  C   UNL     1       8.948   9.836  18.713  0.00  0.00    +0.000 C 
ENDBRANCH  22  23
ENDBRANCH  21  22
ENDBRANCH   3  21
TORSDOF 7
ENDMDL
MODEL 8
REMARK VINA RESULT:      -5.5      3.023      5.207
REMARK  Name = 
REMARK  11 active torsions:
REMARK  status: ('A' for Active; 'I' for Inactive)
REMARK    1  A    between atoms: C_1  and  C_2
REMARK    2  A    between atoms: C_2  and  N_3
REMARK    3  A    between atoms: N_5  and  C_6
REMARK    4  A    between atoms: C_6  and  C_7
REMARK    5  A    between atoms: C_7  and  O_8
REMARK    6  A    between atoms: O_8  and  C_9
REMARK    7  A    between atoms: C_11  and  C_12
REMARK    8  A    between atoms: C_17  and  C_18
REMARK    9  A    between atoms: C_18  and  O_20
REMARK   10  A    between atoms: O_20  and  C_21
REMARK   11  A    between atoms: C_22  and  C_23
REMARK                            x       y       z     vdW  Elec       q    Type
REMARK                         _______ _______ _______ _____ _____    ______ ____
ROOT
ATOM      1  N   UNL     1       1.976   6.748  19.862  0.00  0.00    +0.000 N 
ATOM      2  C   UNL     1       2.349   7.668  18.879  0.00  0.00    +0.000 C 
ATOM      3  N   UNL     1       1.890   8.955  19.058  0.00  0.00    +0.000 N 
ATOM      4  N   UNL     1       3.009   7.371  17.810  0.00  0.00    +0.000 NA
ATOM      5  C   UNL     1       3.478   5.981  17.659  0.00  0.00    +0.000 C 
ATOM      6  C   UNL     1       2.644   4.971  18.417  0.00  0.00    +0.000 C 
ATOM      7  C   UNL     1       1.956   5.369  19.514  0.00  0.00    +0.000 C 
ATOM      8  C   UNL     1       1.114   4.442  20.359  0.00  0.00    +0.000 C 
ATOM      9  H   UNL     1       2.268   9.396  19.890  0.00  0.00    +0.000 HD
ENDROOT
BRANCH   5  10
ATOM     10  C   UNL     1       4.959   5.913  18.007  0.00  0.00    +0.000 A 
ATOM     11  C   UNL     1       5.551   5.513  19.194  0.00  0.00    +0.000 A 
ATOM     12  C   UNL     1       6.972   5.516  19.131  0.00  0.00    +0.000 A 
ATOM     13  C   UNL     1       7.426   5.942  17.905  0.00  0.00    +0.000 A 
ATOM     14  S   UNL     1       6.146   6.323  16.839  0.00  0.00    +0.000 S 
ENDBRANCH   5  10
BRANCH   1  16
ATOM     15  C   UNL     1       0.362   7.929  21.300  0.00  0.00    +0.000 C 
ATOM     16  C   UNL     1       1.703   7.202  21.238  0.00  0.00    +0.000 C 
ENDBRANCH   1  16
BRANCH   6  17
ATOM     17  C   UNL     1       2.758   3.562  17.946  0.00  0.00    +0.000 C 
ATOM     18  O   UNL     1       2.244   3.113  16.935  0.00  0.00    +0.000 OA
BRANCH  17  19
ATOM     19  O   UNL     1       3.499   2.840  18.826  0.00  0.00    +0.000 OA
ATOM     20  C   UNL     1       3.603   1.441  18.561  0.00  0.00    +0.000 C 
ENDBRANCH  17  19
ENDBRANCH   6  17
BRANCH   3  21
ATOM     21  C   UNL     1       1.925   9.902  17.938  0.00  0.00    +0.000 C 
BRANCH  21  22
ATOM     22  C   UNL     1       1.703  11.337  18.426  0.00  0.00    +0.000 C 
BRANCH  22  23
ATOM     23  O   UNL     1       2.741  12.175  17.904  0.00  0.00    +0.000 OA
ATOM     24  C   UNL     1       2.527  13.543  18.227  0.00  0.00    +0.000 C 
ENDBRANCH  22  23
ENDBRANCH  21  22
ENDBRANCH   3  21
TORSDOF 7
ENDMDL
MODEL 9
REMARK VINA RESULT:      -5.4      2.671      5.688
REMARK  Name = 
REMARK  11 active torsions:
REMARK  status: ('A' for Active; 'I' for Inactive)
REMARK    1  A    between atoms: C_1  and  C_2
REMARK    2  A    between atoms: C_2  and  N_3
REMARK    3  A    between atoms: N_5  and  C_6
REMARK    4  A    between atoms: C_6  and  C_7
REMARK    5  A    between atoms: C_7  and  O_8
REMARK    6  A    between atoms: O_8  and  C_9
REMARK    7  A    between atoms: C_11  and  C_12
REMARK    8  A    between atoms: C_17  and  C_18
REMARK    9  A    between atoms: C_18  and  O_20
REMARK   10  A    between atoms: O_20  and  C_21
REMARK   11  A    between atoms: C_22  and  C_23
REMARK                            x       y       z     vdW  Elec       q    Type
REMARK                         _______ _______ _______ _____ _____    ______ ____
ROOT
ATOM      1  N   UNL     1       3.137   5.179  18.238  0.00  0.00    +0.000 N 
ATOM      2  C   UNL     1       3.147   6.561  18.035  0.00  0.00    +0.000 C 
ATOM      3  N   UNL     1       2.080   7.252  18.566  0.00  0.00    +0.000 N 
ATOM      4  N   UNL     1       4.028   7.192  17.333  0.00  0.00    +0.000 NA
ATOM      5  C   UNL     1       5.151   6.410  16.782  0.00  0.00    +0.000 C 
ATOM      6  C   UNL     1       4.831   4.947  16.575  0.00  0.00    +0.000 C 
ATOM      7  C   UNL     1       3.871   4.364  17.333  0.00  0.00    +0.000 C 
ATOM      8  C   UNL     1       3.489   2.906  17.230  0.00  0.00    +0.000 C 
ATOM      9  H   UNL     1       2.044   7.206  19.579  0.00  0.00    +0.000 HD
ENDROOT
BRANCH   5  10
ATOM     10  C   UNL     1       6.387   6.636  17.644  0.00  0.00    +0.000 A 
ATOM     11  C   UNL     1       6.940   5.797  18.598  0.00  0.00    +0.000 A 
ATOM     12  C   UNL     1       8.141   6.314  19.158  0.00  0.00    +0.000 A 
ATOM     13  C   UNL     1       8.458   7.545  18.634  0.00  0.00    +0.000 A 
ATOM     14  S   UNL     1       7.320   8.063  17.469  0.00  0.00    +0.000 S 
ENDBRANCH   5  10
BRANCH   1  16
ATOM     15  C   UNL     1       1.134   3.964  19.002  0.00  0.00    +0.000 C 
ATOM     16  C   UNL     1       2.456   4.607  19.415  0.00  0.00    +0.000 C 
ENDBRANCH   1  16
BRANCH   6  17
ATOM     17  C   UNL     1       5.714   4.226  15.615  0.00  0.00    +0.000 C 
ATOM     18  O   UNL     1       6.783   3.706  15.895  0.00  0.00    +0.000 OA
BRANCH  17  19
ATOM     19  O   UNL     1       5.168   4.257  14.372  0.00  0.00    +0.000 OA
ATOM     20  C   UNL     1       6.021   3.857  13.300  0.00  0.00    +0.000 C 
ENDBRANCH  17  19
ENDBRANCH   6  17
BRANCH   3  21
ATOM     21  C   UNL     1       1.812   8.625  18.125  0.00  0.00    +0.000 C 
BRANCH  21  22
ATOM     22  C   UNL     1       1.322   9.490  19.291  0.00  0.00    +0.000 C 
BRANCH  22  23
ATOM     23  O   UNL     1       1.193   8.671  20.460  0.00  0.00    +0.000 OA
ATOM     24  C   UNL     1       0.665   9.401  21.559  0.00  0.00    +0.000 C 
ENDBRANCH  22  23
ENDBRANCH  21  22
ENDBRANCH   3  21
TORSDOF 7
ENDMDL
