MODEL 1
REMARK VINA RESULT:      -7.1      0.000      0.000
REMARK  Name = 
REMARK  12 active torsions:
REMARK  status: ('A' for Active; 'I' for Inactive)
REMARK    1  A    between atoms: C_1  and  C_2
REMARK    2  A    between atoms: C_2  and  C_3
REMARK    3  A    between atoms: C_2  and  C_4
REMARK    4  A    between atoms: C_2  and  O_5
REMARK    5  A    between atoms: O_5  and  C_6
REMARK    6  A    between atoms: C_11  and  N_12
REMARK    7  A    between atoms: N_12  and  C_13
REMARK    8  A    between atoms: C_13  and  C_14
REMARK    9  A    between atoms: N_17  and  C_18
REMARK   10  A    between atoms: C_18  and  C_19
REMARK   11  A    between atoms: C_18  and  C_20
REMARK   12  A    between atoms: C_18  and  C_21
REMARK                            x       y       z     vdW  Elec       q    Type
REMARK                         _______ _______ _______ _____ _____    ______ ____
ROOT
ATOM      1  C   UNL     1       3.522   4.695  18.330  0.00  0.00    +0.000 C 
ATOM      2  O   UNL     1       2.668   4.950  17.486  0.00  0.00    +0.000 OA
ATOM      3  N   UNL     1       4.642   5.488  18.502  0.00  0.00    +0.000 N 
ATOM      4  C   UNL     1       4.793   6.688  17.686  0.00  0.00    +0.000 C 
ATOM      5  C   UNL     1       5.973   6.544  16.727  0.00  0.00    +0.000 C 
ATOM      6  C   UNL     1       7.267   6.157  17.469  0.00  0.00    +0.000 C 
ATOM      7  C   UNL     1       6.998   4.895  18.319  0.00  0.00    +0.000 C 
ATOM      8  C   UNL     1       5.814   5.086  19.268  0.00  0.00    +0.000 C 
ENDROOT
BRANCH   6   9
ATOM      9  N   UNL     1       7.764   7.310  18.238  0.00  0.00    +0.000 NA
ATOM     10  H   UNL     1       8.708   7.154  18.585  0.00  0.00    +0.000 HD
BRANCH   9  11
ATOM     11  C   UNL     1       7.734   8.555  17.477  0.00  0.00    +0.000 C 
BRANCH  11  12
ATOM     12  C   UNL     1       8.506   9.586  18.211  0.00  0.00    +0.000 A 
ATOM     13  C   UNL     1       9.024   9.504  19.522  0.00  0.00    +0.000 A 
ATOM     14  N   UNL     1       9.736  10.579  19.864  0.00  0.00    +0.000 NA
ATOM     15  N   UNL     1       9.691  11.362  18.767  0.00  0.00    +0.000 N 
ATOM     16  C   UNL     1       8.927  10.820  17.766  0.00  0.00    +0.000 A 
BRANCH  15  17
ATOM     17  C   UNL     1      10.450  12.623  18.696  0.00  0.00    +0.000 C 
ATOM     18  C   UNL     1      11.836  12.426  18.042  0.00  0.00    +0.000 C 
ATOM     19  C   UNL     1       9.664  13.643  17.850  0.00  0.00    +0.000 C 
ATOM     20  C   UNL     1      10.656  13.176  20.116  0.00  0.00    +0.000 C 
ENDBRANCH  15  17
ENDBRANCH  11  12
ENDBRANCH   9  11
ENDBRANCH   6   9
BRANCH   1  21
ATOM     21  O   UNL     1       3.457   3.643  19.190  0.00  0.00    +0.000 OA
BRANCH  21  23
ATOM     22  C   UNL     1       1.121   2.950  19.509  0.00  0.00    +0.000 C 
ATOM     23  C   UNL     1       2.362   3.583  20.148  0.00  0.00    +0.000 C 
ATOM     24  C   UNL     1       2.069   4.966  20.758  0.00  0.00    +0.000 C 
ATOM     25  C   UNL     1       2.827   2.666  21.290  0.00  0.00    +0.000 C 
ENDBRANCH  21  23
ENDBRANCH   1  21
TORSDOF 6
ENDMDL
MODEL 2
REMARK VINA RESULT:      -7.1      0.888      1.375
REMARK  Name = 
REMARK  12 active torsions:
REMARK  status: ('A' for Active; 'I' for Inactive)
REMARK    1  A    between atoms: C_1  and  C_2
REMARK    2  A    between atoms: C_2  and  C_3
REMARK    3  A    between atoms: C_2  and  C_4
REMARK    4  A    between atoms: C_2  and  O_5
REMARK    5  A    between atoms: O_5  and  C_6
REMARK    6  A    between atoms: C_11  and  N_12
REMARK    7  A    between atoms: N_12  and  C_13
REMARK    8  A    between atoms: C_13  and  C_14
REMARK    9  A    between atoms: N_17  and  C_18
REMARK   10  A    between atoms: C_18  and  C_19
REMARK   11  A    between atoms: C_18  and  C_20
REMARK   12  A    between atoms: C_18  and  C_21
REMARK                            x       y       z     vdW  Elec       q    Type
REMARK                         _______ _______ _______ _____ _____    ______ ____
ROOT
ATOM      1  C   UNL     1       3.375   4.543  18.253  0.00  0.00    +0.000 C 
ATOM      2  O   UNL     1       2.564   4.348  17.352  0.00  0.00    +0.000 OA
ATOM      3  N   UNL     1       4.344   5.525  18.166  0.00  0.00    +0.000 N 
ATOM      4  C   UNL     1       4.379   6.385  16.988  0.00  0.00    +0.000 C 
ATOM      5  C   UNL     1       5.642   6.127  16.168  0.00  0.00    +0.000 C 
ATOM      6  C   UNL     1       6.914   6.240  17.031  0.00  0.00    +0.000 C 
ATOM      7  C   UNL     1       6.770   5.315  18.259  0.00  0.00    +0.000 C 
ATOM      8  C   UNL     1       5.497   5.612  19.052  0.00  0.00    +0.000 C 
ENDROOT
BRANCH   6   9
ATOM      9  N   UNL     1       7.167   7.652  17.362  0.00  0.00    +0.000 NA
ATOM     10  H   UNL     1       6.327   8.116  17.702  0.00  0.00    +0.000 HD
BRANCH   9  11
ATOM     11  C   UNL     1       8.237   7.824  18.339  0.00  0.00    +0.000 C 
BRANCH  11  12
ATOM     12  C   UNL     1       8.585   9.262  18.424  0.00  0.00    +0.000 A 
ATOM     13  C   UNL     1       8.131  10.309  17.592  0.00  0.00    +0.000 A 
ATOM     14  N   UNL     1       8.576  11.505  17.980  0.00  0.00    +0.000 NA
ATOM     15  N   UNL     1       9.314  11.239  19.077  0.00  0.00    +0.000 N 
ATOM     16  C   UNL     1       9.378   9.898  19.353  0.00  0.00    +0.000 A 
BRANCH  15  17
ATOM     17  C   UNL     1       9.910  12.322  19.878  0.00  0.00    +0.000 C 
ATOM     18  C   UNL     1       9.771  13.695  19.185  0.00  0.00    +0.000 C 
ATOM     19  C   UNL     1       9.195  12.402  21.241  0.00  0.00    +0.000 C 
ATOM     20  C   UNL     1      11.406  12.035  20.094  0.00  0.00    +0.000 C 
ENDBRANCH  15  17
ENDBRANCH  11  12
ENDBRANCH   9  11
ENDBRANCH   6   9
BRANCH   1  21
ATOM     21  O   UNL     1       3.400   3.849  19.423  0.00  0.00    +0.000 OA
BRANCH  21  23
ATOM     22  C   UNL     1       1.121   2.929  19.489  0.00  0.00    +0.000 C 
ATOM     23  C   UNL     1       2.181   3.764  20.217  0.00  0.00    +0.000 C 
ATOM     24  C   UNL     1       1.663   5.160  20.608  0.00  0.00    +0.000 C 
ATOM     25  C   UNL     1       2.553   3.031  21.515  0.00  0.00    +0.000 C 
ENDBRANCH  21  23
ENDBRANCH   1  21
TORSDOF 6
ENDMDL
MODEL 3
REMARK VINA RESULT:      -7.0      0.513      1.035
REMARK  Name = 
REMARK  12 active torsions:
REMARK  status: ('A' for Active; 'I' for Inactive)
REMARK    1  A    between atoms: C_1  and  C_2
REMARK    2  A    between atoms: C_2  and  C_3
REMARK    3  A    between atoms: C_2  and  C_4
REMARK    4  A    between atoms: C_2  and  O_5
REMARK    5  A    between atoms: O_5  and  C_6
REMARK    6  A    between atoms: C_11  and  N_12
REMARK    7  A    between atoms: N_12  and  C_13
REMARK    8  A    between atoms: C_13  and  C_14
REMARK    9  A    between atoms: N_17  and  C_18
REMARK   10  A    between atoms: C_18  and  C_19
REMARK   11  A    between atoms: C_18  and  C_20
REMARK   12  A    between atoms: C_18  and  C_21
REMARK                            x       y       z     vdW  Elec       q    Type
REMARK                         _______ _______ _______ _____ _____    ______ ____
ROOT
ATOM      1  C   UNL     1       3.413   4.959  18.462  0.00  0.00    +0.000 C 
ATOM      2  O   UNL     1       2.533   5.289  17.673  0.00  0.00    +0.000 OA
ATOM      3  N   UNL     1       4.584   5.681  18.598  0.00  0.00    +0.000 N 
ATOM      4  C   UNL     1       4.763   6.898  17.811  0.00  0.00    +0.000 C 
ATOM      5  C   UNL     1       5.881   6.719  16.786  0.00  0.00    +0.000 C 
ATOM      6  C   UNL     1       7.187   6.235  17.447  0.00  0.00    +0.000 C 
ATOM      7  C   UNL     1       6.890   4.964  18.272  0.00  0.00    +0.000 C 
ATOM      8  C   UNL     1       5.769   5.190  19.287  0.00  0.00    +0.000 C 
ENDROOT
BRANCH   6   9
ATOM      9  N   UNL     1       7.789   7.333  18.222  0.00  0.00    +0.000 NA
ATOM     10  H   UNL     1       8.741   7.114  18.509  0.00  0.00    +0.000 HD
BRANCH   9  11
ATOM     11  C   UNL     1       7.786   8.603  17.504  0.00  0.00    +0.000 C 
BRANCH  11  12
ATOM     12  C   UNL     1       8.605   9.583  18.257  0.00  0.00    +0.000 A 
ATOM     13  C   UNL     1       9.001   9.516  19.610  0.00  0.00    +0.000 A 
ATOM     14  N   UNL     1       9.798  10.525  19.965  0.00  0.00    +0.000 NA
ATOM     15  N   UNL     1       9.932  11.248  18.835  0.00  0.00    +0.000 N 
ATOM     16  C   UNL     1       9.197  10.738  17.796  0.00  0.00    +0.000 A 
BRANCH  15  17
ATOM     17  C   UNL     1      10.830  12.414  18.775  0.00  0.00    +0.000 C 
ATOM     18  C   UNL     1      11.340  12.676  17.341  0.00  0.00    +0.000 C 
ATOM     19  C   UNL     1      10.068  13.668  19.247  0.00  0.00    +0.000 C 
ATOM     20  C   UNL     1      12.045  12.172  19.687  0.00  0.00    +0.000 C 
ENDBRANCH  15  17
ENDBRANCH  11  12
ENDBRANCH   9  11
ENDBRANCH   6   9
BRANCH   1  21
ATOM     21  O   UNL     1       3.332   3.884  19.292  0.00  0.00    +0.000 OA
BRANCH  21  23
ATOM     22  C   UNL     1       1.757   5.183  20.661  0.00  0.00    +0.000 C 
ATOM     23  C   UNL     1       2.205   3.788  20.210  0.00  0.00    +0.000 C 
ATOM     24  C   UNL     1       2.520   2.859  21.397  0.00  0.00    +0.000 C 
ATOM     25  C   UNL     1       1.050   3.152  19.422  0.00  0.00    +0.000 C 
ENDBRANCH  21  23
ENDBRANCH   1  21
TORSDOF 6
ENDMDL
MODEL 4
REMARK VINA RESULT:      -6.8      0.193      1.305
REMARK  Name = 
REMARK  12 active torsions:
REMARK  status: ('A' for Active; 'I' for Inactive)
REMARK    1  A    between atoms: C_1  and  C_2
REMARK    2  A    between atoms: C_2  and  C_3
REMARK    3  A    between atoms: C_2  and  C_4
REMARK    4  A    between atoms: C_2  and  O_5
REMARK    5  A    between atoms: O_5  and  C_6
REMARK    6  A    between atoms: C_11  and  N_12
REMARK    7  A    between atoms: N_12  and  C_13
REMARK    8  A    between atoms: C_13  and  C_14
REMARK    9  A    between atoms: N_17  and  C_18
REMARK   10  A    between atoms: C_18  and  C_19
REMARK   11  A    between atoms: C_18  and  C_20
REMARK   12  A    between atoms: C_18  and  C_21
REMARK                            x       y       z     vdW  Elec       q    Type
REMARK                         _______ _______ _______ _____ _____    ______ ____
ROOT
ATOM      1  C   UNL     1       3.653   4.610  18.249  0.00  0.00    +0.000 C 
ATOM      2  O   UNL     1       2.791   4.862  17.414  0.00  0.00    +0.000 OA
ATOM      3  N   UNL     1       4.750   5.428  18.441  0.00  0.00    +0.000 N 
ATOM      4  C   UNL     1       4.867   6.653  17.656  0.00  0.00    +0.000 C 
ATOM      5  C   UNL     1       6.048   6.568  16.692  0.00  0.00    +0.000 C 
ATOM      6  C   UNL     1       7.354   6.198  17.423  0.00  0.00    +0.000 C 
ATOM      7  C   UNL     1       7.122   4.908  18.240  0.00  0.00    +0.000 C 
ATOM      8  C   UNL     1       5.935   5.040  19.194  0.00  0.00    +0.000 C 
ENDROOT
BRANCH   6   9
ATOM      9  N   UNL     1       7.820   7.345  18.220  0.00  0.00    +0.000 NA
ATOM     10  H   UNL     1       8.792   7.239  18.501  0.00  0.00    +0.000 HD
BRANCH   9  11
ATOM     11  C   UNL     1       7.657   8.620  17.531  0.00  0.00    +0.000 C 
BRANCH  11  12
ATOM     12  C   UNL     1       8.463   9.650  18.227  0.00  0.00    +0.000 A 
ATOM     13  C   UNL     1       9.100   9.542  19.483  0.00  0.00    +0.000 A 
ATOM     14  N   UNL     1       9.810  10.627  19.796  0.00  0.00    +0.000 NA
ATOM     15  N   UNL     1       9.646  11.442  18.734  0.00  0.00    +0.000 N 
ATOM     16  C   UNL     1       8.810  10.909  17.788  0.00  0.00    +0.000 A 
BRANCH  15  17
ATOM     17  C   UNL     1      10.362  12.726  18.639  0.00  0.00    +0.000 C 
ATOM     18  C   UNL     1       9.537  13.790  17.882  0.00  0.00    +0.000 C 
ATOM     19  C   UNL     1      10.641  13.260  20.057  0.00  0.00    +0.000 C 
ATOM     20  C   UNL     1      11.690  12.519  17.892  0.00  0.00    +0.000 C 
ENDBRANCH  15  17
ENDBRANCH  11  12
ENDBRANCH   9  11
ENDBRANCH   6   9
BRANCH   1  21
ATOM     21  O   UNL     1       3.620   3.533  19.081  0.00  0.00    +0.000 OA
BRANCH  21  23
ATOM     22  C   UNL     1       2.969   2.754  21.320  0.00  0.00    +0.000 C 
ATOM     23  C   UNL     1       2.503   3.393  20.006  0.00  0.00    +0.000 C 
ATOM     24  C   UNL     1       1.330   2.630  19.364  0.00  0.00    +0.000 C 
ATOM     25  C   UNL     1       2.011   4.815  20.319  0.00  0.00    +0.000 C 
ENDBRANCH  21  23
ENDBRANCH   1  21
TORSDOF 6
ENDMDL
MODEL 5
REMARK VINA RESULT:      -6.8      5.347      7.498
REMARK  Name = 
REMARK  12 active torsions:
REMARK  status: ('A' for Active; 'I' for Inactive)
REMARK    1  A    between atoms: C_1  and  C_2
REMARK    2  A    between atoms: C_2  and  C_3
REMARK    3  A    between atoms: C_2  and  C_4
REMARK    4  A    between atoms: C_2  and  O_5
REMARK    5  A    between atoms: O_5  and  C_6
REMARK    6  A    between atoms: C_11  and  N_12
REMARK    7  A    between atoms: N_12  and  C_13
REMARK    8  A    between atoms: C_13  and  C_14
REMARK    9  A    between atoms: N_17  and  C_18
REMARK   10  A    between atoms: C_18  and  C_19
REMARK   11  A    between atoms: C_18  and  C_20
REMARK   12  A    between atoms: C_18  and  C_21
REMARK                            x       y       z     vdW  Elec       q    Type
REMARK                         _______ _______ _______ _____ _____    ______ ____
ROOT
ATOM      1  C   UNL     1       6.670   4.693  14.449  0.00  0.00    +0.000 C 
ATOM      2  O   UNL     1       7.612   5.472  14.338  0.00  0.00    +0.000 OA
ATOM      3  N   UNL     1       5.582   4.968  15.255  0.00  0.00    +0.000 N 
ATOM      4  C   UNL     1       5.529   6.243  15.964  0.00  0.00    +0.000 C 
ATOM      5  C   UNL     1       5.634   6.028  17.472  0.00  0.00    +0.000 C 
ATOM      6  C   UNL     1       4.587   5.016  17.978  0.00  0.00    +0.000 C 
ATOM      7  C   UNL     1       4.708   3.716  17.153  0.00  0.00    +0.000 C 
ATOM      8  C   UNL     1       4.591   3.977  15.652  0.00  0.00    +0.000 C 
ENDROOT
BRANCH   6   9
ATOM      9  N   UNL     1       3.249   5.629  17.949  0.00  0.00    +0.000 NA
ATOM     10  H   UNL     1       2.525   4.946  17.737  0.00  0.00    +0.000 HD
BRANCH   9  11
ATOM     11  C   UNL     1       2.911   6.314  19.193  0.00  0.00    +0.000 C 
BRANCH  11  12
ATOM     12  C   UNL     1       2.347   7.645  18.871  0.00  0.00    +0.000 A 
ATOM     13  C   UNL     1       2.481   8.370  17.667  0.00  0.00    +0.000 A 
ATOM     14  N   UNL     1       1.789   9.511  17.671  0.00  0.00    +0.000 NA
ATOM     15  N   UNL     1       1.191   9.525  18.880  0.00  0.00    +0.000 N 
ATOM     16  C   UNL     1       1.534   8.443  19.647  0.00  0.00    +0.000 A 
BRANCH  15  17
ATOM     17  C   UNL     1       0.241  10.588  19.250  0.00  0.00    +0.000 C 
ATOM     18  C   UNL     1       0.908  11.981  19.257  0.00  0.00    +0.000 C 
ATOM     19  C   UNL     1      -0.914  10.617  18.229  0.00  0.00    +0.000 C 
ATOM     20  C   UNL     1      -0.317  10.309  20.656  0.00  0.00    +0.000 C 
ENDBRANCH  15  17
ENDBRANCH  11  12
ENDBRANCH   9  11
ENDBRANCH   6   9
BRANCH   1  21
ATOM     21  O   UNL     1       6.578   3.506  13.789  0.00  0.00    +0.000 OA
BRANCH  21  23
ATOM     22  C   UNL     1       7.178   4.616  11.679  0.00  0.00    +0.000 C 
ATOM     23  C   UNL     1       6.346   3.517  12.351  0.00  0.00    +0.000 C 
ATOM     24  C   UNL     1       4.847   3.629  12.021  0.00  0.00    +0.000 C 
ATOM     25  C   UNL     1       6.834   2.161  11.817  0.00  0.00    +0.000 C 
ENDBRANCH  21  23
ENDBRANCH   1  21
TORSDOF 6
ENDMDL
MODEL 6
REMARK VINA RESULT:      -6.8      0.940      1.565
REMARK  Name = 
REMARK  12 active torsions:
REMARK  status: ('A' for Active; 'I' for Inactive)
REMARK    1  A    between atoms: C_1  and  C_2
REMARK    2  A    between atoms: C_2  and  C_3
REMARK    3  A    between atoms: C_2  and  C_4
REMARK    4  A    between atoms: C_2  and  O_5
REMARK    5  A    between atoms: O_5  and  C_6
REMARK    6  A    between atoms: C_11  and  N_12
REMARK    7  A    between atoms: N_12  and  C_13
REMARK    8  A    between atoms: C_13  and  C_14
REMARK    9  A    between atoms: N_17  and  C_18
REMARK   10  A    between atoms: C_18  and  C_19
REMARK   11  A    between atoms: C_18  and  C_20
REMARK   12  A    between atoms: C_18  and  C_21
REMARK                            x       y       z     vdW  Elec       q    Type
REMARK                         _______ _______ _______ _____ _____    ______ ____
ROOT
ATOM      1  C   UNL     1       3.084   4.568  18.269  0.00  0.00    +0.000 C 
ATOM      2  O   UNL     1       2.185   4.565  17.434  0.00  0.00    +0.000 OA
ATOM      3  N   UNL     1       4.058   5.548  18.294  0.00  0.00    +0.000 N 
ATOM      4  C   UNL     1       3.992   6.638  17.325  0.00  0.00    +0.000 C 
ATOM      5  C   UNL     1       5.163   6.563  16.347  0.00  0.00    +0.000 C 
ATOM      6  C   UNL     1       6.516   6.495  17.082  0.00  0.00    +0.000 C 
ATOM      7  C   UNL     1       6.477   5.331  18.096  0.00  0.00    +0.000 C 
ATOM      8  C   UNL     1       5.294   5.450  19.058  0.00  0.00    +0.000 C 
ENDROOT
BRANCH   6   9
ATOM      9  N   UNL     1       6.826   7.806  17.676  0.00  0.00    +0.000 NA
ATOM     10  H   UNL     1       6.166   8.053  18.410  0.00  0.00    +0.000 HD
BRANCH   9  11
ATOM     11  C   UNL     1       8.183   7.883  18.206  0.00  0.00    +0.000 C 
BRANCH  11  12
ATOM     12  C   UNL     1       8.553   9.307  18.377  0.00  0.00    +0.000 A 
ATOM     13  C   UNL     1       8.239  10.388  17.524  0.00  0.00    +0.000 A 
ATOM     14  N   UNL     1       8.659  11.561  18.000  0.00  0.00    +0.000 NA
ATOM     15  N   UNL     1       9.240  11.246  19.176  0.00  0.00    +0.000 N 
ATOM     16  C   UNL     1       9.235   9.897  19.419  0.00  0.00    +0.000 A 
BRANCH  15  17
ATOM     17  C   UNL     1       9.755  12.290  20.078  0.00  0.00    +0.000 C 
ATOM     18  C   UNL     1      11.299  12.312  20.114  0.00  0.00    +0.000 C 
ATOM     19  C   UNL     1       9.271  13.669  19.589  0.00  0.00    +0.000 C 
ATOM     20  C   UNL     1       9.239  12.035  21.504  0.00  0.00    +0.000 C 
ENDBRANCH  15  17
ENDBRANCH  11  12
ENDBRANCH   9  11
ENDBRANCH   6   9
BRANCH   1  21
ATOM     21  O   UNL     1       3.212   3.642  19.259  0.00  0.00    +0.000 OA
BRANCH  21  23
ATOM     22  C   UNL     1       2.630   2.829  21.504  0.00  0.00    +0.000 C 
ATOM     23  C   UNL     1       2.121   3.474  20.209  0.00  0.00    +0.000 C 
ATOM     24  C   UNL     1       0.944   2.699  19.589  0.00  0.00    +0.000 C 
ATOM     25  C   UNL     1       1.614   4.884  20.550  0.00  0.00    +0.000 C 
ENDBRANCH  21  23
ENDBRANCH   1  21
TORSDOF 6
ENDMDL
MODEL 7
REMARK VINA RESULT:      -6.5      5.302      7.576
REMARK  Name = 
REMARK  12 active torsions:
REMARK  status: ('A' for Active; 'I' for Inactive)
REMARK    1  A    between atoms: C_1  and  C_2
REMARK    2  A    between atoms: C_2  and  C_3
REMARK    3  A    between atoms: C_2  and  C_4
REMARK    4  A    between atoms: C_2  and  O_5
REMARK    5  A    between atoms: O_5  and  C_6
REMARK    6  A    between atoms: C_11  and  N_12
REMARK    7  A    between atoms: N_12  and  C_13
REMARK    8  A    between atoms: C_13  and  C_14
REMARK    9  A    between atoms: N_17  and  C_18
REMARK   10  A    between atoms: C_18  and  C_19
REMARK   11  A    between atoms: C_18  and  C_20
REMARK   12  A    between atoms: C_18  and  C_21
REMARK                            x       y       z     vdW  Elec       q    Type
REMARK                         _______ _______ _______ _____ _____    ______ ____
ROOT
ATOM      1  C   UNL     1       6.563   4.676  14.445  0.00  0.00    +0.000 C 
ATOM      2  O   UNL     1       7.470   5.480  14.255  0.00  0.00    +0.000 OA
ATOM      3  N   UNL     1       5.513   4.945  15.304  0.00  0.00    +0.000 N 
ATOM      4  C   UNL     1       5.457   6.241  15.972  0.00  0.00    +0.000 C 
ATOM      5  C   UNL     1       5.655   6.081  17.478  0.00  0.00    +0.000 C 
ATOM      6  C   UNL     1       4.672   5.055  18.076  0.00  0.00    +0.000 C 
ATOM      7  C   UNL     1       4.789   3.731  17.289  0.00  0.00    +0.000 C 
ATOM      8  C   UNL     1       4.579   3.938  15.789  0.00  0.00    +0.000 C 
ENDROOT
BRANCH   6   9
ATOM      9  N   UNL     1       3.314   5.625  18.105  0.00  0.00    +0.000 NA
ATOM     10  H   UNL     1       2.618   4.957  17.780  0.00  0.00    +0.000 HD
BRANCH   9  11
ATOM     11  C   UNL     1       2.931   6.113  19.425  0.00  0.00    +0.000 C 
BRANCH  11  12
ATOM     12  C   UNL     1       2.300   7.446  19.281  0.00  0.00    +0.000 A 
ATOM     13  C   UNL     1       2.219   8.240  18.116  0.00  0.00    +0.000 A 
ATOM     14  N   UNL     1       1.519   9.360  18.303  0.00  0.00    +0.000 NA
ATOM     15  N   UNL     1       1.132   9.291  19.593  0.00  0.00    +0.000 N 
ATOM     16  C   UNL     1       1.616   8.177  20.227  0.00  0.00    +0.000 A 
BRANCH  15  17
ATOM     17  C   UNL     1       0.240  10.308  20.178  0.00  0.00    +0.000 C 
ATOM     18  C   UNL     1      -0.993  10.574  19.286  0.00  0.00    +0.000 C 
ATOM     19  C   UNL     1      -0.261   9.816  21.550  0.00  0.00    +0.000 C 
ATOM     20  C   UNL     1       1.010  11.628  20.349  0.00  0.00    +0.000 C 
ENDBRANCH  15  17
ENDBRANCH  11  12
ENDBRANCH   9  11
ENDBRANCH   6   9
BRANCH   1  21
ATOM     21  O   UNL     1       6.473   3.465  13.831  0.00  0.00    +0.000 OA
BRANCH  21  23
ATOM     22  C   UNL     1       4.772   3.842  12.097  0.00  0.00    +0.000 C 
ATOM     23  C   UNL     1       6.215   3.421  12.398  0.00  0.00    +0.000 C 
ATOM     24  C   UNL     1       6.562   2.044  11.803  0.00  0.00    +0.000 C 
ATOM     25  C   UNL     1       7.154   4.451  11.751  0.00  0.00    +0.000 C 
ENDBRANCH  21  23
ENDBRANCH   1  21
TORSDOF 6
ENDMDL
MODEL 8
REMARK VINA RESULT:      -6.5      0.983      1.275
REMARK  Name = 
REMARK  12 active torsions:
REMARK  status: ('A' for Active; 'I' for Inactive)
REMARK    1  A    between atoms: C_1  and  C_2
REMARK    2  A    between atoms: C_2  and  C_3
REMARK    3  A    between atoms: C_2  and  C_4
REMARK    4  A    between atoms: C_2  and  O_5
REMARK    5  A    between atoms: O_5  and  C_6
REMARK    6  A    between atoms: C_11  and  N_12
REMARK    7  A    between atoms: N_12  and  C_13
REMARK    8  A    between atoms: C_13  and  C_14
REMARK    9  A    between atoms: N_17  and  C_18
REMARK   10  A    between atoms: C_18  and  C_19
REMARK   11  A    between atoms: C_18  and  C_20
REMARK   12  A    between atoms: C_18  and  C_21
REMARK                            x       y       z     vdW  Elec       q    Type
REMARK                         _______ _______ _______ _____ _____    ______ ____
ROOT
ATOM      1  C   UNL     1       3.466   5.053  18.596  0.00  0.00    +0.000 C 
ATOM      2  O   UNL     1       2.590   5.308  17.775  0.00  0.00    +0.000 OA
ATOM      3  N   UNL     1       4.630   5.794  18.682  0.00  0.00    +0.000 N 
ATOM      4  C   UNL     1       4.805   6.943  17.798  0.00  0.00    +0.000 C 
ATOM      5  C   UNL     1       5.935   6.691  16.802  0.00  0.00    +0.000 C 
ATOM      6  C   UNL     1       7.238   6.275  17.511  0.00  0.00    +0.000 C 
ATOM      7  C   UNL     1       6.944   5.073  18.436  0.00  0.00    +0.000 C 
ATOM      8  C   UNL     1       5.812   5.372  19.419  0.00  0.00    +0.000 C 
ENDROOT
BRANCH   6   9
ATOM      9  N   UNL     1       7.824   7.438  18.198  0.00  0.00    +0.000 NA
ATOM     10  H   UNL     1       8.757   7.238  18.550  0.00  0.00    +0.000 HD
BRANCH   9  11
ATOM     11  C   UNL     1       7.876   8.628  17.355  0.00  0.00    +0.000 C 
BRANCH  11  12
ATOM     12  C   UNL     1       8.491   9.736  18.125  0.00  0.00    +0.000 A 
ATOM     13  C   UNL     1       9.276   9.641  19.294  0.00  0.00    +0.000 A 
ATOM     14  N   UNL     1       9.741  10.823  19.701  0.00  0.00    +0.000 NA
ATOM     15  N   UNL     1       9.267  11.692  18.786  0.00  0.00    +0.000 N 
ATOM     16  C   UNL     1       8.476  11.085  17.846  0.00  0.00    +0.000 A 
BRANCH  15  17
ATOM     17  C   UNL     1       9.641  13.117  18.819  0.00  0.00    +0.000 C 
ATOM     18  C   UNL     1      10.536  13.505  17.621  0.00  0.00    +0.000 C 
ATOM     19  C   UNL     1       8.366  13.980  18.762  0.00  0.00    +0.000 C 
ATOM     20  C   UNL     1      10.411  13.414  20.117  0.00  0.00    +0.000 C 
ENDBRANCH  15  17
ENDBRANCH  11  12
ENDBRANCH   9  11
ENDBRANCH   6   9
BRANCH   1  21
ATOM     21  O   UNL     1       3.386   4.049  19.511  0.00  0.00    +0.000 OA
BRANCH  21  23
ATOM     22  C   UNL     1       3.868   2.590  17.593  0.00  0.00    +0.000 C 
ATOM     23  C   UNL     1       3.379   2.669  19.044  0.00  0.00    +0.000 C 
ATOM     24  C   UNL     1       2.000   2.014  19.237  0.00  0.00    +0.000 C 
ATOM     25  C   UNL     1       4.380   1.903  19.923  0.00  0.00    +0.000 C 
ENDBRANCH  21  23
ENDBRANCH   1  21
TORSDOF 6
ENDMDL
MODEL 9
REMARK VINA RESULT:      -6.3      0.883      1.429
REMARK  Name = 
REMARK  12 active torsions:
REMARK  status: ('A' for Active; 'I' for Inactive)
REMARK    1  A    between atoms: C_1  and  C_2
REMARK    2  A    between atoms: C_2  and  C_3
REMARK    3  A    between atoms: C_2  and  C_4
REMARK    4  A    between atoms: C_2  and  O_5
REMARK    5  A    between atoms: O_5  and  C_6
REMARK    6  A    between atoms: C_11  and  N_12
REMARK    7  A    between atoms: N_12  and  C_13
REMARK    8  A    between atoms: C_13  and  C_14
REMARK    9  A    between atoms: N_17  and  C_18
REMARK   10  A    between atoms: C_18  and  C_19
REMARK   11  A    between atoms: C_18  and  C_20
REMARK   12  A    between atoms: C_18  and  C_21
REMARK                            x       y       z     vdW  Elec       q    Type
REMARK                         _______ _______ _______ _____ _____    ______ ____
ROOT
ATOM      1  C   UNL     1       4.087   4.015  17.789  0.00  0.00    +0.000 C 
ATOM      2  O   UNL     1       3.572   3.843  16.689  0.00  0.00    +0.000 OA
ATOM      3  N   UNL     1       4.889   5.107  18.062  0.00  0.00    +0.000 N 
ATOM      4  C   UNL     1       5.097   6.111  17.022  0.00  0.00    +0.000 C 
ATOM      5  C   UNL     1       6.551   6.113  16.556  0.00  0.00    +0.000 C 
ATOM      6  C   UNL     1       7.528   6.263  17.739  0.00  0.00    +0.000 C 
ATOM      7  C   UNL     1       7.213   5.176  18.790  0.00  0.00    +0.000 C 
ATOM      8  C   UNL     1       5.750   5.215  19.232  0.00  0.00    +0.000 C 
ENDROOT
BRANCH   6   9
ATOM      9  N   UNL     1       7.475   7.640  18.256  0.00  0.00    +0.000 NA
ATOM     10  H   UNL     1       7.876   7.708  19.190  0.00  0.00    +0.000 HD
BRANCH   9  11
ATOM     11  C   UNL     1       8.136   8.603  17.381  0.00  0.00    +0.000 C 
BRANCH  11  12
ATOM     12  C   UNL     1       8.585   9.760  18.190  0.00  0.00    +0.000 A 
ATOM     13  C   UNL     1       9.188   9.737  19.466  0.00  0.00    +0.000 A 
ATOM     14  N   UNL     1       9.541  10.951  19.892  0.00  0.00    +0.000 NA
ATOM     15  N   UNL     1       9.176  11.769  18.884  0.00  0.00    +0.000 N 
ATOM     16  C   UNL     1       8.559  11.097  17.861  0.00  0.00    +0.000 A 
BRANCH  15  17
ATOM     17  C   UNL     1       9.486  13.209  18.918  0.00  0.00    +0.000 C 
ATOM     18  C   UNL     1       8.465  14.037  18.106  0.00  0.00    +0.000 C 
ATOM     19  C   UNL     1       9.447  13.704  20.377  0.00  0.00    +0.000 C 
ATOM     20  C   UNL     1      10.886  13.446  18.327  0.00  0.00    +0.000 C 
ENDBRANCH  15  17
ENDBRANCH  11  12
ENDBRANCH   9  11
ENDBRANCH   6   9
BRANCH   1  21
ATOM     21  O   UNL     1       3.914   3.183  18.853  0.00  0.00    +0.000 OA
BRANCH  21  23
ATOM     22  C   UNL     1       1.901   4.512  19.327  0.00  0.00    +0.000 C 
ATOM     23  C   UNL     1       2.630   3.180  19.542  0.00  0.00    +0.000 C 
ATOM     24  C   UNL     1       2.788   2.830  21.032  0.00  0.00    +0.000 C 
ATOM     25  C   UNL     1       1.787   2.070  18.895  0.00  0.00    +0.000 C 
ENDBRANCH  21  23
ENDBRANCH   1  21
TORSDOF 6
ENDMDL
