MODEL 1
REMARK VINA RESULT:      -8.4      0.000      0.000
REMARK  Name = 
REMARK  12 active torsions:
REMARK  status: ('A' for Active; 'I' for Inactive)
REMARK    1  A    between atoms: C_1  and  C_2
REMARK    2  A    between atoms: C_4  and  C_5
REMARK    3  A    between atoms: N_6  and  C_7
REMARK    4  A    between atoms: C_7  and  C_8
REMARK    5  A    between atoms: C_11  and  C_12
REMARK    6  A    between atoms: N_14  and  C_15
REMARK    7  A    between atoms: C_21  and  C_22
REMARK    8  A    between atoms: N_24  and  C_25
REMARK    9  A    between atoms: C_25  and  C_26
REMARK   10  A    between atoms: C_26  and  C_27
REMARK   11  A    between atoms: C_27  and  C_28
REMARK   12  A    between atoms: C_28  and  O_29
REMARK                            x       y       z     vdW  Elec       q    Type
REMARK                         _______ _______ _______ _____ _____    ______ ____
ROOT
ATOM      1  C   UNL     1       2.729   7.636  18.190  0.00  0.00    +0.000 C 
ATOM      2  O   UNL     1       2.564   8.075  17.052  0.00  0.00    +0.000 OA
ATOM      3  N   UNL     1       3.557   6.548  18.453  0.00  0.00    +0.000 N 
ATOM      4  H   UNL     1       3.361   6.029  19.305  0.00  0.00    +0.000 HD
ENDROOT
BRANCH   3   5
ATOM      5  C   UNL     1       4.264   5.897  17.404  0.00  0.00    +0.000 A 
ATOM      6  C   UNL     1       4.961   6.680  16.467  0.00  0.00    +0.000 A 
ATOM      7  C   UNL     1       5.647   6.093  15.401  0.00  0.00    +0.000 A 
ATOM      8  C   UNL     1       5.640   4.712  15.256  0.00  0.00    +0.000 A 
ATOM      9 CL   UNL     1       6.440   3.991  13.914  0.00  0.00    +0.000 Cl
ATOM     10  C   UNL     1       4.982   3.912  16.186  0.00  0.00    +0.000 A 
ATOM     11  C   UNL     1       4.302   4.497  17.272  0.00  0.00    +0.000 A 
BRANCH  11  12
ATOM     12  C   UNL     1       3.605   3.556  18.189  0.00  0.00    +0.000 C 
ATOM     13  O   UNL     1       4.183   3.134  19.185  0.00  0.00    +0.000 OA
ATOM     14  N   UNL     1       2.326   3.185  17.834  0.00  0.00    +0.000 N 
ATOM     15  H   UNL     1       2.063   3.299  16.861  0.00  0.00    +0.000 HD
BRANCH  14  16
ATOM     16  C   UNL     1       1.576   2.226  18.621  0.00  0.00    +0.000 C 
BRANCH  16  17
ATOM     17  C   UNL     1       0.508   2.938  19.444  0.00  0.00    +0.000 C 
BRANCH  17  18
ATOM     18  C   UNL     1       1.112   3.624  20.667  0.00  0.00    +0.000 C 
BRANCH  18  19
ATOM     19  C   UNL     1       1.493   2.621  21.749  0.00  0.00    +0.000 C 
BRANCH  19  20
ATOM     20  O   UNL     1       2.907   2.545  21.883  0.00  0.00    +0.000 OA
ATOM     21  H   UNL     1       3.123   2.819  22.793  0.00  0.00    +0.000 HD
ENDBRANCH  19  20
ENDBRANCH  18  19
ENDBRANCH  17  18
ENDBRANCH  16  17
ENDBRANCH  14  16
ENDBRANCH  11  12
ENDBRANCH   3   5
BRANCH   1  25
ATOM     22  C   UNL     1       0.747   9.573  20.483  0.00  0.00    +0.000 A 
ATOM     23  C   UNL     1       0.877   8.431  21.249  0.00  0.00    +0.000 A 
ATOM     24  C   UNL     1       1.670   7.540  20.501  0.00  0.00    +0.000 A 
ATOM     25  C   UNL     1       1.976   8.168  19.308  0.00  0.00    +0.000 A 
ATOM     26  O   UNL     1       1.441   9.433  19.304  0.00  0.00    +0.000 OA
BRANCH  22  27
ATOM     27  C   UNL     1       0.039  10.853  20.750  0.00  0.00    +0.000 C 
BRANCH  27  33
ATOM     28  C   UNL     1      -2.896   9.923  16.987  0.00  0.00    +0.000 C 
ATOM     29  C   UNL     1      -2.356  10.624  18.179  0.00  0.00    +0.000 A 
ATOM     30  C   UNL     1      -2.884  11.770  18.814  0.00  0.00    +0.000 A 
ATOM     31  C   UNL     1      -2.034  12.030  19.869  0.00  0.00    +0.000 A 
ATOM     32  C   UNL     1      -2.073  13.092  20.900  0.00  0.00    +0.000 C 
ATOM     33  N   UNL     1      -1.060  11.061  19.810  0.00  0.00    +0.000 N 
ATOM     34  N   UNL     1      -1.250  10.186  18.791  0.00  0.00    +0.000 NA
ENDBRANCH  27  33
ENDBRANCH  22  27
ENDBRANCH   1  25
TORSDOF 10
ENDMDL
MODEL 2
REMARK VINA RESULT:      -8.3      1.002      1.119
REMARK  Name = 
REMARK  12 active torsions:
REMARK  status: ('A' for Active; 'I' for Inactive)
REMARK    1  A    between atoms: C_1  and  C_2
REMARK    2  A    between atoms: C_4  and  C_5
REMARK    3  A    between atoms: N_6  and  C_7
REMARK    4  A    between atoms: C_7  and  C_8
REMARK    5  A    between atoms: C_11  and  C_12
REMARK    6  A    between atoms: N_14  and  C_15
REMARK    7  A    between atoms: C_21  and  C_22
REMARK    8  A    between atoms: N_24  and  C_25
REMARK    9  A    between atoms: C_25  and  C_26
REMARK   10  A    between atoms: C_26  and  C_27
REMARK   11  A    between atoms: C_27  and  C_28
REMARK   12  A    between atoms: C_28  and  O_29
REMARK                            x       y       z     vdW  Elec       q    Type
REMARK                         _______ _______ _______ _____ _____    ______ ____
ROOT
ATOM      1  C   UNL     1       2.498   7.283  18.307  0.00  0.00    +0.000 C 
ATOM      2  O   UNL     1       1.816   7.098  17.299  0.00  0.00    +0.000 OA
ATOM      3  N   UNL     1       3.794   6.788  18.427  0.00  0.00    +0.000 N 
ATOM      4  H   UNL     1       4.138   6.656  19.374  0.00  0.00    +0.000 HD
ENDROOT
BRANCH   3   5
ATOM      5  C   UNL     1       4.395   6.049  17.371  0.00  0.00    +0.000 A 
ATOM      6  C   UNL     1       5.055   6.746  16.343  0.00  0.00    +0.000 A 
ATOM      7  C   UNL     1       5.635   6.069  15.268  0.00  0.00    +0.000 A 
ATOM      8  C   UNL     1       5.559   4.684  15.204  0.00  0.00    +0.000 A 
ATOM      9 CL   UNL     1       6.227   3.854  13.854  0.00  0.00    +0.000 Cl
ATOM     10  C   UNL     1       4.936   3.968  16.223  0.00  0.00    +0.000 A 
ATOM     11  C   UNL     1       4.362   4.643  17.317  0.00  0.00    +0.000 A 
BRANCH  11  12
ATOM     12  C   UNL     1       3.694   3.788  18.335  0.00  0.00    +0.000 C 
ATOM     13  O   UNL     1       3.981   3.913  19.520  0.00  0.00    +0.000 OA
ATOM     14  N   UNL     1       2.790   2.862  17.862  0.00  0.00    +0.000 N 
ATOM     15  H   UNL     1       2.865   2.597  16.886  0.00  0.00    +0.000 HD
BRANCH  14  16
ATOM     16  C   UNL     1       2.126   1.935  18.757  0.00  0.00    +0.000 C 
BRANCH  16  17
ATOM     17  C   UNL     1       0.718   2.424  19.075  0.00  0.00    +0.000 C 
BRANCH  17  18
ATOM     18  C   UNL     1       0.691   3.251  20.359  0.00  0.00    +0.000 C 
BRANCH  18  19
ATOM     19  C   UNL     1       1.416   2.547  21.501  0.00  0.00    +0.000 C 
BRANCH  19  20
ATOM     20  O   UNL     1       2.357   3.424  22.108  0.00  0.00    +0.000 OA
ATOM     21  H   UNL     1       1.849   4.110  22.575  0.00  0.00    +0.000 HD
ENDBRANCH  19  20
ENDBRANCH  18  19
ENDBRANCH  17  18
ENDBRANCH  16  17
ENDBRANCH  14  16
ENDBRANCH  11  12
ENDBRANCH   3   5
BRANCH   1  25
ATOM     22  C   UNL     1       1.003   9.514  20.701  0.00  0.00    +0.000 A 
ATOM     23  C   UNL     1       1.108   8.397  21.508  0.00  0.00    +0.000 A 
ATOM     24  C   UNL     1       1.713   7.397  20.724  0.00  0.00    +0.000 A 
ATOM     25  C   UNL     1       1.939   7.939  19.472  0.00  0.00    +0.000 A 
ATOM     26  O   UNL     1       1.536   9.252  19.460  0.00  0.00    +0.000 OA
BRANCH  22  27
ATOM     27  C   UNL     1       0.465  10.872  20.976  0.00  0.00    +0.000 C 
BRANCH  27  33
ATOM     28  C   UNL     1      -3.008  11.433  17.620  0.00  0.00    +0.000 C 
ATOM     29  C   UNL     1      -1.745  11.685  18.358  0.00  0.00    +0.000 A 
ATOM     30  C   UNL     1      -0.794  12.700  18.111  0.00  0.00    +0.000 A 
ATOM     31  C   UNL     1       0.191  12.519  19.060  0.00  0.00    +0.000 A 
ATOM     32  C   UNL     1       1.437  13.278  19.314  0.00  0.00    +0.000 C 
ATOM     33  N   UNL     1      -0.202  11.430  19.801  0.00  0.00    +0.000 N 
ATOM     34  N   UNL     1      -1.389  10.917  19.393  0.00  0.00    +0.000 NA
ENDBRANCH  27  33
ENDBRANCH  22  27
ENDBRANCH   1  25
TORSDOF 10
ENDMDL
MODEL 3
REMARK VINA RESULT:      -8.3      1.837      2.562
REMARK  Name = 
REMARK  12 active torsions:
REMARK  status: ('A' for Active; 'I' for Inactive)
REMARK    1  A    between atoms: C_1  and  C_2
REMARK    2  A    between atoms: C_4  and  C_5
REMARK    3  A    between atoms: N_6  and  C_7
REMARK    4  A    between atoms: C_7  and  C_8
REMARK    5  A    between atoms: C_11  and  C_12
REMARK    6  A    between atoms: N_14  and  C_15
REMARK    7  A    between atoms: C_21  and  C_22
REMARK    8  A    between atoms: N_24  and  C_25
REMARK    9  A    between atoms: C_25  and  C_26
REMARK   10  A    between atoms: C_26  and  C_27
REMARK   11  A    between atoms: C_27  and  C_28
REMARK   12  A    between atoms: C_28  and  O_29
REMARK                            x       y       z     vdW  Elec       q    Type
REMARK                         _______ _______ _______ _____ _____    ______ ____
ROOT
ATOM      1  C   UNL     1       2.597   7.827  18.303  0.00  0.00    +0.000 C 
ATOM      2  O   UNL     1       2.565   8.301  17.167  0.00  0.00    +0.000 OA
ATOM      3  N   UNL     1       3.318   6.675  18.607  0.00  0.00    +0.000 N 
ATOM      4  H   UNL     1       3.010   6.154  19.423  0.00  0.00    +0.000 HD
ENDROOT
BRANCH   3   5
ATOM      5  C   UNL     1       4.067   5.996  17.606  0.00  0.00    +0.000 A 
ATOM      6  C   UNL     1       5.227   6.606  17.095  0.00  0.00    +0.000 A 
ATOM      7  C   UNL     1       5.982   5.996  16.091  0.00  0.00    +0.000 A 
ATOM      8  C   UNL     1       5.582   4.768  15.579  0.00  0.00    +0.000 A 
ATOM      9 CL   UNL     1       6.481   4.041  14.306  0.00  0.00    +0.000 Cl
ATOM     10  C   UNL     1       4.453   4.130  16.087  0.00  0.00    +0.000 A 
ATOM     11  C   UNL     1       3.697   4.732  17.110  0.00  0.00    +0.000 A 
BRANCH  11  12
ATOM     12  C   UNL     1       2.493   3.984  17.560  0.00  0.00    +0.000 C 
ATOM     13  O   UNL     1       1.375   4.420  17.310  0.00  0.00    +0.000 OA
ATOM     14  N   UNL     1       2.718   2.829  18.277  0.00  0.00    +0.000 N 
ATOM     15  H   UNL     1       3.625   2.727  18.721  0.00  0.00    +0.000 HD
BRANCH  14  16
ATOM     16  C   UNL     1       1.620   2.053  18.818  0.00  0.00    +0.000 C 
BRANCH  16  17
ATOM     17  C   UNL     1       1.564   2.201  20.334  0.00  0.00    +0.000 C 
BRANCH  17  18
ATOM     18  C   UNL     1       1.101   3.598  20.742  0.00  0.00    +0.000 C 
BRANCH  18  19
ATOM     19  C   UNL     1       2.160   4.330  21.559  0.00  0.00    +0.000 C 
BRANCH  19  20
ATOM     20  O   UNL     1       3.250   4.714  20.731  0.00  0.00    +0.000 OA
ATOM     21  H   UNL     1       3.763   5.380  21.225  0.00  0.00    +0.000 HD
ENDBRANCH  19  20
ENDBRANCH  18  19
ENDBRANCH  17  18
ENDBRANCH  16  17
ENDBRANCH  14  16
ENDBRANCH  11  12
ENDBRANCH   3   5
BRANCH   1  25
ATOM     22  C   UNL     1       0.459   9.801  20.418  0.00  0.00    +0.000 A 
ATOM     23  C   UNL     1       0.623   8.717  21.258  0.00  0.00    +0.000 A 
ATOM     24  C   UNL     1       1.478   7.822  20.588  0.00  0.00    +0.000 A 
ATOM     25  C   UNL     1       1.788   8.389  19.366  0.00  0.00    +0.000 A 
ATOM     26  O   UNL     1       1.192   9.623  19.267  0.00  0.00    +0.000 OA
BRANCH  22  27
ATOM     27  C   UNL     1      -0.317  11.059  20.584  0.00  0.00    +0.000 C 
BRANCH  27  33
ATOM     28  C   UNL     1       3.349  14.200  21.162  0.00  0.00    +0.000 C 
ATOM     29  C   UNL     1       2.138  13.583  20.565  0.00  0.00    +0.000 A 
ATOM     30  C   UNL     1       1.443  13.999  19.407  0.00  0.00    +0.000 A 
ATOM     31  C   UNL     1       0.400  13.110  19.265  0.00  0.00    +0.000 A 
ATOM     32  C   UNL     1      -0.662  13.025  18.236  0.00  0.00    +0.000 C 
ATOM     33  N   UNL     1       0.510  12.235  20.320  0.00  0.00    +0.000 N 
ATOM     34  N   UNL     1       1.575  12.502  21.115  0.00  0.00    +0.000 NA
ENDBRANCH  27  33
ENDBRANCH  22  27
ENDBRANCH   1  25
TORSDOF 10
ENDMDL
MODEL 4
REMARK VINA RESULT:      -8.1      1.398      1.615
REMARK  Name = 
REMARK  12 active torsions:
REMARK  status: ('A' for Active; 'I' for Inactive)
REMARK    1  A    between atoms: C_1  and  C_2
REMARK    2  A    between atoms: C_4  and  C_5
REMARK    3  A    between atoms: N_6  and  C_7
REMARK    4  A    between atoms: C_7  and  C_8
REMARK    5  A    between atoms: C_11  and  C_12
REMARK    6  A    between atoms: N_14  and  C_15
REMARK    7  A    between atoms: C_21  and  C_22
REMARK    8  A    between atoms: N_24  and  C_25
REMARK    9  A    between atoms: C_25  and  C_26
REMARK   10  A    between atoms: C_26  and  C_27
REMARK   11  A    between atoms: C_27  and  C_28
REMARK   12  A    between atoms: C_28  and  O_29
REMARK                            x       y       z     vdW  Elec       q    Type
REMARK                         _______ _______ _______ _____ _____    ______ ____
ROOT
ATOM      1  C   UNL     1       2.675   6.765  18.306  0.00  0.00    +0.000 C 
ATOM      2  O   UNL     1       2.030   5.871  17.759  0.00  0.00    +0.000 OA
ATOM      3  N   UNL     1       4.019   6.992  18.022  0.00  0.00    +0.000 N 
ATOM      4  H   UNL     1       4.557   7.465  18.743  0.00  0.00    +0.000 HD
ENDROOT
BRANCH   3   5
ATOM      5  C   UNL     1       4.708   6.195  17.067  0.00  0.00    +0.000 A 
ATOM      6  C   UNL     1       4.856   6.682  15.756  0.00  0.00    +0.000 A 
ATOM      7  C   UNL     1       5.498   5.927  14.772  0.00  0.00    +0.000 A 
ATOM      8  C   UNL     1       5.997   4.669  15.086  0.00  0.00    +0.000 A 
ATOM      9 CL   UNL     1       6.741   3.717  13.862  0.00  0.00    +0.000 Cl
ATOM     10  C   UNL     1       5.889   4.176  16.383  0.00  0.00    +0.000 A 
ATOM     11  C   UNL     1       5.258   4.939  17.384  0.00  0.00    +0.000 A 
BRANCH  11  12
ATOM     12  C   UNL     1       5.167   4.307  18.727  0.00  0.00    +0.000 C 
ATOM     13  O   UNL     1       5.743   4.817  19.681  0.00  0.00    +0.000 OA
ATOM     14  N   UNL     1       4.443   3.137  18.810  0.00  0.00    +0.000 N 
ATOM     15  H   UNL     1       4.297   2.620  17.949  0.00  0.00    +0.000 HD
BRANCH  14  16
ATOM     16  C   UNL     1       4.340   2.403  20.055  0.00  0.00    +0.000 C 
BRANCH  16  17
ATOM     17  C   UNL     1       2.926   2.510  20.615  0.00  0.00    +0.000 C 
BRANCH  17  18
ATOM     18  C   UNL     1       1.890   1.997  19.618  0.00  0.00    +0.000 C 
BRANCH  18  19
ATOM     19  C   UNL     1       0.787   3.020  19.370  0.00  0.00    +0.000 C 
BRANCH  19  20
ATOM     20  O   UNL     1       0.596   3.836  20.519  0.00  0.00    +0.000 OA
ATOM     21  H   UNL     1      -0.112   3.425  21.047  0.00  0.00    +0.000 HD
ENDBRANCH  19  20
ENDBRANCH  18  19
ENDBRANCH  17  18
ENDBRANCH  16  17
ENDBRANCH  14  16
ENDBRANCH  11  12
ENDBRANCH   3   5
BRANCH   1  25
ATOM     22  C   UNL     1       1.135   9.287  20.359  0.00  0.00    +0.000 A 
ATOM     23  C   UNL     1       1.198   8.277  21.299  0.00  0.00    +0.000 A 
ATOM     24  C   UNL     1       1.815   7.182  20.664  0.00  0.00    +0.000 A 
ATOM     25  C   UNL     1       2.088   7.564  19.364  0.00  0.00    +0.000 A 
ATOM     26  O   UNL     1       1.704   8.870  19.178  0.00  0.00    +0.000 OA
BRANCH  22  27
ATOM     27  C   UNL     1       0.606  10.673  20.448  0.00  0.00    +0.000 C 
BRANCH  27  33
ATOM     28  C   UNL     1      -3.199   9.866  17.530  0.00  0.00    +0.000 C 
ATOM     29  C   UNL     1      -2.055  10.587  18.144  0.00  0.00    +0.000 A 
ATOM     30  C   UNL     1      -1.621  11.903  17.867  0.00  0.00    +0.000 A 
ATOM     31  C   UNL     1      -0.534  12.112  18.690  0.00  0.00    +0.000 A 
ATOM     32  C   UNL     1       0.332  13.300  18.860  0.00  0.00    +0.000 C 
ATOM     33  N   UNL     1      -0.368  10.942  19.392  0.00  0.00    +0.000 N 
ATOM     34  N   UNL     1      -1.298  10.005  19.080  0.00  0.00    +0.000 NA
ENDBRANCH  27  33
ENDBRANCH  22  27
ENDBRANCH   1  25
TORSDOF 10
ENDMDL
MODEL 5
REMARK VINA RESULT:      -8.0      1.308      1.464
REMARK  Name = 
REMARK  12 active torsions:
REMARK  status: ('A' for Active; 'I' for Inactive)
REMARK    1  A    between atoms: C_1  and  C_2
REMARK    2  A    between atoms: C_4  and  C_5
REMARK    3  A    between atoms: N_6  and  C_7
REMARK    4  A    between atoms: C_7  and  C_8
REMARK    5  A    between atoms: C_11  and  C_12
REMARK    6  A    between atoms: N_14  and  C_15
REMARK    7  A    between atoms: C_21  and  C_22
REMARK    8  A    between atoms: N_24  and  C_25
REMARK    9  A    between atoms: C_25  and  C_26
REMARK   10  A    between atoms: C_26  and  C_27
REMARK   11  A    between atoms: C_27  and  C_28
REMARK   12  A    between atoms: C_28  and  O_29
REMARK                            x       y       z     vdW  Elec       q    Type
REMARK                         _______ _______ _______ _____ _____    ______ ____
ROOT
ATOM      1  C   UNL     1       2.758   7.598  18.185  0.00  0.00    +0.000 C 
ATOM      2  O   UNL     1       2.649   8.159  17.095  0.00  0.00    +0.000 OA
ATOM      3  N   UNL     1       3.523   6.447  18.354  0.00  0.00    +0.000 N 
ATOM      4  H   UNL     1       3.276   5.855  19.143  0.00  0.00    +0.000 HD
ENDROOT
BRANCH   3   5
ATOM      5  C   UNL     1       4.229   5.871  17.262  0.00  0.00    +0.000 A 
ATOM      6  C   UNL     1       5.041   6.699  16.466  0.00  0.00    +0.000 A 
ATOM      7  C   UNL     1       5.732   6.190  15.364  0.00  0.00    +0.000 A 
ATOM      8  C   UNL     1       5.615   4.845  15.040  0.00  0.00    +0.000 A 
ATOM      9 CL   UNL     1       6.424   4.228  13.653  0.00  0.00    +0.000 Cl
ATOM     10  C   UNL     1       4.841   3.998  15.829  0.00  0.00    +0.000 A 
ATOM     11  C   UNL     1       4.155   4.501  16.950  0.00  0.00    +0.000 A 
BRANCH  11  12
ATOM     12  C   UNL     1       3.330   3.521  17.706  0.00  0.00    +0.000 C 
ATOM     13  O   UNL     1       2.221   3.207  17.290  0.00  0.00    +0.000 OA
ATOM     14  N   UNL     1       3.871   3.037  18.878  0.00  0.00    +0.000 N 
ATOM     15  H   UNL     1       4.607   3.584  19.311  0.00  0.00    +0.000 HD
BRANCH  14  16
ATOM     16  C   UNL     1       3.130   2.125  19.727  0.00  0.00    +0.000 C 
BRANCH  16  17
ATOM     17  C   UNL     1       2.945   2.727  21.115  0.00  0.00    +0.000 C 
BRANCH  17  18
ATOM     18  C   UNL     1       1.468   2.943  21.437  0.00  0.00    +0.000 C 
BRANCH  18  19
ATOM     19  C   UNL     1       0.763   3.747  20.351  0.00  0.00    +0.000 C 
BRANCH  19  20
ATOM     20  O   UNL     1      -0.005   2.889  19.515  0.00  0.00    +0.000 OA
ATOM     21  H   UNL     1      -0.788   2.617  20.027  0.00  0.00    +0.000 HD
ENDBRANCH  19  20
ENDBRANCH  18  19
ENDBRANCH  17  18
ENDBRANCH  16  17
ENDBRANCH  14  16
ENDBRANCH  11  12
ENDBRANCH   3   5
BRANCH   1  25
ATOM     22  C   UNL     1       0.693   9.333  20.566  0.00  0.00    +0.000 A 
ATOM     23  C   UNL     1       0.942   8.196  21.310  0.00  0.00    +0.000 A 
ATOM     24  C   UNL     1       1.783   7.384  20.525  0.00  0.00    +0.000 A 
ATOM     25  C   UNL     1       1.999   8.051  19.334  0.00  0.00    +0.000 A 
ATOM     26  O   UNL     1       1.359   9.266  19.364  0.00  0.00    +0.000 OA
BRANCH  22  27
ATOM     27  C   UNL     1      -0.110  10.546  20.873  0.00  0.00    +0.000 C 
BRANCH  27  33
ATOM     28  C   UNL     1      -2.789  11.252  16.877  0.00  0.00    +0.000 C 
ATOM     29  C   UNL     1      -1.769  11.518  17.923  0.00  0.00    +0.000 A 
ATOM     30  C   UNL     1      -0.937  12.653  18.043  0.00  0.00    +0.000 A 
ATOM     31  C   UNL     1      -0.174  12.432  19.170  0.00  0.00    +0.000 A 
ATOM     32  C   UNL     1       0.866  13.269  19.810  0.00  0.00    +0.000 C 
ATOM     33  N   UNL     1      -0.567  11.206  19.652  0.00  0.00    +0.000 N 
ATOM     34  N   UNL     1      -1.551  10.641  18.908  0.00  0.00    +0.000 NA
ENDBRANCH  27  33
ENDBRANCH  22  27
ENDBRANCH   1  25
TORSDOF 10
ENDMDL
MODEL 6
REMARK VINA RESULT:      -7.9      1.855      2.691
REMARK  Name = 
REMARK  12 active torsions:
REMARK  status: ('A' for Active; 'I' for Inactive)
REMARK    1  A    between atoms: C_1  and  C_2
REMARK    2  A    between atoms: C_4  and  C_5
REMARK    3  A    between atoms: N_6  and  C_7
REMARK    4  A    between atoms: C_7  and  C_8
REMARK    5  A    between atoms: C_11  and  C_12
REMARK    6  A    between atoms: N_14  and  C_15
REMARK    7  A    between atoms: C_21  and  C_22
REMARK    8  A    between atoms: N_24  and  C_25
REMARK    9  A    between atoms: C_25  and  C_26
REMARK   10  A    between atoms: C_26  and  C_27
REMARK   11  A    between atoms: C_27  and  C_28
REMARK   12  A    between atoms: C_28  and  O_29
REMARK                            x       y       z     vdW  Elec       q    Type
REMARK                         _______ _______ _______ _____ _____    ______ ____
ROOT
ATOM      1  C   UNL     1       2.324   8.410  18.000  0.00  0.00    +0.000 C 
ATOM      2  O   UNL     1       2.769   8.887  16.956  0.00  0.00    +0.000 OA
ATOM      3  N   UNL     1       2.744   7.177  18.491  0.00  0.00    +0.000 N 
ATOM      4  H   UNL     1       2.098   6.697  19.112  0.00  0.00    +0.000 HD
ENDROOT
BRANCH   3   5
ATOM      5  C   UNL     1       3.726   6.412  17.803  0.00  0.00    +0.000 A 
ATOM      6  C   UNL     1       4.943   7.025  17.454  0.00  0.00    +0.000 A 
ATOM      7  C   UNL     1       5.928   6.328  16.752  0.00  0.00    +0.000 A 
ATOM      8  C   UNL     1       5.707   5.007  16.384  0.00  0.00    +0.000 A 
ATOM      9 CL   UNL     1       6.898   4.164  15.473  0.00  0.00    +0.000 Cl
ATOM     10  C   UNL     1       4.523   4.368  16.741  0.00  0.00    +0.000 A 
ATOM     11  C   UNL     1       3.532   5.060  17.463  0.00  0.00    +0.000 A 
BRANCH  11  12
ATOM     12  C   UNL     1       2.291   4.297  17.767  0.00  0.00    +0.000 C 
ATOM     13  O   UNL     1       1.197   4.786  17.511  0.00  0.00    +0.000 OA
ATOM     14  N   UNL     1       2.457   3.066  18.363  0.00  0.00    +0.000 N 
ATOM     15  H   UNL     1       3.338   2.894  18.837  0.00  0.00    +0.000 HD
BRANCH  14  16
ATOM     16  C   UNL     1       1.318   2.263  18.760  0.00  0.00    +0.000 C 
BRANCH  16  17
ATOM     17  C   UNL     1       0.679   2.838  20.019  0.00  0.00    +0.000 C 
BRANCH  17  18
ATOM     18  C   UNL     1       1.665   2.862  21.184  0.00  0.00    +0.000 C 
BRANCH  18  19
ATOM     19  C   UNL     1       2.190   4.267  21.455  0.00  0.00    +0.000 C 
BRANCH  19  20
ATOM     20  O   UNL     1       1.499   5.219  20.655  0.00  0.00    +0.000 OA
ATOM     21  H   UNL     1       1.904   6.088  20.830  0.00  0.00    +0.000 HD
ENDBRANCH  19  20
ENDBRANCH  18  19
ENDBRANCH  17  18
ENDBRANCH  16  17
ENDBRANCH  14  16
ENDBRANCH  11  12
ENDBRANCH   3   5
BRANCH   1  25
ATOM     22  C   UNL     1       0.131   9.936  20.409  0.00  0.00    +0.000 A 
ATOM     23  C   UNL     1      -0.610  10.198  19.272  0.00  0.00    +0.000 A 
ATOM     24  C   UNL     1       0.103   9.635  18.196  0.00  0.00    +0.000 A 
ATOM     25  C   UNL     1       1.250   9.067  18.719  0.00  0.00    +0.000 A 
ATOM     26  O   UNL     1       1.258   9.219  20.084  0.00  0.00    +0.000 OA
BRANCH  22  27
ATOM     27  C   UNL     1      -0.119  10.269  21.836  0.00  0.00    +0.000 C 
BRANCH  27  33
ATOM     28  C   UNL     1       1.209  14.930  21.447  0.00  0.00    +0.000 C 
ATOM     29  C   UNL     1       0.393  13.752  21.839  0.00  0.00    +0.000 A 
ATOM     30  C   UNL     1      -0.835  13.751  22.537  0.00  0.00    +0.000 A 
ATOM     31  C   UNL     1      -1.191  12.424  22.652  0.00  0.00    +0.000 A 
ATOM     32  C   UNL     1      -2.378  11.795  23.273  0.00  0.00    +0.000 C 
ATOM     33  N   UNL     1      -0.183  11.714  22.044  0.00  0.00    +0.000 N 
ATOM     34  N   UNL     1       0.786  12.512  21.530  0.00  0.00    +0.000 NA
ENDBRANCH  27  33
ENDBRANCH  22  27
ENDBRANCH   1  25
TORSDOF 10
ENDMDL
MODEL 7
REMARK VINA RESULT:      -7.9      3.443      8.926
REMARK  Name = 
REMARK  12 active torsions:
REMARK  status: ('A' for Active; 'I' for Inactive)
REMARK    1  A    between atoms: C_1  and  C_2
REMARK    2  A    between atoms: C_4  and  C_5
REMARK    3  A    between atoms: N_6  and  C_7
REMARK    4  A    between atoms: C_7  and  C_8
REMARK    5  A    between atoms: C_11  and  C_12
REMARK    6  A    between atoms: N_14  and  C_15
REMARK    7  A    between atoms: C_21  and  C_22
REMARK    8  A    between atoms: N_24  and  C_25
REMARK    9  A    between atoms: C_25  and  C_26
REMARK   10  A    between atoms: C_26  and  C_27
REMARK   11  A    between atoms: C_27  and  C_28
REMARK   12  A    between atoms: C_28  and  O_29
REMARK                            x       y       z     vdW  Elec       q    Type
REMARK                         _______ _______ _______ _____ _____    ______ ____
ROOT
ATOM      1  C   UNL     1       1.811   6.524  20.083  0.00  0.00    +0.000 C 
ATOM      2  O   UNL     1       1.079   6.039  20.947  0.00  0.00    +0.000 OA
ATOM      3  N   UNL     1       1.888   7.895  19.859  0.00  0.00    +0.000 N 
ATOM      4  H   UNL     1       2.199   8.183  18.935  0.00  0.00    +0.000 HD
ENDROOT
BRANCH   3   5
ATOM      5  C   UNL     1       1.121   8.807  20.636  0.00  0.00    +0.000 A 
ATOM      6  C   UNL     1       1.274   8.804  22.034  0.00  0.00    +0.000 A 
ATOM      7  C   UNL     1       0.524   9.658  22.846  0.00  0.00    +0.000 A 
ATOM      8  C   UNL     1      -0.395  10.524  22.268  0.00  0.00    +0.000 A 
ATOM      9 CL   UNL     1      -1.357  11.538  23.271  0.00  0.00    +0.000 Cl
ATOM     10  C   UNL     1      -0.546  10.567  20.885  0.00  0.00    +0.000 A 
ATOM     11  C   UNL     1       0.218   9.720  20.060  0.00  0.00    +0.000 A 
BRANCH  11  12
ATOM     12  C   UNL     1      -0.041   9.822  18.599  0.00  0.00    +0.000 C 
ATOM     13  O   UNL     1       0.874   9.643  17.803  0.00  0.00    +0.000 OA
ATOM     14  N   UNL     1      -1.326  10.151  18.224  0.00  0.00    +0.000 N 
ATOM     15  H   UNL     1      -1.911  10.603  18.919  0.00  0.00    +0.000 HD
BRANCH  14  16
ATOM     16  C   UNL     1      -1.678  10.338  16.831  0.00  0.00    +0.000 C 
BRANCH  16  17
ATOM     17  C   UNL     1      -3.161  10.060  16.618  0.00  0.00    +0.000 C 
BRANCH  17  18
ATOM     18  C   UNL     1      -3.914  10.000  17.946  0.00  0.00    +0.000 C 
BRANCH  18  19
ATOM     19  C   UNL     1      -5.036  11.030  18.008  0.00  0.00    +0.000 C 
BRANCH  19  20
ATOM     20  O   UNL     1      -4.503  12.348  18.005  0.00  0.00    +0.000 OA
ATOM     21  H   UNL     1      -3.545  12.270  18.162  0.00  0.00    +0.000 HD
ENDBRANCH  19  20
ENDBRANCH  18  19
ENDBRANCH  17  18
ENDBRANCH  16  17
ENDBRANCH  14  16
ENDBRANCH  11  12
ENDBRANCH   3   5
BRANCH   1  25
ATOM     22  C   UNL     1       4.271   4.608  18.288  0.00  0.00    +0.000 A 
ATOM     23  C   UNL     1       3.152   4.199  17.589  0.00  0.00    +0.000 A 
ATOM     24  C   UNL     1       2.059   4.886  18.153  0.00  0.00    +0.000 A 
ATOM     25  C   UNL     1       2.555   5.671  19.177  0.00  0.00    +0.000 A 
ATOM     26  O   UNL     1       3.919   5.532  19.245  0.00  0.00    +0.000 OA
BRANCH  22  27
ATOM     27  C   UNL     1       5.704   4.241  18.141  0.00  0.00    +0.000 C 
BRANCH  27  33
ATOM     28  C   UNL     1       6.272   3.670  13.346  0.00  0.00    +0.000 C 
ATOM     29  C   UNL     1       6.406   4.284  14.690  0.00  0.00    +0.000 A 
ATOM     30  C   UNL     1       7.066   5.488  15.023  0.00  0.00    +0.000 A 
ATOM     31  C   UNL     1       6.909   5.629  16.386  0.00  0.00    +0.000 A 
ATOM     32  C   UNL     1       7.370   6.695  17.304  0.00  0.00    +0.000 C 
ATOM     33  N   UNL     1       6.193   4.529  16.794  0.00  0.00    +0.000 N 
ATOM     34  N   UNL     1       5.865   3.705  15.768  0.00  0.00    +0.000 NA
ENDBRANCH  27  33
ENDBRANCH  22  27
ENDBRANCH   1  25
TORSDOF 10
ENDMDL
MODEL 8
REMARK VINA RESULT:      -7.8      1.438      2.139
REMARK  Name = 
REMARK  12 active torsions:
REMARK  status: ('A' for Active; 'I' for Inactive)
REMARK    1  A    between atoms: C_1  and  C_2
REMARK    2  A    between atoms: C_4  and  C_5
REMARK    3  A    between atoms: N_6  and  C_7
REMARK    4  A    between atoms: C_7  and  C_8
REMARK    5  A    between atoms: C_11  and  C_12
REMARK    6  A    between atoms: N_14  and  C_15
REMARK    7  A    between atoms: C_21  and  C_22
REMARK    8  A    between atoms: N_24  and  C_25
REMARK    9  A    between atoms: C_25  and  C_26
REMARK   10  A    between atoms: C_26  and  C_27
REMARK   11  A    between atoms: C_27  and  C_28
REMARK   12  A    between atoms: C_28  and  O_29
REMARK                            x       y       z     vdW  Elec       q    Type
REMARK                         _______ _______ _______ _____ _____    ______ ____
ROOT
ATOM      1  C   UNL     1       2.753   7.707  18.118  0.00  0.00    +0.000 C 
ATOM      2  O   UNL     1       2.744   8.251  17.013  0.00  0.00    +0.000 OA
ATOM      3  N   UNL     1       3.459   6.532  18.362  0.00  0.00    +0.000 N 
ATOM      4  H   UNL     1       3.133   5.966  19.141  0.00  0.00    +0.000 HD
ENDROOT
BRANCH   3   5
ATOM      5  C   UNL     1       4.217   5.908  17.333  0.00  0.00    +0.000 A 
ATOM      6  C   UNL     1       4.786   6.709  16.327  0.00  0.00    +0.000 A 
ATOM      7  C   UNL     1       5.514   6.145  15.278  0.00  0.00    +0.000 A 
ATOM      8  C   UNL     1       5.679   4.767  15.218  0.00  0.00    +0.000 A 
ATOM      9 CL   UNL     1       6.531   4.066  13.899  0.00  0.00    +0.000 Cl
ATOM     10  C   UNL     1       5.151   3.953  16.217  0.00  0.00    +0.000 A 
ATOM     11  C   UNL     1       4.429   4.518  17.286  0.00  0.00    +0.000 A 
BRANCH  11  12
ATOM     12  C   UNL     1       3.880   3.560  18.282  0.00  0.00    +0.000 C 
ATOM     13  O   UNL     1       4.575   3.192  19.222  0.00  0.00    +0.000 OA
ATOM     14  N   UNL     1       2.596   3.110  18.060  0.00  0.00    +0.000 N 
ATOM     15  H   UNL     1       2.233   3.189  17.116  0.00  0.00    +0.000 HD
BRANCH  14  16
ATOM     16  C   UNL     1       1.982   2.128  18.931  0.00  0.00    +0.000 C 
BRANCH  16  17
ATOM     17  C   UNL     1       0.655   2.652  19.466  0.00  0.00    +0.000 C 
BRANCH  17  18
ATOM     18  C   UNL     1       0.830   3.990  20.181  0.00  0.00    +0.000 C 
BRANCH  18  19
ATOM     19  C   UNL     1       1.856   3.902  21.305  0.00  0.00    +0.000 C 
BRANCH  19  20
ATOM     20  O   UNL     1       2.940   4.790  21.062  0.00  0.00    +0.000 OA
ATOM     21  H   UNL     1       2.857   5.524  21.697  0.00  0.00    +0.000 HD
ENDBRANCH  19  20
ENDBRANCH  18  19
ENDBRANCH  17  18
ENDBRANCH  16  17
ENDBRANCH  14  16
ENDBRANCH  11  12
ENDBRANCH   3   5
BRANCH   1  25
ATOM     22  C   UNL     1       0.421   9.433  20.245  0.00  0.00    +0.000 A 
ATOM     23  C   UNL     1       0.887   8.514  21.166  0.00  0.00    +0.000 A 
ATOM     24  C   UNL     1       1.858   7.742  20.499  0.00  0.00    +0.000 A 
ATOM     25  C   UNL     1       1.933   8.212  19.201  0.00  0.00    +0.000 A 
ATOM     26  O   UNL     1       1.077   9.275  19.046  0.00  0.00    +0.000 OA
BRANCH  22  27
ATOM     27  C   UNL     1      -0.593  10.513  20.370  0.00  0.00    +0.000 C 
BRANCH  27  33
ATOM     28  C   UNL     1       2.230  14.444  19.900  0.00  0.00    +0.000 C 
ATOM     29  C   UNL     1       1.242  13.516  20.505  0.00  0.00    +0.000 A 
ATOM     30  C   UNL     1       0.515  13.695  21.703  0.00  0.00    +0.000 A 
ATOM     31  C   UNL     1      -0.269  12.568  21.830  0.00  0.00    +0.000 A 
ATOM     32  C   UNL     1      -1.248  12.187  22.873  0.00  0.00    +0.000 C 
ATOM     33  N   UNL     1       0.025  11.785  20.739  0.00  0.00    +0.000 N 
ATOM     34  N   UNL     1       0.936  12.356  19.912  0.00  0.00    +0.000 NA
ENDBRANCH  27  33
ENDBRANCH  22  27
ENDBRANCH   1  25
TORSDOF 10
ENDMDL
MODEL 9
REMARK VINA RESULT:      -7.8      1.186      1.287
REMARK  Name = 
REMARK  12 active torsions:
REMARK  status: ('A' for Active; 'I' for Inactive)
REMARK    1  A    between atoms: C_1  and  C_2
REMARK    2  A    between atoms: C_4  and  C_5
REMARK    3  A    between atoms: N_6  and  C_7
REMARK    4  A    between atoms: C_7  and  C_8
REMARK    5  A    between atoms: C_11  and  C_12
REMARK    6  A    between atoms: N_14  and  C_15
REMARK    7  A    between atoms: C_21  and  C_22
REMARK    8  A    between atoms: N_24  and  C_25
REMARK    9  A    between atoms: C_25  and  C_26
REMARK   10  A    between atoms: C_26  and  C_27
REMARK   11  A    between atoms: C_27  and  C_28
REMARK   12  A    between atoms: C_28  and  O_29
REMARK                            x       y       z     vdW  Elec       q    Type
REMARK                         _______ _______ _______ _____ _____    ______ ____
ROOT
ATOM      1  C   UNL     1       2.474   8.122  18.235  0.00  0.00    +0.000 C 
ATOM      2  O   UNL     1       2.650   8.496  17.075  0.00  0.00    +0.000 OA
ATOM      3  N   UNL     1       3.055   6.960  18.737  0.00  0.00    +0.000 N 
ATOM      4  H   UNL     1       2.590   6.533  19.533  0.00  0.00    +0.000 HD
ENDROOT
BRANCH   3   5
ATOM      5  C   UNL     1       3.897   6.154  17.923  0.00  0.00    +0.000 A 
ATOM      6  C   UNL     1       5.181   6.624  17.597  0.00  0.00    +0.000 A 
ATOM      7  C   UNL     1       6.036   5.885  16.777  0.00  0.00    +0.000 A 
ATOM      8  C   UNL     1       5.614   4.664  16.266  0.00  0.00    +0.000 A 
ATOM      9 CL   UNL     1       6.646   3.778  15.213  0.00  0.00    +0.000 Cl
ATOM     10  C   UNL     1       4.359   4.162  16.596  0.00  0.00    +0.000 A 
ATOM     11  C   UNL     1       3.498   4.895  17.436  0.00  0.00    +0.000 A 
BRANCH  11  12
ATOM     12  C   UNL     1       2.168   4.285  17.701  0.00  0.00    +0.000 C 
ATOM     13  O   UNL     1       1.147   4.887  17.386  0.00  0.00    +0.000 OA
ATOM     14  N   UNL     1       2.167   3.059  18.330  0.00  0.00    +0.000 N 
ATOM     15  H   UNL     1       3.002   2.802  18.846  0.00  0.00    +0.000 HD
BRANCH  14  16
ATOM     16  C   UNL     1       0.928   2.401  18.693  0.00  0.00    +0.000 C 
BRANCH  16  17
ATOM     17  C   UNL     1       0.646   2.588  20.180  0.00  0.00    +0.000 C 
BRANCH  17  18
ATOM     18  C   UNL     1       1.348   3.828  20.729  0.00  0.00    +0.000 C 
BRANCH  18  19
ATOM     19  C   UNL     1       2.317   3.479  21.853  0.00  0.00    +0.000 C 
BRANCH  19  20
ATOM     20  O   UNL     1       3.269   2.520  21.409  0.00  0.00    +0.000 OA
ATOM     21  H   UNL     1       3.263   2.539  20.435  0.00  0.00    +0.000 HD
ENDBRANCH  19  20
ENDBRANCH  18  19
ENDBRANCH  17  18
ENDBRANCH  16  17
ENDBRANCH  14  16
ENDBRANCH  11  12
ENDBRANCH   3   5
BRANCH   1  25
ATOM     22  C   UNL     1       0.129  10.359  19.796  0.00  0.00    +0.000 A 
ATOM     23  C   UNL     1       0.187   9.405  20.793  0.00  0.00    +0.000 A 
ATOM     24  C   UNL     1       1.104   8.430  20.356  0.00  0.00    +0.000 A 
ATOM     25  C   UNL     1       1.555   8.823  19.110  0.00  0.00    +0.000 A 
ATOM     26  O   UNL     1       0.986  10.026  18.773  0.00  0.00    +0.000 OA
BRANCH  22  27
ATOM     27  C   UNL     1      -0.648  11.623  19.697  0.00  0.00    +0.000 C 
BRANCH  27  33
ATOM     28  C   UNL     1      -3.174  10.124  15.822  0.00  0.00    +0.000 C 
ATOM     29  C   UNL     1      -2.901  10.782  17.125  0.00  0.00    +0.000 A 
ATOM     30  C   UNL     1      -3.825  11.446  17.962  0.00  0.00    +0.000 A 
ATOM     31  C   UNL     1      -3.092  11.878  19.047  0.00  0.00    +0.000 A 
ATOM     32  C   UNL     1      -3.509  12.622  20.258  0.00  0.00    +0.000 C 
ATOM     33  N   UNL     1      -1.800  11.472  18.810  0.00  0.00    +0.000 N 
ATOM     34  N   UNL     1      -1.670  10.788  17.646  0.00  0.00    +0.000 NA
ENDBRANCH  27  33
ENDBRANCH  22  27
ENDBRANCH   1  25
TORSDOF 10
ENDMDL
