MODEL 1
REMARK VINA RESULT:      -8.5      0.000      0.000
REMARK  Name = 
REMARK  10 active torsions:
REMARK  status: ('A' for Active; 'I' for Inactive)
REMARK    1  A    between atoms: C_1  and  C_2
REMARK    2  A    between atoms: N_4  and  C_5
REMARK    3  A    between atoms: C_8  and  N_9
REMARK    4  A    between atoms: C_10  and  C_11
REMARK    5  A    between atoms: C_11  and  C_12
REMARK    6  A    between atoms: C_12  and  C_13
REMARK    7  A    between atoms: C_13  and  O_15
REMARK    8  A    between atoms: C_18  and  C_19
REMARK    9  A    between atoms: C_21  and  N_22
REMARK   10  A    between atoms: C_26  and  C_27
REMARK                            x       y       z     vdW  Elec       q    Type
REMARK                         _______ _______ _______ _____ _____    ______ ____
ROOT
ATOM      1  N   UNL     1       3.386   4.916  19.321  0.00  0.00    +0.000 N 
ATOM      2  C   UNL     1       3.228   3.746  20.088  0.00  0.00    +0.000 A 
ATOM      3  C   UNL     1       2.211   3.962  20.995  0.00  0.00    +0.000 A 
ATOM      4  C   UNL     1       1.759   5.281  20.837  0.00  0.00    +0.000 A 
ATOM      5  C   UNL     1       2.490   5.876  19.819  0.00  0.00    +0.000 A 
ENDROOT
BRANCH   1   9
ATOM      6  C   UNL     1       6.243   5.501  16.211  0.00  0.00    +0.000 A 
ATOM      7  C   UNL     1       6.563   5.764  17.543  0.00  0.00    +0.000 A 
ATOM      8  C   UNL     1       5.635   5.524  18.563  0.00  0.00    +0.000 A 
ATOM      9  C   UNL     1       4.344   5.083  18.266  0.00  0.00    +0.000 A 
ATOM     10  C   UNL     1       4.009   4.847  16.929  0.00  0.00    +0.000 A 
ATOM     11  C   UNL     1       4.959   5.036  15.912  0.00  0.00    +0.000 A 
BRANCH   6  15
ATOM     12  C   UNL     1       8.387   5.359  13.111  0.00  0.00    +0.000 C 
ATOM     13  C   UNL     1       7.220   4.966  13.976  0.00  0.00    +0.000 C 
ATOM     14  O   UNL     1       6.459   4.072  13.621  0.00  0.00    +0.000 OA
ATOM     15  N   UNL     1       7.153   5.698  15.150  0.00  0.00    +0.000 N 
ATOM     16  H   UNL     1       7.779   6.489  15.233  0.00  0.00    +0.000 HD
ENDBRANCH   6  15
ENDBRANCH   1   9
BRANCH   5  17
ATOM     17  C   UNL     1       2.295   7.229  19.343  0.00  0.00    +0.000 A 
ATOM     18  C   UNL     1       1.674   8.287  19.983  0.00  0.00    +0.000 A 
ATOM     19  C   UNL     1       1.466   9.414  19.127  0.00  0.00    +0.000 A 
ATOM     20  C   UNL     1       2.110   9.240  17.918  0.00  0.00    +0.000 A 
ATOM     21  S   UNL     1       2.871   7.716  17.799  0.00  0.00    +0.000 S 
BRANCH  19  22
ATOM     22  N   UNL     1       0.650  10.548  19.436  0.00  0.00    +0.000 N 
ATOM     23  C   UNL     1       0.955  11.499  20.391  0.00  0.00    +0.000 A 
ATOM     24  C   UNL     1       0.021  12.493  20.259  0.00  0.00    +0.000 A 
ATOM     25  N   UNL     1      -0.892  12.168  19.301  0.00  0.00    +0.000 NA
ATOM     26  C   UNL     1      -0.532  10.982  18.843  0.00  0.00    +0.000 A 
ATOM     27  C   UNL     1      -1.353  10.180  17.901  0.00  0.00    +0.000 C 
ENDBRANCH  19  22
ENDBRANCH   5  17
BRANCH   2  28
ATOM     28  C   UNL     1       4.069   2.495  20.008  0.00  0.00    +0.000 C 
BRANCH  28  29
ATOM     29  C   UNL     1       3.795   1.662  18.756  0.00  0.00    +0.000 C 
BRANCH  29  30
ATOM     30  C   UNL     1       2.375   1.843  18.280  0.00  0.00    +0.000 C 
ATOM     31  O   UNL     1       2.033   2.481  17.297  0.00  0.00    +0.000 OA
BRANCH  30  32
ATOM     32  O   UNL     1       1.484   1.210  19.078  0.00  0.00    +0.000 OA
ATOM     33  H   UNL     1       0.734   0.818  18.592  0.00  0.00    +0.000 HD
ENDBRANCH  30  32
ENDBRANCH  29  30
ENDBRANCH  28  29
ENDBRANCH   2  28
TORSDOF 8
ENDMDL
MODEL 2
REMARK VINA RESULT:      -8.3      0.569      1.108
REMARK  Name = 
REMARK  10 active torsions:
REMARK  status: ('A' for Active; 'I' for Inactive)
REMARK    1  A    between atoms: C_1  and  C_2
REMARK    2  A    between atoms: N_4  and  C_5
REMARK    3  A    between atoms: C_8  and  N_9
REMARK    4  A    between atoms: C_10  and  C_11
REMARK    5  A    between atoms: C_11  and  C_12
REMARK    6  A    between atoms: C_12  and  C_13
REMARK    7  A    between atoms: C_13  and  O_15
REMARK    8  A    between atoms: C_18  and  C_19
REMARK    9  A    between atoms: C_21  and  N_22
REMARK   10  A    between atoms: C_26  and  C_27
REMARK                            x       y       z     vdW  Elec       q    Type
REMARK                         _______ _______ _______ _____ _____    ______ ____
ROOT
ATOM      1  N   UNL     1       3.312   5.228  19.373  0.00  0.00    +0.000 N 
ATOM      2  C   UNL     1       3.178   4.079  20.176  0.00  0.00    +0.000 A 
ATOM      3  C   UNL     1       2.161   4.305  21.080  0.00  0.00    +0.000 A 
ATOM      4  C   UNL     1       1.685   5.609  20.884  0.00  0.00    +0.000 A 
ATOM      5  C   UNL     1       2.401   6.187  19.846  0.00  0.00    +0.000 A 
ENDROOT
BRANCH   1   9
ATOM      6  C   UNL     1       6.128   5.588  16.191  0.00  0.00    +0.000 A 
ATOM      7  C   UNL     1       4.854   5.063  15.972  0.00  0.00    +0.000 A 
ATOM      8  C   UNL     1       3.919   4.992  17.011  0.00  0.00    +0.000 A 
ATOM      9  C   UNL     1       4.262   5.380  18.308  0.00  0.00    +0.000 A 
ATOM     10  C   UNL     1       5.547   5.879  18.540  0.00  0.00    +0.000 A 
ATOM     11  C   UNL     1       6.466   6.001  17.484  0.00  0.00    +0.000 A 
BRANCH   6  15
ATOM     12  C   UNL     1       8.386   5.265  13.187  0.00  0.00    +0.000 C 
ATOM     13  C   UNL     1       7.155   4.968  14.001  0.00  0.00    +0.000 C 
ATOM     14  O   UNL     1       6.343   4.134  13.615  0.00  0.00    +0.000 OA
ATOM     15  N   UNL     1       7.095   5.708  15.171  0.00  0.00    +0.000 N 
ATOM     16  H   UNL     1       7.776   6.449  15.280  0.00  0.00    +0.000 HD
ENDBRANCH   6  15
ENDBRANCH   1   9
BRANCH   5  17
ATOM     17  C   UNL     1       2.180   7.521  19.330  0.00  0.00    +0.000 A 
ATOM     18  C   UNL     1       1.536   8.584  19.937  0.00  0.00    +0.000 A 
ATOM     19  C   UNL     1       1.308   9.681  19.048  0.00  0.00    +0.000 A 
ATOM     20  C   UNL     1       1.959   9.486  17.847  0.00  0.00    +0.000 A 
ATOM     21  S   UNL     1       2.751   7.975  17.774  0.00  0.00    +0.000 S 
BRANCH  19  22
ATOM     22  N   UNL     1       0.468  10.807  19.322  0.00  0.00    +0.000 N 
ATOM     23  C   UNL     1       0.801  11.850  20.165  0.00  0.00    +0.000 A 
ATOM     24  C   UNL     1      -0.184  12.793  20.022  0.00  0.00    +0.000 A 
ATOM     25  N   UNL     1      -1.150  12.350  19.170  0.00  0.00    +0.000 NA
ATOM     26  C   UNL     1      -0.773  11.142  18.788  0.00  0.00    +0.000 A 
ATOM     27  C   UNL     1      -1.626  10.230  17.985  0.00  0.00    +0.000 C 
ENDBRANCH  19  22
ENDBRANCH   5  17
BRANCH   2  28
ATOM     28  C   UNL     1       4.041   2.841  20.129  0.00  0.00    +0.000 C 
BRANCH  28  29
ATOM     29  C   UNL     1       3.330   1.632  19.521  0.00  0.00    +0.000 C 
BRANCH  29  30
ATOM     30  C   UNL     1       3.152   1.793  18.032  0.00  0.00    +0.000 C 
ATOM     31  O   UNL     1       2.109   2.084  17.470  0.00  0.00    +0.000 OA
BRANCH  30  32
ATOM     32  O   UNL     1       4.304   1.574  17.354  0.00  0.00    +0.000 OA
ATOM     33  H   UNL     1       4.738   0.731  17.586  0.00  0.00    +0.000 HD
ENDBRANCH  30  32
ENDBRANCH  29  30
ENDBRANCH  28  29
ENDBRANCH   2  28
TORSDOF 8
ENDMDL
MODEL 3
REMARK VINA RESULT:      -8.1      0.745      1.274
REMARK  Name = 
REMARK  10 active torsions:
REMARK  status: ('A' for Active; 'I' for Inactive)
REMARK    1  A    between atoms: C_1  and  C_2
REMARK    2  A    between atoms: N_4  and  C_5
REMARK    3  A    between atoms: C_8  and  N_9
REMARK    4  A    between atoms: C_10  and  C_11
REMARK    5  A    between atoms: C_11  and  C_12
REMARK    6  A    between atoms: C_12  and  C_13
REMARK    7  A    between atoms: C_13  and  O_15
REMARK    8  A    between atoms: C_18  and  C_19
REMARK    9  A    between atoms: C_21  and  N_22
REMARK   10  A    between atoms: C_26  and  C_27
REMARK                            x       y       z     vdW  Elec       q    Type
REMARK                         _______ _______ _______ _____ _____    ______ ____
ROOT
ATOM      1  N   UNL     1       3.409   4.868  19.291  0.00  0.00    +0.000 N 
ATOM      2  C   UNL     1       3.281   3.662  20.007  0.00  0.00    +0.000 A 
ATOM      3  C   UNL     1       2.258   3.812  20.920  0.00  0.00    +0.000 A 
ATOM      4  C   UNL     1       1.771   5.123  20.818  0.00  0.00    +0.000 A 
ATOM      5  C   UNL     1       2.487   5.781  19.828  0.00  0.00    +0.000 A 
ENDROOT
BRANCH   1   9
ATOM      6  C   UNL     1       6.238   5.485  16.161  0.00  0.00    +0.000 A 
ATOM      7  C   UNL     1       4.982   4.938  15.900  0.00  0.00    +0.000 A 
ATOM      8  C   UNL     1       4.041   4.783  16.925  0.00  0.00    +0.000 A 
ATOM      9  C   UNL     1       4.362   5.106  18.246  0.00  0.00    +0.000 A 
ATOM     10  C   UNL     1       5.631   5.626  18.517  0.00  0.00    +0.000 A 
ATOM     11  C   UNL     1       6.554   5.833  17.478  0.00  0.00    +0.000 A 
BRANCH   6  15
ATOM     12  C   UNL     1       8.505   5.416  13.147  0.00  0.00    +0.000 C 
ATOM     13  C   UNL     1       7.269   5.055  13.928  0.00  0.00    +0.000 C 
ATOM     14  O   UNL     1       6.454   4.264  13.466  0.00  0.00    +0.000 OA
ATOM     15  N   UNL     1       7.209   5.689  15.158  0.00  0.00    +0.000 N 
ATOM     16  H   UNL     1       7.895   6.413  15.335  0.00  0.00    +0.000 HD
ENDBRANCH   6  15
ENDBRANCH   1   9
BRANCH   5  17
ATOM     17  C   UNL     1       2.256   7.148  19.411  0.00  0.00    +0.000 A 
ATOM     18  C   UNL     1       1.821   8.219  20.170  0.00  0.00    +0.000 A 
ATOM     19  C   UNL     1       1.492   9.366  19.380  0.00  0.00    +0.000 A 
ATOM     20  C   UNL     1       1.871   9.186  18.066  0.00  0.00    +0.000 A 
ATOM     21  S   UNL     1       2.529   7.635  17.785  0.00  0.00    +0.000 S 
BRANCH  19  22
ATOM     22  N   UNL     1       0.802  10.527  19.855  0.00  0.00    +0.000 N 
ATOM     23  C   UNL     1       0.872  11.777  19.270  0.00  0.00    +0.000 A 
ATOM     24  C   UNL     1      -0.052  12.558  19.914  0.00  0.00    +0.000 A 
ATOM     25  N   UNL     1      -0.651  11.860  20.920  0.00  0.00    +0.000 NA
ATOM     26  C   UNL     1      -0.102  10.658  20.905  0.00  0.00    +0.000 A 
ATOM     27  C   UNL     1      -0.347   9.629  21.947  0.00  0.00    +0.000 C 
ENDBRANCH  19  22
ENDBRANCH   5  17
BRANCH   2  28
ATOM     28  C   UNL     1       4.156   2.438  19.873  0.00  0.00    +0.000 C 
BRANCH  28  29
ATOM     29  C   UNL     1       3.797   1.567  18.670  0.00  0.00    +0.000 C 
BRANCH  29  30
ATOM     30  C   UNL     1       2.375   1.806  18.228  0.00  0.00    +0.000 C 
ATOM     31  O   UNL     1       2.035   2.465  17.258  0.00  0.00    +0.000 OA
BRANCH  30  32
ATOM     32  O   UNL     1       1.478   1.199  19.041  0.00  0.00    +0.000 OA
ATOM     33  H   UNL     1       1.634   1.369  19.989  0.00  0.00    +0.000 HD
ENDBRANCH  30  32
ENDBRANCH  29  30
ENDBRANCH  28  29
ENDBRANCH   2  28
TORSDOF 8
ENDMDL
MODEL 4
REMARK VINA RESULT:      -8.1      0.498      1.479
REMARK  Name = 
REMARK  10 active torsions:
REMARK  status: ('A' for Active; 'I' for Inactive)
REMARK    1  A    between atoms: C_1  and  C_2
REMARK    2  A    between atoms: N_4  and  C_5
REMARK    3  A    between atoms: C_8  and  N_9
REMARK    4  A    between atoms: C_10  and  C_11
REMARK    5  A    between atoms: C_11  and  C_12
REMARK    6  A    between atoms: C_12  and  C_13
REMARK    7  A    between atoms: C_13  and  O_15
REMARK    8  A    between atoms: C_18  and  C_19
REMARK    9  A    between atoms: C_21  and  N_22
REMARK   10  A    between atoms: C_26  and  C_27
REMARK                            x       y       z     vdW  Elec       q    Type
REMARK                         _______ _______ _______ _____ _____    ______ ____
ROOT
ATOM      1  N   UNL     1       3.384   5.132  19.340  0.00  0.00    +0.000 N 
ATOM      2  C   UNL     1       3.284   3.983  20.149  0.00  0.00    +0.000 A 
ATOM      3  C   UNL     1       2.275   4.191  21.066  0.00  0.00    +0.000 A 
ATOM      4  C   UNL     1       1.769   5.485  20.871  0.00  0.00    +0.000 A 
ATOM      5  C   UNL     1       2.460   6.073  19.822  0.00  0.00    +0.000 A 
ENDROOT
BRANCH   1   9
ATOM      6  C   UNL     1       6.152   5.538  16.122  0.00  0.00    +0.000 A 
ATOM      7  C   UNL     1       4.891   4.975  15.923  0.00  0.00    +0.000 A 
ATOM      8  C   UNL     1       3.971   4.889  16.974  0.00  0.00    +0.000 A 
ATOM      9  C   UNL     1       4.317   5.299  18.263  0.00  0.00    +0.000 A 
ATOM     10  C   UNL     1       5.591   5.836  18.475  0.00  0.00    +0.000 A 
ATOM     11  C   UNL     1       6.493   5.972  17.407  0.00  0.00    +0.000 A 
BRANCH   6  15
ATOM     12  C   UNL     1       8.378   5.252  13.091  0.00  0.00    +0.000 C 
ATOM     13  C   UNL     1       7.163   4.933  13.921  0.00  0.00    +0.000 C 
ATOM     14  O   UNL     1       6.362   4.083  13.546  0.00  0.00    +0.000 OA
ATOM     15  N   UNL     1       7.103   5.674  15.089  0.00  0.00    +0.000 N 
ATOM     16  H   UNL     1       7.772   6.428  15.188  0.00  0.00    +0.000 HD
ENDBRANCH   6  15
ENDBRANCH   1   9
BRANCH   5  17
ATOM     17  C   UNL     1       2.204   7.400  19.304  0.00  0.00    +0.000 A 
ATOM     18  C   UNL     1       1.470   8.423  19.878  0.00  0.00    +0.000 A 
ATOM     19  C   UNL     1       1.244   9.518  18.985  0.00  0.00    +0.000 A 
ATOM     20  C   UNL     1       1.979   9.369  17.826  0.00  0.00    +0.000 A 
ATOM     21  S   UNL     1       2.849   7.900  17.792  0.00  0.00    +0.000 S 
BRANCH  19  22
ATOM     22  N   UNL     1       0.332  10.597  19.214  0.00  0.00    +0.000 N 
ATOM     23  C   UNL     1      -1.035  10.524  19.024  0.00  0.00    +0.000 A 
ATOM     24  C   UNL     1      -1.556  11.695  19.511  0.00  0.00    +0.000 A 
ATOM     25  N   UNL     1      -0.560  12.520  19.939  0.00  0.00    +0.000 NA
ATOM     26  C   UNL     1       0.570  11.872  19.718  0.00  0.00    +0.000 A 
ATOM     27  C   UNL     1       1.914  12.481  19.885  0.00  0.00    +0.000 C 
ENDBRANCH  19  22
ENDBRANCH   5  17
BRANCH   2  28
ATOM     28  C   UNL     1       4.172   2.763  20.096  0.00  0.00    +0.000 C 
BRANCH  28  29
ATOM     29  C   UNL     1       3.846   1.829  18.931  0.00  0.00    +0.000 C 
BRANCH  29  30
ATOM     30  C   UNL     1       2.367   1.820  18.635  0.00  0.00    +0.000 C 
ATOM     31  O   UNL     1       1.483   1.582  19.443  0.00  0.00    +0.000 OA
BRANCH  30  32
ATOM     32  O   UNL     1       2.104   2.110  17.339  0.00  0.00    +0.000 OA
ATOM     33  H   UNL     1       2.104   1.328  16.756  0.00  0.00    +0.000 HD
ENDBRANCH  30  32
ENDBRANCH  29  30
ENDBRANCH  28  29
ENDBRANCH   2  28
TORSDOF 8
ENDMDL
MODEL 5
REMARK VINA RESULT:      -7.9      4.053      7.457
REMARK  Name = 
REMARK  10 active torsions:
REMARK  status: ('A' for Active; 'I' for Inactive)
REMARK    1  A    between atoms: C_1  and  C_2
REMARK    2  A    between atoms: N_4  and  C_5
REMARK    3  A    between atoms: C_8  and  N_9
REMARK    4  A    between atoms: C_10  and  C_11
REMARK    5  A    between atoms: C_11  and  C_12
REMARK    6  A    between atoms: C_12  and  C_13
REMARK    7  A    between atoms: C_13  and  O_15
REMARK    8  A    between atoms: C_18  and  C_19
REMARK    9  A    between atoms: C_21  and  N_22
REMARK   10  A    between atoms: C_26  and  C_27
REMARK                            x       y       z     vdW  Elec       q    Type
REMARK                         _______ _______ _______ _____ _____    ______ ____
ROOT
ATOM      1  N   UNL     1      -0.091  11.136  18.726  0.00  0.00    +0.000 N 
ATOM      2  C   UNL     1      -1.436  11.135  18.305  0.00  0.00    +0.000 A 
ATOM      3  C   UNL     1      -1.858  12.446  18.218  0.00  0.00    +0.000 A 
ATOM      4  C   UNL     1      -0.802  13.272  18.629  0.00  0.00    +0.000 A 
ATOM      5  C   UNL     1       0.281  12.470  18.958  0.00  0.00    +0.000 A 
ENDROOT
BRANCH   1   9
ATOM      6  C   UNL     1       2.323   7.687  19.400  0.00  0.00    +0.000 A 
ATOM      7  C   UNL     1       1.551   8.238  20.422  0.00  0.00    +0.000 A 
ATOM      8  C   UNL     1       0.724   9.342  20.181  0.00  0.00    +0.000 A 
ATOM      9  C   UNL     1       0.706   9.961  18.929  0.00  0.00    +0.000 A 
ATOM     10  C   UNL     1       1.502   9.431  17.909  0.00  0.00    +0.000 A 
ATOM     11  C   UNL     1       2.288   8.290  18.138  0.00  0.00    +0.000 A 
BRANCH   6  15
ATOM     12  C   UNL     1       3.951   4.288  19.552  0.00  0.00    +0.000 C 
ATOM     13  C   UNL     1       2.946   5.293  19.057  0.00  0.00    +0.000 C 
ATOM     14  O   UNL     1       2.059   4.953  18.280  0.00  0.00    +0.000 OA
ATOM     15  N   UNL     1       3.149   6.558  19.585  0.00  0.00    +0.000 N 
ATOM     16  H   UNL     1       4.003   6.704  20.108  0.00  0.00    +0.000 HD
ENDBRANCH   6  15
ENDBRANCH   1   9
BRANCH   5  17
ATOM     17  C   UNL     1       1.569  12.961  19.400  0.00  0.00    +0.000 A 
ATOM     18  C   UNL     1       2.029  13.133  20.693  0.00  0.00    +0.000 A 
ATOM     19  C   UNL     1       3.267  13.846  20.756  0.00  0.00    +0.000 A 
ATOM     20  C   UNL     1       3.799  14.023  19.495  0.00  0.00    +0.000 A 
ATOM     21  S   UNL     1       2.779  13.414  18.267  0.00  0.00    +0.000 S 
BRANCH  19  22
ATOM     22  N   UNL     1       3.858  14.374  21.948  0.00  0.00    +0.000 N 
ATOM     23  C   UNL     1       4.985  13.858  22.561  0.00  0.00    +0.000 A 
ATOM     24  C   UNL     1       5.319  14.738  23.558  0.00  0.00    +0.000 A 
ATOM     25  N   UNL     1       4.408  15.748  23.630  0.00  0.00    +0.000 NA
ATOM     26  C   UNL     1       3.513  15.499  22.691  0.00  0.00    +0.000 A 
ATOM     27  C   UNL     1       2.250  16.264  22.534  0.00  0.00    +0.000 C 
ENDBRANCH  19  22
ENDBRANCH   5  17
BRANCH   2  28
ATOM     28  C   UNL     1      -2.305   9.924  18.069  0.00  0.00    +0.000 C 
BRANCH  28  29
ATOM     29  C   UNL     1      -3.536  10.221  17.214  0.00  0.00    +0.000 C 
BRANCH  29  30
ATOM     30  C   UNL     1      -3.174  10.333  15.754  0.00  0.00    +0.000 C 
ATOM     31  O   UNL     1      -2.777   9.418  15.050  0.00  0.00    +0.000 OA
BRANCH  30  32
ATOM     32  O   UNL     1      -3.333  11.592  15.283  0.00  0.00    +0.000 OA
ATOM     33  H   UNL     1      -3.452  11.635  14.316  0.00  0.00    +0.000 HD
ENDBRANCH  30  32
ENDBRANCH  29  30
ENDBRANCH  28  29
ENDBRANCH   2  28
TORSDOF 8
ENDMDL
MODEL 6
REMARK VINA RESULT:      -7.8      2.773      4.798
REMARK  Name = 
REMARK  10 active torsions:
REMARK  status: ('A' for Active; 'I' for Inactive)
REMARK    1  A    between atoms: C_1  and  C_2
REMARK    2  A    between atoms: N_4  and  C_5
REMARK    3  A    between atoms: C_8  and  N_9
REMARK    4  A    between atoms: C_10  and  C_11
REMARK    5  A    between atoms: C_11  and  C_12
REMARK    6  A    between atoms: C_12  and  C_13
REMARK    7  A    between atoms: C_13  and  O_15
REMARK    8  A    between atoms: C_18  and  C_19
REMARK    9  A    between atoms: C_21  and  N_22
REMARK   10  A    between atoms: C_26  and  C_27
REMARK                            x       y       z     vdW  Elec       q    Type
REMARK                         _______ _______ _______ _____ _____    ______ ____
ROOT
ATOM      1  N   UNL     1       5.142   4.869  17.071  0.00  0.00    +0.000 N 
ATOM      2  C   UNL     1       5.403   3.957  16.030  0.00  0.00    +0.000 A 
ATOM      3  C   UNL     1       4.276   3.182  15.847  0.00  0.00    +0.000 A 
ATOM      4  C   UNL     1       3.322   3.567  16.801  0.00  0.00    +0.000 A 
ATOM      5  C   UNL     1       3.858   4.593  17.567  0.00  0.00    +0.000 A 
ENDROOT
BRANCH   1   9
ATOM      6  C   UNL     1       7.930   7.800  18.419  0.00  0.00    +0.000 A 
ATOM      7  C   UNL     1       6.983   8.101  17.440  0.00  0.00    +0.000 A 
ATOM      8  C   UNL     1       6.041   7.148  17.037  0.00  0.00    +0.000 A 
ATOM      9  C   UNL     1       6.070   5.851  17.554  0.00  0.00    +0.000 A 
ATOM     10  C   UNL     1       7.037   5.535  18.514  0.00  0.00    +0.000 A 
ATOM     11  C   UNL     1       7.946   6.509  18.958  0.00  0.00    +0.000 A 
BRANCH   6  15
ATOM     12  C   UNL     1      10.155  10.764  19.121  0.00  0.00    +0.000 C 
ATOM     13  C   UNL     1       8.942  10.079  18.551  0.00  0.00    +0.000 C 
ATOM     14  O   UNL     1       8.142  10.706  17.864  0.00  0.00    +0.000 OA
ATOM     15  N   UNL     1       8.880   8.735  18.881  0.00  0.00    +0.000 N 
ATOM     16  H   UNL     1       9.548   8.400  19.565  0.00  0.00    +0.000 HD
ENDBRANCH   6  15
ENDBRANCH   1   9
BRANCH   5  17
ATOM     17  C   UNL     1       3.162   5.274  18.638  0.00  0.00    +0.000 A 
ATOM     18  C   UNL     1       2.445   6.456  18.587  0.00  0.00    +0.000 A 
ATOM     19  C   UNL     1       2.081   6.946  19.881  0.00  0.00    +0.000 A 
ATOM     20  C   UNL     1       2.370   6.016  20.860  0.00  0.00    +0.000 A 
ATOM     21  S   UNL     1       3.140   4.627  20.230  0.00  0.00    +0.000 S 
BRANCH  19  22
ATOM     22  N   UNL     1       1.550   8.247  20.154  0.00  0.00    +0.000 N 
ATOM     23  C   UNL     1       1.133   8.680  21.399  0.00  0.00    +0.000 A 
ATOM     24  C   UNL     1       0.858  10.016  21.270  0.00  0.00    +0.000 A 
ATOM     25  N   UNL     1       1.027  10.418  19.980  0.00  0.00    +0.000 NA
ATOM     26  C   UNL     1       1.400   9.342  19.309  0.00  0.00    +0.000 A 
ATOM     27  C   UNL     1       1.529   9.298  17.831  0.00  0.00    +0.000 C 
ENDBRANCH  19  22
ENDBRANCH   5  17
BRANCH   2  28
ATOM     28  C   UNL     1       6.706   3.784  15.288  0.00  0.00    +0.000 C 
BRANCH  28  29
ATOM     29  C   UNL     1       6.881   4.770  14.134  0.00  0.00    +0.000 C 
BRANCH  29  30
ATOM     30  C   UNL     1       6.880   4.060  12.804  0.00  0.00    +0.000 C 
ATOM     31  O   UNL     1       7.373   4.487  11.772  0.00  0.00    +0.000 OA
BRANCH  30  32
ATOM     32  O   UNL     1       6.253   2.862  12.865  0.00  0.00    +0.000 OA
ATOM     33  H   UNL     1       6.216   2.486  13.765  0.00  0.00    +0.000 HD
ENDBRANCH  30  32
ENDBRANCH  29  30
ENDBRANCH  28  29
ENDBRANCH   2  28
TORSDOF 8
ENDMDL
MODEL 7
REMARK VINA RESULT:      -7.8      1.367      1.878
REMARK  Name = 
REMARK  10 active torsions:
REMARK  status: ('A' for Active; 'I' for Inactive)
REMARK    1  A    between atoms: C_1  and  C_2
REMARK    2  A    between atoms: N_4  and  C_5
REMARK    3  A    between atoms: C_8  and  N_9
REMARK    4  A    between atoms: C_10  and  C_11
REMARK    5  A    between atoms: C_11  and  C_12
REMARK    6  A    between atoms: C_12  and  C_13
REMARK    7  A    between atoms: C_13  and  O_15
REMARK    8  A    between atoms: C_18  and  C_19
REMARK    9  A    between atoms: C_21  and  N_22
REMARK   10  A    between atoms: C_26  and  C_27
REMARK                            x       y       z     vdW  Elec       q    Type
REMARK                         _______ _______ _______ _____ _____    ______ ____
ROOT
ATOM      1  N   UNL     1       3.154   4.734  19.252  0.00  0.00    +0.000 N 
ATOM      2  C   UNL     1       2.974   3.509  19.924  0.00  0.00    +0.000 A 
ATOM      3  C   UNL     1       1.953   3.667  20.838  0.00  0.00    +0.000 A 
ATOM      4  C   UNL     1       1.520   5.000  20.781  0.00  0.00    +0.000 A 
ATOM      5  C   UNL     1       2.267   5.664  19.818  0.00  0.00    +0.000 A 
ENDROOT
BRANCH   1   9
ATOM      6  C   UNL     1       6.035   5.343  16.169  0.00  0.00    +0.000 A 
ATOM      7  C   UNL     1       4.859   4.633  15.927  0.00  0.00    +0.000 A 
ATOM      8  C   UNL     1       3.896   4.478  16.931  0.00  0.00    +0.000 A 
ATOM      9  C   UNL     1       4.121   4.970  18.219  0.00  0.00    +0.000 A 
ATOM     10  C   UNL     1       5.312   5.656  18.474  0.00  0.00    +0.000 A 
ATOM     11  C   UNL     1       6.252   5.859  17.451  0.00  0.00    +0.000 A 
BRANCH   6  15
ATOM     12  C   UNL     1       8.361   5.277  13.200  0.00  0.00    +0.000 C 
ATOM     13  C   UNL     1       7.118   4.903  13.962  0.00  0.00    +0.000 C 
ATOM     14  O   UNL     1       6.326   4.091  13.496  0.00  0.00    +0.000 OA
ATOM     15  N   UNL     1       7.022   5.552  15.182  0.00  0.00    +0.000 N 
ATOM     16  H   UNL     1       7.691   6.291  15.362  0.00  0.00    +0.000 HD
ENDBRANCH   6  15
ENDBRANCH   1   9
BRANCH   5  17
ATOM     17  C   UNL     1       2.093   7.052  19.449  0.00  0.00    +0.000 A 
ATOM     18  C   UNL     1       1.567   8.086  20.203  0.00  0.00    +0.000 A 
ATOM     19  C   UNL     1       1.343   9.276  19.441  0.00  0.00    +0.000 A 
ATOM     20  C   UNL     1       1.886   9.162  18.177  0.00  0.00    +0.000 A 
ATOM     21  S   UNL     1       2.571   7.623  17.900  0.00  0.00    +0.000 S 
BRANCH  19  22
ATOM     22  N   UNL     1       0.600  10.416  19.887  0.00  0.00    +0.000 N 
ATOM     23  C   UNL     1       0.991  11.256  20.912  0.00  0.00    +0.000 A 
ATOM     24  C   UNL     1       0.107  12.304  20.911  0.00  0.00    +0.000 A 
ATOM     25  N   UNL     1      -0.856  12.116  19.966  0.00  0.00    +0.000 NA
ATOM     26  C   UNL     1      -0.578  10.962  19.386  0.00  0.00    +0.000 A 
ATOM     27  C   UNL     1      -1.475  10.294  18.410  0.00  0.00    +0.000 C 
ENDBRANCH  19  22
ENDBRANCH   5  17
BRANCH   2  28
ATOM     28  C   UNL     1       3.800   2.256  19.750  0.00  0.00    +0.000 C 
BRANCH  28  29
ATOM     29  C   UNL     1       5.116   2.288  20.526  0.00  0.00    +0.000 C 
BRANCH  29  30
ATOM     30  C   UNL     1       5.512   0.908  20.987  0.00  0.00    +0.000 C 
ATOM     31  O   UNL     1       5.892   0.617  22.110  0.00  0.00    +0.000 OA
BRANCH  30  32
ATOM     32  O   UNL     1       5.405  -0.011  19.999  0.00  0.00    +0.000 OA
ATOM     33  H   UNL     1       6.258  -0.407  19.740  0.00  0.00    +0.000 HD
ENDBRANCH  30  32
ENDBRANCH  29  30
ENDBRANCH  28  29
ENDBRANCH   2  28
TORSDOF 8
ENDMDL
MODEL 8
REMARK VINA RESULT:      -7.8      4.187      7.517
REMARK  Name = 
REMARK  10 active torsions:
REMARK  status: ('A' for Active; 'I' for Inactive)
REMARK    1  A    between atoms: C_1  and  C_2
REMARK    2  A    between atoms: N_4  and  C_5
REMARK    3  A    between atoms: C_8  and  N_9
REMARK    4  A    between atoms: C_10  and  C_11
REMARK    5  A    between atoms: C_11  and  C_12
REMARK    6  A    between atoms: C_12  and  C_13
REMARK    7  A    between atoms: C_13  and  O_15
REMARK    8  A    between atoms: C_18  and  C_19
REMARK    9  A    between atoms: C_21  and  N_22
REMARK   10  A    between atoms: C_26  and  C_27
REMARK                            x       y       z     vdW  Elec       q    Type
REMARK                         _______ _______ _______ _____ _____    ______ ____
ROOT
ATOM      1  N   UNL     1      -0.041  11.274  18.777  0.00  0.00    +0.000 N 
ATOM      2  C   UNL     1      -1.392  11.280  18.380  0.00  0.00    +0.000 A 
ATOM      3  C   UNL     1      -1.821  12.591  18.338  0.00  0.00    +0.000 A 
ATOM      4  C   UNL     1      -0.761  13.409  18.754  0.00  0.00    +0.000 A 
ATOM      5  C   UNL     1       0.331  12.602  19.041  0.00  0.00    +0.000 A 
ENDROOT
BRANCH   1   9
ATOM      6  C   UNL     1       2.306   7.736  19.166  0.00  0.00    +0.000 A 
ATOM      7  C   UNL     1       2.227   8.419  17.953  0.00  0.00    +0.000 A 
ATOM      8  C   UNL     1       1.493   9.607  17.846  0.00  0.00    +0.000 A 
ATOM      9  C   UNL     1       0.764  10.097  18.931  0.00  0.00    +0.000 A 
ATOM     10  C   UNL     1       0.815   9.398  20.142  0.00  0.00    +0.000 A 
ATOM     11  C   UNL     1       1.597   8.238  20.263  0.00  0.00    +0.000 A 
BRANCH   6  15
ATOM     12  C   UNL     1       3.720   4.240  19.243  0.00  0.00    +0.000 C 
ATOM     13  C   UNL     1       2.791   5.321  18.758  0.00  0.00    +0.000 C 
ATOM     14  O   UNL     1       1.907   5.061  17.949  0.00  0.00    +0.000 OA
ATOM     15  N   UNL     1       3.056   6.553  19.333  0.00  0.00    +0.000 N 
ATOM     16  H   UNL     1       3.904   6.629  19.882  0.00  0.00    +0.000 HD
ENDBRANCH   6  15
ENDBRANCH   1   9
BRANCH   5  17
ATOM     17  C   UNL     1       1.624  13.085  19.475  0.00  0.00    +0.000 A 
ATOM     18  C   UNL     1       2.112  13.207  20.764  0.00  0.00    +0.000 A 
ATOM     19  C   UNL     1       3.346  13.928  20.829  0.00  0.00    +0.000 A 
ATOM     20  C   UNL     1       3.848  14.162  19.565  0.00  0.00    +0.000 A 
ATOM     21  S   UNL     1       2.805  13.597  18.336  0.00  0.00    +0.000 S 
BRANCH  19  22
ATOM     22  N   UNL     1       3.959  14.409  22.029  0.00  0.00    +0.000 N 
ATOM     23  C   UNL     1       5.075  13.847  22.622  0.00  0.00    +0.000 A 
ATOM     24  C   UNL     1       5.440  14.693  23.637  0.00  0.00    +0.000 A 
ATOM     25  N   UNL     1       4.559  15.726  23.740  0.00  0.00    +0.000 NA
ATOM     26  C   UNL     1       3.651  15.526  22.801  0.00  0.00    +0.000 A 
ATOM     27  C   UNL     1       2.410  16.330  22.671  0.00  0.00    +0.000 C 
ENDBRANCH  19  22
ENDBRANCH   5  17
BRANCH   2  28
ATOM     28  C   UNL     1      -2.261  10.072  18.123  0.00  0.00    +0.000 C 
BRANCH  28  29
ATOM     29  C   UNL     1      -2.311   9.666  16.651  0.00  0.00    +0.000 C 
BRANCH  29  30
ATOM     30  C   UNL     1      -3.297  10.513  15.883  0.00  0.00    +0.000 C 
ATOM     31  O   UNL     1      -3.161  10.888  14.730  0.00  0.00    +0.000 OA
BRANCH  30  32
ATOM     32  O   UNL     1      -4.384  10.829  16.625  0.00  0.00    +0.000 OA
ATOM     33  H   UNL     1      -4.251  11.605  17.201  0.00  0.00    +0.000 HD
ENDBRANCH  30  32
ENDBRANCH  29  30
ENDBRANCH  28  29
ENDBRANCH   2  28
TORSDOF 8
ENDMDL
MODEL 9
REMARK VINA RESULT:      -7.7      2.814      4.694
REMARK  Name = 
REMARK  10 active torsions:
REMARK  status: ('A' for Active; 'I' for Inactive)
REMARK    1  A    between atoms: C_1  and  C_2
REMARK    2  A    between atoms: N_4  and  C_5
REMARK    3  A    between atoms: C_8  and  N_9
REMARK    4  A    between atoms: C_10  and  C_11
REMARK    5  A    between atoms: C_11  and  C_12
REMARK    6  A    between atoms: C_12  and  C_13
REMARK    7  A    between atoms: C_13  and  O_15
REMARK    8  A    between atoms: C_18  and  C_19
REMARK    9  A    between atoms: C_21  and  N_22
REMARK   10  A    between atoms: C_26  and  C_27
REMARK                            x       y       z     vdW  Elec       q    Type
REMARK                         _______ _______ _______ _____ _____    ______ ____
ROOT
ATOM      1  N   UNL     1       4.897   4.758  17.084  0.00  0.00    +0.000 N 
ATOM      2  C   UNL     1       5.075   3.803  16.065  0.00  0.00    +0.000 A 
ATOM      3  C   UNL     1       3.904   3.084  15.941  0.00  0.00    +0.000 A 
ATOM      4  C   UNL     1       3.003   3.549  16.911  0.00  0.00    +0.000 A 
ATOM      5  C   UNL     1       3.616   4.568  17.627  0.00  0.00    +0.000 A 
ENDROOT
BRANCH   1   9
ATOM      6  C   UNL     1       7.821   7.554  18.430  0.00  0.00    +0.000 A 
ATOM      7  C   UNL     1       7.770   6.259  18.946  0.00  0.00    +0.000 A 
ATOM      8  C   UNL     1       6.837   5.333  18.465  0.00  0.00    +0.000 A 
ATOM      9  C   UNL     1       5.890   5.703  17.508  0.00  0.00    +0.000 A 
ATOM     10  C   UNL     1       5.918   7.009  17.010  0.00  0.00    +0.000 A 
ATOM     11  C   UNL     1       6.889   7.921  17.453  0.00  0.00    +0.000 A 
BRANCH   6  15
ATOM     12  C   UNL     1      10.005  10.568  19.039  0.00  0.00    +0.000 C 
ATOM     13  C   UNL     1       8.798   9.851  18.497  0.00  0.00    +0.000 C 
ATOM     14  O   UNL     1       7.984  10.448  17.800  0.00  0.00    +0.000 OA
ATOM     15  N   UNL     1       8.760   8.515  18.860  0.00  0.00    +0.000 N 
ATOM     16  H   UNL     1       9.438   8.208  19.547  0.00  0.00    +0.000 HD
ENDBRANCH   6  15
ENDBRANCH   1   9
BRANCH   5  17
ATOM     17  C   UNL     1       2.992   5.317  18.696  0.00  0.00    +0.000 A 
ATOM     18  C   UNL     1       2.296   6.511  18.622  0.00  0.00    +0.000 A 
ATOM     19  C   UNL     1       2.011   7.073  19.906  0.00  0.00    +0.000 A 
ATOM     20  C   UNL     1       2.334   6.188  20.915  0.00  0.00    +0.000 A 
ATOM     21  S   UNL     1       3.042   4.752  20.319  0.00  0.00    +0.000 S 
BRANCH  19  22
ATOM     22  N   UNL     1       1.520   8.397  20.138  0.00  0.00    +0.000 N 
ATOM     23  C   UNL     1       1.072   8.866  21.359  0.00  0.00    +0.000 A 
ATOM     24  C   UNL     1       0.855  10.210  21.200  0.00  0.00    +0.000 A 
ATOM     25  N   UNL     1       1.090  10.584  19.911  0.00  0.00    +0.000 NA
ATOM     26  C   UNL     1       1.447   9.484  19.272  0.00  0.00    +0.000 A 
ATOM     27  C   UNL     1       1.633   9.411  17.801  0.00  0.00    +0.000 C 
ENDBRANCH  19  22
ENDBRANCH   5  17
BRANCH   2  28
ATOM     28  C   UNL     1       6.344   3.537  15.291  0.00  0.00    +0.000 C 
BRANCH  28  29
ATOM     29  C   UNL     1       6.274   4.005  13.838  0.00  0.00    +0.000 C 
BRANCH  29  30
ATOM     30  C   UNL     1       7.396   4.962  13.517  0.00  0.00    +0.000 C 
ATOM     31  O   UNL     1       7.827   5.200  12.400  0.00  0.00    +0.000 OA
BRANCH  30  32
ATOM     32  O   UNL     1       7.898   5.550  14.628  0.00  0.00    +0.000 OA
ATOM     33  H   UNL     1       7.227   5.724  15.315  0.00  0.00    +0.000 HD
ENDBRANCH  30  32
ENDBRANCH  29  30
ENDBRANCH  28  29
ENDBRANCH   2  28
TORSDOF 8
ENDMDL
