MODEL 1
REMARK VINA RESULT:      -7.9      0.000      0.000
REMARK  Name = 
REMARK  11 active torsions:
REMARK  status: ('A' for Active; 'I' for Inactive)
REMARK    1  A    between atoms: C_1  and  C_2
REMARK    2  A    between atoms: C_2  and  C_3
REMARK    3  A    between atoms: C_2  and  C_4
REMARK    4  A    between atoms: C_6  and  C_7
REMARK    5  A    between atoms: C_7  and  C_8
REMARK    6  A    between atoms: C_7  and  C_9
REMARK    7  A    between atoms: C_7  and  C_10
REMARK    8  A    between atoms: C_12  and  C_13
REMARK    9  A    between atoms: C_17  and  C_18
REMARK   10  A    between atoms: C_21  and  C_22
REMARK   11  A    between atoms: C_22  and  O_23
REMARK                            x       y       z     vdW  Elec       q    Type
REMARK                         _______ _______ _______ _____ _____    ______ ____
ROOT
ATOM      1  C   UNL     1       3.702   3.841  18.701  0.00  0.00    +0.000 A 
ATOM      2  C   UNL     1       4.946   4.118  18.095  0.00  0.00    +0.000 A 
ATOM      3  C   UNL     1       5.340   5.401  17.722  0.00  0.00    +0.000 A 
ATOM      4  C   UNL     1       4.404   6.420  17.916  0.00  0.00    +0.000 A 
ATOM      5  C   UNL     1       3.144   6.242  18.552  0.00  0.00    +0.000 A 
ATOM      6  C   UNL     1       2.786   4.914  18.950  0.00  0.00    +0.000 A 
ENDROOT
BRANCH   5   7
ATOM      7  C   UNL     1       2.344   7.488  18.814  0.00  0.00    +0.000 A 
ATOM      8  C   UNL     1       1.929   8.376  17.812  0.00  0.00    +0.000 A 
ATOM      9  C   UNL     1       1.121   9.488  18.082  0.00  0.00    +0.000 A 
ATOM     10  C   UNL     1       0.776   9.800  19.389  0.00  0.00    +0.000 A 
ATOM     11  C   UNL     1       1.221   8.989  20.422  0.00  0.00    +0.000 A 
ATOM     12  C   UNL     1       1.973   7.837  20.133  0.00  0.00    +0.000 A 
BRANCH  11  13
ATOM     13  C   UNL     1       0.919   9.322  21.783  0.00  0.00    +0.000 C 
ATOM     14  N   UNL     1       0.684   9.600  22.881  0.00  0.00    +0.000 NA
ENDBRANCH  11  13
ENDBRANCH   5   7
BRANCH   3  15
ATOM     15  C   UNL     1       6.762   5.658  17.194  0.00  0.00    +0.000 C 
ATOM     16  C   UNL     1       6.811   5.459  15.665  0.00  0.00    +0.000 C 
ATOM     17  C   UNL     1       7.281   7.079  17.510  0.00  0.00    +0.000 C 
ATOM     18  C   UNL     1       7.751   4.664  17.849  0.00  0.00    +0.000 C 
ENDBRANCH   3  15
BRANCH   1  20
ATOM     19  C   UNL     1       3.594   1.301  18.138  0.00  0.00    +0.000 C 
ATOM     20  C   UNL     1       3.456   2.410  19.195  0.00  0.00    +0.000 C 
ATOM     21  C   UNL     1       4.423   2.131  20.352  0.00  0.00    +0.000 C 
ENDBRANCH   1  20
BRANCH   6  22
ATOM     22  C   UNL     1       1.449   4.616  19.613  0.00  0.00    +0.000 C 
BRANCH  22  23
ATOM     23  O   UNL     1       1.557   4.433  21.016  0.00  0.00    +0.000 OA
ATOM     24  H   UNL     1       1.589   5.318  21.415  0.00  0.00    +0.000 HD
ENDBRANCH  22  23
ENDBRANCH   6  22
TORSDOF 6
ENDMDL
MODEL 2
REMARK VINA RESULT:      -7.5      0.799      1.224
REMARK  Name = 
REMARK  11 active torsions:
REMARK  status: ('A' for Active; 'I' for Inactive)
REMARK    1  A    between atoms: C_1  and  C_2
REMARK    2  A    between atoms: C_2  and  C_3
REMARK    3  A    between atoms: C_2  and  C_4
REMARK    4  A    between atoms: C_6  and  C_7
REMARK    5  A    between atoms: C_7  and  C_8
REMARK    6  A    between atoms: C_7  and  C_9
REMARK    7  A    between atoms: C_7  and  C_10
REMARK    8  A    between atoms: C_12  and  C_13
REMARK    9  A    between atoms: C_17  and  C_18
REMARK   10  A    between atoms: C_21  and  C_22
REMARK   11  A    between atoms: C_22  and  O_23
REMARK                            x       y       z     vdW  Elec       q    Type
REMARK                         _______ _______ _______ _____ _____    ______ ____
ROOT
ATOM      1  C   UNL     1       3.369   4.002  19.126  0.00  0.00    +0.000 A 
ATOM      2  C   UNL     1       4.435   4.218  18.227  0.00  0.00    +0.000 A 
ATOM      3  C   UNL     1       4.726   5.466  17.680  0.00  0.00    +0.000 A 
ATOM      4  C   UNL     1       3.858   6.509  18.015  0.00  0.00    +0.000 A 
ATOM      5  C   UNL     1       2.785   6.394  18.940  0.00  0.00    +0.000 A 
ATOM      6  C   UNL     1       2.534   5.103  19.506  0.00  0.00    +0.000 A 
ENDROOT
BRANCH   5   7
ATOM      7  C   UNL     1       2.066   7.667  19.293  0.00  0.00    +0.000 A 
ATOM      8  C   UNL     1       1.720   8.654  18.360  0.00  0.00    +0.000 A 
ATOM      9  C   UNL     1       0.983   9.793  18.710  0.00  0.00    +0.000 A 
ATOM     10  C   UNL     1       0.646  10.027  20.035  0.00  0.00    +0.000 A 
ATOM     11  C   UNL     1       1.027   9.112  21.006  0.00  0.00    +0.000 A 
ATOM     12  C   UNL     1       1.705   7.938  20.633  0.00  0.00    +0.000 A 
BRANCH  11  13
ATOM     13  C   UNL     1       0.734   9.359  22.387  0.00  0.00    +0.000 C 
ATOM     14  N   UNL     1       0.502   9.547  23.504  0.00  0.00    +0.000 NA
ENDBRANCH  11  13
ENDBRANCH   5   7
BRANCH   3  15
ATOM     15  C   UNL     1       5.983   5.664  16.815  0.00  0.00    +0.000 C 
ATOM     16  C   UNL     1       6.625   7.036  17.110  0.00  0.00    +0.000 C 
ATOM     17  C   UNL     1       7.055   4.574  17.042  0.00  0.00    +0.000 C 
ATOM     18  C   UNL     1       5.602   5.614  15.316  0.00  0.00    +0.000 C 
ENDBRANCH   3  15
BRANCH   1  20
ATOM     19  C   UNL     1       2.659   1.510  18.873  0.00  0.00    +0.000 C 
ATOM     20  C   UNL     1       3.250   2.614  19.766  0.00  0.00    +0.000 C 
ATOM     21  C   UNL     1       4.644   2.186  20.243  0.00  0.00    +0.000 C 
ENDBRANCH   1  20
BRANCH   6  22
ATOM     22  C   UNL     1       1.393   4.872  20.485  0.00  0.00    +0.000 C 
BRANCH  22  23
ATOM     23  O   UNL     1       0.434   3.942  20.006  0.00  0.00    +0.000 OA
ATOM     24  H   UNL     1      -0.064   4.388  19.302  0.00  0.00    +0.000 HD
ENDBRANCH  22  23
ENDBRANCH   6  22
TORSDOF 6
ENDMDL
MODEL 3
REMARK VINA RESULT:      -7.5      0.764      1.261
REMARK  Name = 
REMARK  11 active torsions:
REMARK  status: ('A' for Active; 'I' for Inactive)
REMARK    1  A    between atoms: C_1  and  C_2
REMARK    2  A    between atoms: C_2  and  C_3
REMARK    3  A    between atoms: C_2  and  C_4
REMARK    4  A    between atoms: C_6  and  C_7
REMARK    5  A    between atoms: C_7  and  C_8
REMARK    6  A    between atoms: C_7  and  C_9
REMARK    7  A    between atoms: C_7  and  C_10
REMARK    8  A    between atoms: C_12  and  C_13
REMARK    9  A    between atoms: C_17  and  C_18
REMARK   10  A    between atoms: C_21  and  C_22
REMARK   11  A    between atoms: C_22  and  O_23
REMARK                            x       y       z     vdW  Elec       q    Type
REMARK                         _______ _______ _______ _____ _____    ______ ____
ROOT
ATOM      1  C   UNL     1       3.825   3.788  19.032  0.00  0.00    +0.000 A 
ATOM      2  C   UNL     1       5.142   4.092  18.627  0.00  0.00    +0.000 A 
ATOM      3  C   UNL     1       5.566   5.385  18.332  0.00  0.00    +0.000 A 
ATOM      4  C   UNL     1       4.594   6.387  18.390  0.00  0.00    +0.000 A 
ATOM      5  C   UNL     1       3.255   6.181  18.823  0.00  0.00    +0.000 A 
ATOM      6  C   UNL     1       2.863   4.844  19.148  0.00  0.00    +0.000 A 
ENDROOT
BRANCH   5   7
ATOM      7  C   UNL     1       2.403   7.412  18.971  0.00  0.00    +0.000 A 
ATOM      8  C   UNL     1       2.015   8.228  17.901  0.00  0.00    +0.000 A 
ATOM      9  C   UNL     1       1.159   9.325  18.064  0.00  0.00    +0.000 A 
ATOM     10  C   UNL     1       0.734   9.697  19.331  0.00  0.00    +0.000 A 
ATOM     11  C   UNL     1       1.148   8.960  20.431  0.00  0.00    +0.000 A 
ATOM     12  C   UNL     1       1.950   7.820  20.247  0.00  0.00    +0.000 A 
BRANCH  11  13
ATOM     13  C   UNL     1       0.763   9.356  21.753  0.00  0.00    +0.000 C 
ATOM     14  N   UNL     1       0.445   9.685  22.815  0.00  0.00    +0.000 NA
ENDBRANCH  11  13
ENDBRANCH   5   7
BRANCH   3  15
ATOM     15  C   UNL     1       7.048   5.670  18.032  0.00  0.00    +0.000 C 
ATOM     16  C   UNL     1       7.856   5.749  19.344  0.00  0.00    +0.000 C 
ATOM     17  C   UNL     1       7.703   4.599  17.130  0.00  0.00    +0.000 C 
ATOM     18  C   UNL     1       7.183   7.022  17.292  0.00  0.00    +0.000 C 
ENDBRANCH   3  15
BRANCH   1  20
ATOM     19  C   UNL     1       3.500   1.298  18.344  0.00  0.00    +0.000 C 
ATOM     20  C   UNL     1       3.530   2.347  19.468  0.00  0.00    +0.000 C 
ATOM     21  C   UNL     1       4.577   1.940  20.513  0.00  0.00    +0.000 C 
ENDBRANCH   1  20
BRANCH   6  22
ATOM     22  C   UNL     1       1.445   4.517  19.595  0.00  0.00    +0.000 C 
BRANCH  22  23
ATOM     23  O   UNL     1       0.758   3.675  18.683  0.00  0.00    +0.000 OA
ATOM     24  H   UNL     1       1.329   2.905  18.525  0.00  0.00    +0.000 HD
ENDBRANCH  22  23
ENDBRANCH   6  22
TORSDOF 6
ENDMDL
MODEL 4
REMARK VINA RESULT:      -7.4      1.707      3.909
REMARK  Name = 
REMARK  11 active torsions:
REMARK  status: ('A' for Active; 'I' for Inactive)
REMARK    1  A    between atoms: C_1  and  C_2
REMARK    2  A    between atoms: C_2  and  C_3
REMARK    3  A    between atoms: C_2  and  C_4
REMARK    4  A    between atoms: C_6  and  C_7
REMARK    5  A    between atoms: C_7  and  C_8
REMARK    6  A    between atoms: C_7  and  C_9
REMARK    7  A    between atoms: C_7  and  C_10
REMARK    8  A    between atoms: C_12  and  C_13
REMARK    9  A    between atoms: C_17  and  C_18
REMARK   10  A    between atoms: C_21  and  C_22
REMARK   11  A    between atoms: C_22  and  O_23
REMARK                            x       y       z     vdW  Elec       q    Type
REMARK                         _______ _______ _______ _____ _____    ______ ____
ROOT
ATOM      1  C   UNL     1       4.911   4.962  17.360  0.00  0.00    +0.000 A 
ATOM      2  C   UNL     1       4.326   3.805  17.915  0.00  0.00    +0.000 A 
ATOM      3  C   UNL     1       3.177   3.838  18.702  0.00  0.00    +0.000 A 
ATOM      4  C   UNL     1       2.650   5.102  18.981  0.00  0.00    +0.000 A 
ATOM      5  C   UNL     1       3.149   6.316  18.434  0.00  0.00    +0.000 A 
ATOM      6  C   UNL     1       4.313   6.241  17.605  0.00  0.00    +0.000 A 
ENDROOT
BRANCH   5   7
ATOM      7  C   UNL     1       2.349   7.557  18.722  0.00  0.00    +0.000 A 
ATOM      8  C   UNL     1       1.937   8.468  17.740  0.00  0.00    +0.000 A 
ATOM      9  C   UNL     1       1.129   9.575  18.033  0.00  0.00    +0.000 A 
ATOM     10  C   UNL     1       0.782   9.858  19.346  0.00  0.00    +0.000 A 
ATOM     11  C   UNL     1       1.225   9.024  20.362  0.00  0.00    +0.000 A 
ATOM     12  C   UNL     1       1.976   7.878  20.048  0.00  0.00    +0.000 A 
BRANCH  11  13
ATOM     13  C   UNL     1       0.921   9.326  21.730  0.00  0.00    +0.000 C 
ATOM     14  N   UNL     1       0.681   9.582  22.831  0.00  0.00    +0.000 NA
ENDBRANCH  11  13
ENDBRANCH   5   7
BRANCH   3  15
ATOM     15  C   UNL     1       2.509   2.530  19.163  0.00  0.00    +0.000 C 
ATOM     16  C   UNL     1       2.470   2.462  20.703  0.00  0.00    +0.000 C 
ATOM     17  C   UNL     1       1.064   2.367  18.638  0.00  0.00    +0.000 C 
ATOM     18  C   UNL     1       3.315   1.317  18.639  0.00  0.00    +0.000 C 
ENDBRANCH   3  15
BRANCH   1  20
ATOM     19  C   UNL     1       7.454   4.497  17.045  0.00  0.00    +0.000 C 
ATOM     20  C   UNL     1       6.087   4.770  16.394  0.00  0.00    +0.000 C 
ATOM     21  C   UNL     1       5.741   3.618  15.442  0.00  0.00    +0.000 C 
ENDBRANCH   1  20
BRANCH   6  22
ATOM     22  C   UNL     1       4.938   7.487  16.996  0.00  0.00    +0.000 C 
BRANCH  22  23
ATOM     23  O   UNL     1       6.270   7.707  17.433  0.00  0.00    +0.000 OA
ATOM     24  H   UNL     1       6.687   6.834  17.519  0.00  0.00    +0.000 HD
ENDBRANCH  22  23
ENDBRANCH   6  22
TORSDOF 6
ENDMDL
MODEL 5
REMARK VINA RESULT:      -7.2      1.764      3.908
REMARK  Name = 
REMARK  11 active torsions:
REMARK  status: ('A' for Active; 'I' for Inactive)
REMARK    1  A    between atoms: C_1  and  C_2
REMARK    2  A    between atoms: C_2  and  C_3
REMARK    3  A    between atoms: C_2  and  C_4
REMARK    4  A    between atoms: C_6  and  C_7
REMARK    5  A    between atoms: C_7  and  C_8
REMARK    6  A    between atoms: C_7  and  C_9
REMARK    7  A    between atoms: C_7  and  C_10
REMARK    8  A    between atoms: C_12  and  C_13
REMARK    9  A    between atoms: C_17  and  C_18
REMARK   10  A    between atoms: C_21  and  C_22
REMARK   11  A    between atoms: C_22  and  O_23
REMARK                            x       y       z     vdW  Elec       q    Type
REMARK                         _______ _______ _______ _____ _____    ______ ____
ROOT
ATOM      1  C   UNL     1       4.935   4.896  17.383  0.00  0.00    +0.000 A 
ATOM      2  C   UNL     1       4.356   3.746  17.961  0.00  0.00    +0.000 A 
ATOM      3  C   UNL     1       3.211   3.788  18.753  0.00  0.00    +0.000 A 
ATOM      4  C   UNL     1       2.682   5.055  19.014  0.00  0.00    +0.000 A 
ATOM      5  C   UNL     1       3.174   6.262  18.445  0.00  0.00    +0.000 A 
ATOM      6  C   UNL     1       4.334   6.177  17.611  0.00  0.00    +0.000 A 
ENDROOT
BRANCH   5   7
ATOM      7  C   UNL     1       2.372   7.505  18.717  0.00  0.00    +0.000 A 
ATOM      8  C   UNL     1       1.975   8.412  17.726  0.00  0.00    +0.000 A 
ATOM      9  C   UNL     1       1.165   9.521  18.004  0.00  0.00    +0.000 A 
ATOM     10  C   UNL     1       0.799   9.810  19.311  0.00  0.00    +0.000 A 
ATOM     11  C   UNL     1       1.227   8.979  20.335  0.00  0.00    +0.000 A 
ATOM     12  C   UNL     1       1.981   7.830  20.037  0.00  0.00    +0.000 A 
BRANCH  11  13
ATOM     13  C   UNL     1       0.904   9.287  21.698  0.00  0.00    +0.000 C 
ATOM     14  N   UNL     1       0.652   9.545  22.796  0.00  0.00    +0.000 NA
ENDBRANCH  11  13
ENDBRANCH   5   7
BRANCH   3  15
ATOM     15  C   UNL     1       2.550   2.486  19.238  0.00  0.00    +0.000 C 
ATOM     16  C   UNL     1       1.117   2.371  18.678  0.00  0.00    +0.000 C 
ATOM     17  C   UNL     1       3.330   1.217  18.823  0.00  0.00    +0.000 C 
ATOM     18  C   UNL     1       2.474   2.480  20.783  0.00  0.00    +0.000 C 
ENDBRANCH   3  15
BRANCH   1  20
ATOM     19  C   UNL     1       7.485   4.476  17.062  0.00  0.00    +0.000 C 
ATOM     20  C   UNL     1       6.106   4.691  16.414  0.00  0.00    +0.000 C 
ATOM     21  C   UNL     1       5.778   3.494  15.513  0.00  0.00    +0.000 C 
ENDBRANCH   1  20
BRANCH   6  22
ATOM     22  C   UNL     1       4.952   7.415  16.979  0.00  0.00    +0.000 C 
BRANCH  22  23
ATOM     23  O   UNL     1       4.955   7.368  15.560  0.00  0.00    +0.000 OA
ATOM     24  H   UNL     1       4.064   7.622  15.268  0.00  0.00    +0.000 HD
ENDBRANCH  22  23
ENDBRANCH   6  22
TORSDOF 6
ENDMDL
MODEL 6
REMARK VINA RESULT:      -7.0      0.413      1.237
REMARK  Name = 
REMARK  11 active torsions:
REMARK  status: ('A' for Active; 'I' for Inactive)
REMARK    1  A    between atoms: C_1  and  C_2
REMARK    2  A    between atoms: C_2  and  C_3
REMARK    3  A    between atoms: C_2  and  C_4
REMARK    4  A    between atoms: C_6  and  C_7
REMARK    5  A    between atoms: C_7  and  C_8
REMARK    6  A    between atoms: C_7  and  C_9
REMARK    7  A    between atoms: C_7  and  C_10
REMARK    8  A    between atoms: C_12  and  C_13
REMARK    9  A    between atoms: C_17  and  C_18
REMARK   10  A    between atoms: C_21  and  C_22
REMARK   11  A    between atoms: C_22  and  O_23
REMARK                            x       y       z     vdW  Elec       q    Type
REMARK                         _______ _______ _______ _____ _____    ______ ____
ROOT
ATOM      1  C   UNL     1       3.651   3.829  18.584  0.00  0.00    +0.000 A 
ATOM      2  C   UNL     1       4.891   4.092  17.964  0.00  0.00    +0.000 A 
ATOM      3  C   UNL     1       5.299   5.371  17.594  0.00  0.00    +0.000 A 
ATOM      4  C   UNL     1       4.380   6.402  17.805  0.00  0.00    +0.000 A 
ATOM      5  C   UNL     1       3.126   6.238  18.456  0.00  0.00    +0.000 A 
ATOM      6  C   UNL     1       2.753   4.914  18.851  0.00  0.00    +0.000 A 
ENDROOT
BRANCH   5   7
ATOM      7  C   UNL     1       2.348   7.494  18.736  0.00  0.00    +0.000 A 
ATOM      8  C   UNL     1       1.944   8.401  17.746  0.00  0.00    +0.000 A 
ATOM      9  C   UNL     1       1.155   9.523  18.032  0.00  0.00    +0.000 A 
ATOM     10  C   UNL     1       0.819   9.825  19.343  0.00  0.00    +0.000 A 
ATOM     11  C   UNL     1       1.254   8.994  20.365  0.00  0.00    +0.000 A 
ATOM     12  C   UNL     1       1.986   7.833  20.060  0.00  0.00    +0.000 A 
BRANCH  11  13
ATOM     13  C   UNL     1       0.962   9.315  21.731  0.00  0.00    +0.000 C 
ATOM     14  N   UNL     1       0.738   9.569  22.837  0.00  0.00    +0.000 NA
ENDBRANCH  11  13
ENDBRANCH   5   7
BRANCH   3  15
ATOM     15  C   UNL     1       6.719   5.610  17.050  0.00  0.00    +0.000 C 
ATOM     16  C   UNL     1       7.723   4.663  17.738  0.00  0.00    +0.000 C 
ATOM     17  C   UNL     1       6.829   5.399  15.523  0.00  0.00    +0.000 C 
ATOM     18  C   UNL     1       7.149   7.069  17.332  0.00  0.00    +0.000 C 
ENDBRANCH   3  15
BRANCH   1  20
ATOM     19  C   UNL     1       3.514   2.173  20.589  0.00  0.00    +0.000 C 
ATOM     20  C   UNL     1       3.390   2.399  19.072  0.00  0.00    +0.000 C 
ATOM     21  C   UNL     1       1.987   1.985  18.612  0.00  0.00    +0.000 C 
ENDBRANCH   1  20
BRANCH   6  22
ATOM     22  C   UNL     1       1.421   4.631  19.529  0.00  0.00    +0.000 C 
BRANCH  22  23
ATOM     23  O   UNL     1       1.491   4.719  20.944  0.00  0.00    +0.000 OA
ATOM     24  H   UNL     1       2.428   4.840  21.173  0.00  0.00    +0.000 HD
ENDBRANCH  22  23
ENDBRANCH   6  22
TORSDOF 6
ENDMDL
MODEL 7
REMARK VINA RESULT:      -6.9      1.737      3.965
REMARK  Name = 
REMARK  11 active torsions:
REMARK  status: ('A' for Active; 'I' for Inactive)
REMARK    1  A    between atoms: C_1  and  C_2
REMARK    2  A    between atoms: C_2  and  C_3
REMARK    3  A    between atoms: C_2  and  C_4
REMARK    4  A    between atoms: C_6  and  C_7
REMARK    5  A    between atoms: C_7  and  C_8
REMARK    6  A    between atoms: C_7  and  C_9
REMARK    7  A    between atoms: C_7  and  C_10
REMARK    8  A    between atoms: C_12  and  C_13
REMARK    9  A    between atoms: C_17  and  C_18
REMARK   10  A    between atoms: C_21  and  C_22
REMARK   11  A    between atoms: C_22  and  O_23
REMARK                            x       y       z     vdW  Elec       q    Type
REMARK                         _______ _______ _______ _____ _____    ______ ____
ROOT
ATOM      1  C   UNL     1       4.645   4.586  17.206  0.00  0.00    +0.000 A 
ATOM      2  C   UNL     1       4.020   3.510  17.870  0.00  0.00    +0.000 A 
ATOM      3  C   UNL     1       2.949   3.676  18.745  0.00  0.00    +0.000 A 
ATOM      4  C   UNL     1       2.550   4.992  18.997  0.00  0.00    +0.000 A 
ATOM      5  C   UNL     1       3.095   6.133  18.346  0.00  0.00    +0.000 A 
ATOM      6  C   UNL     1       4.174   5.921  17.430  0.00  0.00    +0.000 A 
ENDROOT
BRANCH   5   7
ATOM      7  C   UNL     1       2.425   7.449  18.631  0.00  0.00    +0.000 A 
ATOM      8  C   UNL     1       2.170   8.424  17.657  0.00  0.00    +0.000 A 
ATOM      9  C   UNL     1       1.476   9.607  17.942  0.00  0.00    +0.000 A 
ATOM     10  C   UNL     1       1.092   9.896  19.244  0.00  0.00    +0.000 A 
ATOM     11  C   UNL     1       1.384   8.992  20.255  0.00  0.00    +0.000 A 
ATOM     12  C   UNL     1       2.019   7.777  19.945  0.00  0.00    +0.000 A 
BRANCH  11  13
ATOM     13  C   UNL     1       1.043   9.294  21.614  0.00  0.00    +0.000 C 
ATOM     14  N   UNL     1       0.760   9.527  22.710  0.00  0.00    +0.000 NA
ENDBRANCH  11  13
ENDBRANCH   5   7
BRANCH   3  15
ATOM     15  C   UNL     1       2.222   2.452  19.329  0.00  0.00    +0.000 C 
ATOM     16  C   UNL     1       2.993   1.159  18.993  0.00  0.00    +0.000 C 
ATOM     17  C   UNL     1       2.050   2.522  20.864  0.00  0.00    +0.000 C 
ATOM     18  C   UNL     1       0.802   2.347  18.723  0.00  0.00    +0.000 C 
ENDBRANCH   3  15
BRANCH   1  20
ATOM     19  C   UNL     1       5.607   5.003  14.822  0.00  0.00    +0.000 C 
ATOM     20  C   UNL     1       5.715   4.251  16.159  0.00  0.00    +0.000 C 
ATOM     21  C   UNL     1       7.092   4.516  16.780  0.00  0.00    +0.000 C 
ENDBRANCH   1  20
BRANCH   6  22
ATOM     22  C   UNL     1       4.842   7.080  16.705  0.00  0.00    +0.000 C 
BRANCH  22  23
ATOM     23  O   UNL     1       6.004   7.552  17.369  0.00  0.00    +0.000 OA
ATOM     24  H   UNL     1       5.970   8.522  17.342  0.00  0.00    +0.000 HD
ENDBRANCH  22  23
ENDBRANCH   6  22
TORSDOF 6
ENDMDL
MODEL 8
REMARK VINA RESULT:      -6.8      1.442      1.961
REMARK  Name = 
REMARK  11 active torsions:
REMARK  status: ('A' for Active; 'I' for Inactive)
REMARK    1  A    between atoms: C_1  and  C_2
REMARK    2  A    between atoms: C_2  and  C_3
REMARK    3  A    between atoms: C_2  and  C_4
REMARK    4  A    between atoms: C_6  and  C_7
REMARK    5  A    between atoms: C_7  and  C_8
REMARK    6  A    between atoms: C_7  and  C_9
REMARK    7  A    between atoms: C_7  and  C_10
REMARK    8  A    between atoms: C_12  and  C_13
REMARK    9  A    between atoms: C_17  and  C_18
REMARK   10  A    between atoms: C_21  and  C_22
REMARK   11  A    between atoms: C_22  and  O_23
REMARK                            x       y       z     vdW  Elec       q    Type
REMARK                         _______ _______ _______ _____ _____    ______ ____
ROOT
ATOM      1  C   UNL     1       3.351   3.935  19.002  0.00  0.00    +0.000 A 
ATOM      2  C   UNL     1       4.307   4.342  18.046  0.00  0.00    +0.000 A 
ATOM      3  C   UNL     1       4.492   5.673  17.678  0.00  0.00    +0.000 A 
ATOM      4  C   UNL     1       3.628   6.605  18.258  0.00  0.00    +0.000 A 
ATOM      5  C   UNL     1       2.664   6.293  19.255  0.00  0.00    +0.000 A 
ATOM      6  C   UNL     1       2.522   4.919  19.632  0.00  0.00    +0.000 A 
ENDROOT
BRANCH   5   7
ATOM      7  C   UNL     1       1.941   7.457  19.874  0.00  0.00    +0.000 A 
ATOM      8  C   UNL     1       1.364   7.430  21.151  0.00  0.00    +0.000 A 
ATOM      9  C   UNL     1       0.762   8.557  21.727  0.00  0.00    +0.000 A 
ATOM     10  C   UNL     1       0.636   9.731  21.000  0.00  0.00    +0.000 A 
ATOM     11  C   UNL     1       1.131   9.785  19.705  0.00  0.00    +0.000 A 
ATOM     12  C   UNL     1       1.795   8.670  19.163  0.00  0.00    +0.000 A 
BRANCH  11  13
ATOM     13  C   UNL     1       0.966  10.971  18.917  0.00  0.00    +0.000 C 
ATOM     14  N   UNL     1       0.845  11.930  18.284  0.00  0.00    +0.000 NA
ENDBRANCH  11  13
ENDBRANCH   5   7
BRANCH   3  15
ATOM     15  C   UNL     1       5.643   6.067  16.735  0.00  0.00    +0.000 C 
ATOM     16  C   UNL     1       5.083   6.628  15.411  0.00  0.00    +0.000 C 
ATOM     17  C   UNL     1       6.590   7.127  17.342  0.00  0.00    +0.000 C 
ATOM     18  C   UNL     1       6.507   4.825  16.414  0.00  0.00    +0.000 C 
ENDBRANCH   3  15
BRANCH   1  20
ATOM     19  C   UNL     1       3.429   1.435  18.279  0.00  0.00    +0.000 C 
ATOM     20  C   UNL     1       3.352   2.460  19.423  0.00  0.00    +0.000 C 
ATOM     21  C   UNL     1       4.527   2.237  20.383  0.00  0.00    +0.000 C 
ENDBRANCH   1  20
BRANCH   6  22
ATOM     22  C   UNL     1       1.500   4.481  20.671  0.00  0.00    +0.000 C 
BRANCH  22  23
ATOM     23  O   UNL     1       0.404   3.779  20.105  0.00  0.00    +0.000 OA
ATOM     24  H   UNL     1       0.736   3.327  19.313  0.00  0.00    +0.000 HD
ENDBRANCH  22  23
ENDBRANCH   6  22
TORSDOF 6
ENDMDL
MODEL 9
REMARK VINA RESULT:      -6.6      3.269      6.344
REMARK  Name = 
REMARK  11 active torsions:
REMARK  status: ('A' for Active; 'I' for Inactive)
REMARK    1  A    between atoms: C_1  and  C_2
REMARK    2  A    between atoms: C_2  and  C_3
REMARK    3  A    between atoms: C_2  and  C_4
REMARK    4  A    between atoms: C_6  and  C_7
REMARK    5  A    between atoms: C_7  and  C_8
REMARK    6  A    between atoms: C_7  and  C_9
REMARK    7  A    between atoms: C_7  and  C_10
REMARK    8  A    between atoms: C_12  and  C_13
REMARK    9  A    between atoms: C_17  and  C_18
REMARK   10  A    between atoms: C_21  and  C_22
REMARK   11  A    between atoms: C_22  and  O_23
REMARK                            x       y       z     vdW  Elec       q    Type
REMARK                         _______ _______ _______ _____ _____    ______ ____
ROOT
ATOM      1  C   UNL     1       2.689   4.565  19.326  0.00  0.00    +0.000 A 
ATOM      2  C   UNL     1       2.176   5.878  19.366  0.00  0.00    +0.000 A 
ATOM      3  C   UNL     1       2.632   6.897  18.532  0.00  0.00    +0.000 A 
ATOM      4  C   UNL     1       3.690   6.576  17.678  0.00  0.00    +0.000 A 
ATOM      5  C   UNL     1       4.243   5.272  17.543  0.00  0.00    +0.000 A 
ATOM      6  C   UNL     1       3.729   4.243  18.394  0.00  0.00    +0.000 A 
ENDROOT
BRANCH   5   7
ATOM      7  C   UNL     1       5.266   5.089  16.456  0.00  0.00    +0.000 A 
ATOM      8  C   UNL     1       6.600   5.507  16.558  0.00  0.00    +0.000 A 
ATOM      9  C   UNL     1       7.546   5.254  15.556  0.00  0.00    +0.000 A 
ATOM     10  C   UNL     1       7.160   4.650  14.369  0.00  0.00    +0.000 A 
ATOM     11  C   UNL     1       5.835   4.280  14.192  0.00  0.00    +0.000 A 
ATOM     12  C   UNL     1       4.910   4.476  15.232  0.00  0.00    +0.000 A 
BRANCH  11  13
ATOM     13  C   UNL     1       5.405   3.702  12.954  0.00  0.00    +0.000 C 
ATOM     14  N   UNL     1       5.063   3.224  11.958  0.00  0.00    +0.000 NA
ENDBRANCH  11  13
ENDBRANCH   5   7
BRANCH   3  15
ATOM     15  C   UNL     1       1.937   8.270  18.528  0.00  0.00    +0.000 C 
ATOM     16  C   UNL     1       1.516   8.663  19.959  0.00  0.00    +0.000 C 
ATOM     17  C   UNL     1       2.827   9.400  17.962  0.00  0.00    +0.000 C 
ATOM     18  C   UNL     1       0.669   8.213  17.643  0.00  0.00    +0.000 C 
ENDBRANCH   3  15
BRANCH   1  20
ATOM     19  C   UNL     1       2.229   3.624  21.710  0.00  0.00    +0.000 C 
ATOM     20  C   UNL     1       1.998   3.506  20.194  0.00  0.00    +0.000 C 
ATOM     21  C   UNL     1       0.493   3.559  19.906  0.00  0.00    +0.000 C 
ENDBRANCH   1  20
BRANCH   6  22
ATOM     22  C   UNL     1       4.274   2.823  18.344  0.00  0.00    +0.000 C 
BRANCH  22  23
ATOM     23  O   UNL     1       5.193   2.547  19.389  0.00  0.00    +0.000 OA
ATOM     24  H   UNL     1       5.619   1.701  19.174  0.00  0.00    +0.000 HD
ENDBRANCH  22  23
ENDBRANCH   6  22
TORSDOF 6
ENDMDL
