MODEL 1
REMARK VINA RESULT:      -9.3      0.000      0.000
REMARK  Name = 
REMARK  5 active torsions:
REMARK  status: ('A' for Active; 'I' for Inactive)
REMARK    1  A    between atoms: C_1  and  C_2
REMARK    2  A    between atoms: C_2  and  O_3
REMARK    3  A    between atoms: O_3  and  C_4
REMARK    4  A    between atoms: C_10  and  C_11
REMARK    5  A    between atoms: C_20  and  C_21
REMARK                            x       y       z     vdW  Elec       q    Type
REMARK                         _______ _______ _______ _____ _____    ______ ____
ROOT
ATOM      1  C   UNL     1       3.286   3.161  20.174  0.00  0.00    +0.000 A 
ATOM      2  C   UNL     1       3.561   2.059  19.372  0.00  0.00    +0.000 A 
ATOM      3  C   UNL     1       4.033   2.241  18.068  0.00  0.00    +0.000 A 
ATOM      4  C   UNL     1       4.250   3.521  17.540  0.00  0.00    +0.000 A 
ATOM      5  C   UNL     1       3.978   4.630  18.360  0.00  0.00    +0.000 A 
ATOM      6  C   UNL     1       3.537   4.440  19.686  0.00  0.00    +0.000 A 
ATOM      7  C   UNL     1       4.198   6.037  17.897  0.00  0.00    +0.000 C 
ATOM      8  N   UNL     1       5.229   6.424  17.199  0.00  0.00    +0.000 NA
ATOM      9  N   UNL     1       6.080   5.455  16.748  0.00  0.00    +0.000 N 
ATOM     10  C   UNL     1       5.603   4.468  15.888  0.00  0.00    +0.000 C 
ATOM     11  N   UNL     1       4.717   3.571  16.209  0.00  0.00    +0.000 NA
ATOM     12  H   UNL     1       6.958   5.861  16.428  0.00  0.00    +0.000 HD
ENDROOT
BRANCH   7  13
ATOM     13  C   UNL     1       3.218   7.109  18.292  0.00  0.00    +0.000 A 
ATOM     14  C   UNL     1       2.615   7.036  19.557  0.00  0.00    +0.000 A 
ATOM     15  C   UNL     1       1.686   8.001  19.956  0.00  0.00    +0.000 A 
ATOM     16  C   UNL     1       1.363   9.046  19.095  0.00  0.00    +0.000 A 
ATOM     17 CL   UNL     1       0.206  10.223  19.576  0.00  0.00    +0.000 Cl
ATOM     18  C   UNL     1       1.972   9.144  17.844  0.00  0.00    +0.000 A 
ATOM     19  C   UNL     1       2.909   8.183  17.446  0.00  0.00    +0.000 A 
ENDBRANCH   7  13
BRANCH  10  20
ATOM     20  C   UNL     1       6.155   4.446  14.489  0.00  0.00    +0.000 A 
ATOM     21  C   UNL     1       5.568   3.639  13.509  0.00  0.00    +0.000 A 
ATOM     22  C   UNL     1       6.120   3.588  12.226  0.00  0.00    +0.000 A 
ATOM     23  C   UNL     1       7.250   4.346  11.916  0.00  0.00    +0.000 A 
ATOM     24  C   UNL     1       7.820   5.175  12.881  0.00  0.00    +0.000 A 
ATOM     25  C   UNL     1       7.269   5.232  14.162  0.00  0.00    +0.000 A 
ENDBRANCH  10  20
BRANCH   1  26
ATOM     26  O   UNL     1       2.794   2.889  21.421  0.00  0.00    +0.000 OA
BRANCH  26  28
ATOM     27  C   UNL     1       0.698   3.552  20.481  0.00  0.00    +0.000 C 
ATOM     28  C   UNL     1       1.387   2.635  21.476  0.00  0.00    +0.000 C 
ENDBRANCH  26  28
ENDBRANCH   1  26
TORSDOF 4
ENDMDL
MODEL 2
REMARK VINA RESULT:      -9.3      0.101      1.320
REMARK  Name = 
REMARK  5 active torsions:
REMARK  status: ('A' for Active; 'I' for Inactive)
REMARK    1  A    between atoms: C_1  and  C_2
REMARK    2  A    between atoms: C_2  and  O_3
REMARK    3  A    between atoms: O_3  and  C_4
REMARK    4  A    between atoms: C_10  and  C_11
REMARK    5  A    between atoms: C_20  and  C_21
REMARK                            x       y       z     vdW  Elec       q    Type
REMARK                         _______ _______ _______ _____ _____    ______ ____
ROOT
ATOM      1  C   UNL     1       3.298   3.069  20.199  0.00  0.00    +0.000 A 
ATOM      2  C   UNL     1       3.582   1.974  19.392  0.00  0.00    +0.000 A 
ATOM      3  C   UNL     1       4.064   2.165  18.092  0.00  0.00    +0.000 A 
ATOM      4  C   UNL     1       4.282   3.449  17.574  0.00  0.00    +0.000 A 
ATOM      5  C   UNL     1       4.000   4.552  18.399  0.00  0.00    +0.000 A 
ATOM      6  C   UNL     1       3.550   4.352  19.720  0.00  0.00    +0.000 A 
ATOM      7  C   UNL     1       4.220   5.962  17.946  0.00  0.00    +0.000 C 
ATOM      8  N   UNL     1       5.254   6.357  17.259  0.00  0.00    +0.000 NA
ATOM      9  N   UNL     1       6.113   5.393  16.808  0.00  0.00    +0.000 N 
ATOM     10  C   UNL     1       5.645   4.410  15.939  0.00  0.00    +0.000 C 
ATOM     11  N   UNL     1       4.759   3.508  16.247  0.00  0.00    +0.000 NA
ATOM     12  H   UNL     1       6.992   5.804  16.498  0.00  0.00    +0.000 HD
ENDROOT
BRANCH   7  13
ATOM     13  C   UNL     1       3.234   7.030  18.340  0.00  0.00    +0.000 A 
ATOM     14  C   UNL     1       2.971   8.069  17.433  0.00  0.00    +0.000 A 
ATOM     15  C   UNL     1       2.076   9.090  17.766  0.00  0.00    +0.000 A 
ATOM     16  C   UNL     1       1.437   9.072  19.003  0.00  0.00    +0.000 A 
ATOM     17 CL   UNL     1       0.352  10.338  19.422  0.00  0.00    +0.000 Cl
ATOM     18  C   UNL     1       1.672   8.033  19.904  0.00  0.00    +0.000 A 
ATOM     19  C   UNL     1       2.560   7.005  19.568  0.00  0.00    +0.000 A 
ENDBRANCH   7  13
BRANCH  10  20
ATOM     20  C   UNL     1       6.208   4.399  14.544  0.00  0.00    +0.000 A 
ATOM     21  C   UNL     1       7.314   5.192  14.221  0.00  0.00    +0.000 A 
ATOM     22  C   UNL     1       7.797   5.213  12.910  0.00  0.00    +0.000 A 
ATOM     23  C   UNL     1       7.185   4.439  11.922  0.00  0.00    +0.000 A 
ATOM     24  C   UNL     1       6.102   3.624  12.247  0.00  0.00    +0.000 A 
ATOM     25  C   UNL     1       5.619   3.596  13.555  0.00  0.00    +0.000 A 
ENDBRANCH  10  20
BRANCH   1  26
ATOM     26  O   UNL     1       2.797   2.788  21.440  0.00  0.00    +0.000 OA
BRANCH  26  28
ATOM     27  C   UNL     1       0.757   3.604  20.499  0.00  0.00    +0.000 C 
ATOM     28  C   UNL     1       1.375   2.647  21.502  0.00  0.00    +0.000 C 
ENDBRANCH  26  28
ENDBRANCH   1  26
TORSDOF 4
ENDMDL
MODEL 3
REMARK VINA RESULT:      -9.2      4.147      6.731
REMARK  Name = 
REMARK  5 active torsions:
REMARK  status: ('A' for Active; 'I' for Inactive)
REMARK    1  A    between atoms: C_1  and  C_2
REMARK    2  A    between atoms: C_2  and  O_3
REMARK    3  A    between atoms: O_3  and  C_4
REMARK    4  A    between atoms: C_10  and  C_11
REMARK    5  A    between atoms: C_20  and  C_21
REMARK                            x       y       z     vdW  Elec       q    Type
REMARK                         _______ _______ _______ _____ _____    ______ ____
ROOT
ATOM      1  C   UNL     1      -0.115  10.544  22.409  0.00  0.00    +0.000 A 
ATOM      2  C   UNL     1       0.637   9.499  22.934  0.00  0.00    +0.000 A 
ATOM      3  C   UNL     1       1.220   8.557  22.081  0.00  0.00    +0.000 A 
ATOM      4  C   UNL     1       1.077   8.640  20.690  0.00  0.00    +0.000 A 
ATOM      5  C   UNL     1       0.322   9.705  20.166  0.00  0.00    +0.000 A 
ATOM      6  C   UNL     1      -0.233  10.672  21.028  0.00  0.00    +0.000 A 
ATOM      7  C   UNL     1       0.127   9.894  18.693  0.00  0.00    +0.000 C 
ATOM      8  N   UNL     1       1.065   9.723  17.803  0.00  0.00    +0.000 NA
ATOM      9  N   UNL     1       2.253   9.203  18.237  0.00  0.00    +0.000 N 
ATOM     10  C   UNL     1       2.277   7.935  18.814  0.00  0.00    +0.000 C 
ATOM     11  N   UNL     1       1.704   7.623  19.940  0.00  0.00    +0.000 NA
ATOM     12  H   UNL     1       2.982   9.328  17.536  0.00  0.00    +0.000 HD
ENDROOT
BRANCH   7  13
ATOM     13  C   UNL     1      -1.204  10.367  18.175  0.00  0.00    +0.000 A 
ATOM     14  C   UNL     1      -1.858  11.408  18.854  0.00  0.00    +0.000 A 
ATOM     15  C   UNL     1      -3.105  11.865  18.418  0.00  0.00    +0.000 A 
ATOM     16  C   UNL     1      -3.698  11.288  17.298  0.00  0.00    +0.000 A 
ATOM     17 CL   UNL     1      -5.241  11.836  16.772  0.00  0.00    +0.000 Cl
ATOM     18  C   UNL     1      -3.050  10.269  16.601  0.00  0.00    +0.000 A 
ATOM     19  C   UNL     1      -1.797   9.817  17.031  0.00  0.00    +0.000 A 
ENDBRANCH   7  13
BRANCH  10  20
ATOM     20  C   UNL     1       3.018   6.855  18.075  0.00  0.00    +0.000 A 
ATOM     21  C   UNL     1       2.600   5.522  18.164  0.00  0.00    +0.000 A 
ATOM     22  C   UNL     1       3.327   4.520  17.514  0.00  0.00    +0.000 A 
ATOM     23  C   UNL     1       4.463   4.844  16.771  0.00  0.00    +0.000 A 
ATOM     24  C   UNL     1       4.864   6.174  16.655  0.00  0.00    +0.000 A 
ATOM     25  C   UNL     1       4.140   7.178  17.298  0.00  0.00    +0.000 A 
ENDBRANCH  10  20
BRANCH   1  26
ATOM     26  O   UNL     1      -0.678  11.396  23.319  0.00  0.00    +0.000 OA
BRANCH  26  28
ATOM     27  C   UNL     1      -2.915  12.238  23.353  0.00  0.00    +0.000 C 
ATOM     28  C   UNL     1      -1.527  12.404  22.761  0.00  0.00    +0.000 C 
ENDBRANCH  26  28
ENDBRANCH   1  26
TORSDOF 4
ENDMDL
MODEL 4
REMARK VINA RESULT:      -9.0      1.017      1.121
REMARK  Name = 
REMARK  5 active torsions:
REMARK  status: ('A' for Active; 'I' for Inactive)
REMARK    1  A    between atoms: C_1  and  C_2
REMARK    2  A    between atoms: C_2  and  O_3
REMARK    3  A    between atoms: O_3  and  C_4
REMARK    4  A    between atoms: C_10  and  C_11
REMARK    5  A    between atoms: C_20  and  C_21
REMARK                            x       y       z     vdW  Elec       q    Type
REMARK                         _______ _______ _______ _____ _____    ______ ____
ROOT
ATOM      1  C   UNL     1       1.528   3.198  19.558  0.00  0.00    +0.000 A 
ATOM      2  C   UNL     1       1.739   2.177  18.637  0.00  0.00    +0.000 A 
ATOM      3  C   UNL     1       2.516   2.410  17.498  0.00  0.00    +0.000 A 
ATOM      4  C   UNL     1       3.106   3.658  17.256  0.00  0.00    +0.000 A 
ATOM      5  C   UNL     1       2.895   4.682  18.196  0.00  0.00    +0.000 A 
ATOM      6  C   UNL     1       2.142   4.431  19.360  0.00  0.00    +0.000 A 
ATOM      7  C   UNL     1       3.500   6.043  18.040  0.00  0.00    +0.000 C 
ATOM      8  N   UNL     1       4.717   6.260  17.626  0.00  0.00    +0.000 NA
ATOM      9  N   UNL     1       5.427   5.182  17.176  0.00  0.00    +0.000 N 
ATOM     10  C   UNL     1       4.958   4.459  16.081  0.00  0.00    +0.000 C 
ATOM     11  N   UNL     1       3.856   3.768  16.066  0.00  0.00    +0.000 NA
ATOM     12  H   UNL     1       6.419   5.404  17.103  0.00  0.00    +0.000 HD
ENDROOT
BRANCH   7  13
ATOM     13  C   UNL     1       2.702   7.258  18.429  0.00  0.00    +0.000 A 
ATOM     14  C   UNL     1       2.248   7.368  19.753  0.00  0.00    +0.000 A 
ATOM     15  C   UNL     1       1.488   8.471  20.153  0.00  0.00    +0.000 A 
ATOM     16  C   UNL     1       1.187   9.471  19.233  0.00  0.00    +0.000 A 
ATOM     17 CL   UNL     1       0.236  10.819  19.717  0.00  0.00    +0.000 Cl
ATOM     18  C   UNL     1       1.651   9.387  17.920  0.00  0.00    +0.000 A 
ATOM     19  C   UNL     1       2.419   8.287  17.521  0.00  0.00    +0.000 A 
ENDBRANCH   7  13
BRANCH  10  20
ATOM     20  C   UNL     1       5.790   4.490  14.828  0.00  0.00    +0.000 A 
ATOM     21  C   UNL     1       5.403   3.752  13.704  0.00  0.00    +0.000 A 
ATOM     22  C   UNL     1       6.210   3.747  12.563  0.00  0.00    +0.000 A 
ATOM     23  C   UNL     1       7.397   4.481  12.537  0.00  0.00    +0.000 A 
ATOM     24  C   UNL     1       7.770   5.242  13.644  0.00  0.00    +0.000 A 
ATOM     25  C   UNL     1       6.965   5.254  14.783  0.00  0.00    +0.000 A 
ENDBRANCH  10  20
BRANCH   1  26
ATOM     26  O   UNL     1       0.726   2.891  20.622  0.00  0.00    +0.000 OA
BRANCH  26  28
ATOM     27  C   UNL     1       2.802   2.333  21.667  0.00  0.00    +0.000 C 
ATOM     28  C   UNL     1       1.390   2.843  21.888  0.00  0.00    +0.000 C 
ENDBRANCH  26  28
ENDBRANCH   1  26
TORSDOF 4
ENDMDL
MODEL 5
REMARK VINA RESULT:      -9.0      4.133      6.788
REMARK  Name = 
REMARK  5 active torsions:
REMARK  status: ('A' for Active; 'I' for Inactive)
REMARK    1  A    between atoms: C_1  and  C_2
REMARK    2  A    between atoms: C_2  and  O_3
REMARK    3  A    between atoms: O_3  and  C_4
REMARK    4  A    between atoms: C_10  and  C_11
REMARK    5  A    between atoms: C_20  and  C_21
REMARK                            x       y       z     vdW  Elec       q    Type
REMARK                         _______ _______ _______ _____ _____    ______ ____
ROOT
ATOM      1  C   UNL     1      -0.102  10.525  22.439  0.00  0.00    +0.000 A 
ATOM      2  C   UNL     1       0.649   9.480  22.966  0.00  0.00    +0.000 A 
ATOM      3  C   UNL     1       1.234   8.537  22.114  0.00  0.00    +0.000 A 
ATOM      4  C   UNL     1       1.092   8.620  20.722  0.00  0.00    +0.000 A 
ATOM      5  C   UNL     1       0.338   9.685  20.197  0.00  0.00    +0.000 A 
ATOM      6  C   UNL     1      -0.218  10.652  21.058  0.00  0.00    +0.000 A 
ATOM      7  C   UNL     1       0.146   9.874  18.724  0.00  0.00    +0.000 C 
ATOM      8  N   UNL     1       1.085   9.702  17.836  0.00  0.00    +0.000 NA
ATOM      9  N   UNL     1       2.272   9.182  18.271  0.00  0.00    +0.000 N 
ATOM     10  C   UNL     1       2.295   7.914  18.849  0.00  0.00    +0.000 C 
ATOM     11  N   UNL     1       1.720   7.603  19.974  0.00  0.00    +0.000 NA
ATOM     12  H   UNL     1       3.002   9.307  17.572  0.00  0.00    +0.000 HD
ENDROOT
BRANCH   7  13
ATOM     13  C   UNL     1      -1.185  10.347  18.204  0.00  0.00    +0.000 A 
ATOM     14  C   UNL     1      -1.703   9.751  17.043  0.00  0.00    +0.000 A 
ATOM     15  C   UNL     1      -2.927  10.173  16.516  0.00  0.00    +0.000 A 
ATOM     16  C   UNL     1      -3.640  11.186  17.152  0.00  0.00    +0.000 A 
ATOM     17 CL   UNL     1      -5.136  11.720  16.494  0.00  0.00    +0.000 Cl
ATOM     18  C   UNL     1      -3.148  11.770  18.319  0.00  0.00    +0.000 A 
ATOM     19  C   UNL     1      -1.927  11.343  18.852  0.00  0.00    +0.000 A 
ENDBRANCH   7  13
BRANCH  10  20
ATOM     20  C   UNL     1       3.037   6.834  18.111  0.00  0.00    +0.000 A 
ATOM     21  C   UNL     1       4.152   7.150  17.327  0.00  0.00    +0.000 A 
ATOM     22  C   UNL     1       4.803   6.146  16.605  0.00  0.00    +0.000 A 
ATOM     23  C   UNL     1       4.351   4.827  16.671  0.00  0.00    +0.000 A 
ATOM     24  C   UNL     1       3.260   4.503  17.475  0.00  0.00    +0.000 A 
ATOM     25  C   UNL     1       2.610   5.501  18.201  0.00  0.00    +0.000 A 
ENDBRANCH  10  20
BRANCH   1  26
ATOM     26  O   UNL     1      -0.667  11.377  23.348  0.00  0.00    +0.000 OA
BRANCH  26  28
ATOM     27  C   UNL     1      -2.907  12.211  23.305  0.00  0.00    +0.000 C 
ATOM     28  C   UNL     1      -1.493  12.402  22.787  0.00  0.00    +0.000 C 
ENDBRANCH  26  28
ENDBRANCH   1  26
TORSDOF 4
ENDMDL
MODEL 6
REMARK VINA RESULT:      -8.2      5.174      9.130
REMARK  Name = 
REMARK  5 active torsions:
REMARK  status: ('A' for Active; 'I' for Inactive)
REMARK    1  A    between atoms: C_1  and  C_2
REMARK    2  A    between atoms: C_2  and  O_3
REMARK    3  A    between atoms: O_3  and  C_4
REMARK    4  A    between atoms: C_10  and  C_11
REMARK    5  A    between atoms: C_20  and  C_21
REMARK                            x       y       z     vdW  Elec       q    Type
REMARK                         _______ _______ _______ _____ _____    ______ ____
ROOT
ATOM      1  C   UNL     1      -2.202  10.441  17.874  0.00  0.00    +0.000 A 
ATOM      2  C   UNL     1      -2.491  11.761  18.201  0.00  0.00    +0.000 A 
ATOM      3  C   UNL     1      -1.467  12.626  18.598  0.00  0.00    +0.000 A 
ATOM      4  C   UNL     1      -0.134  12.200  18.668  0.00  0.00    +0.000 A 
ATOM      5  C   UNL     1       0.152  10.866  18.327  0.00  0.00    +0.000 A 
ATOM      6  C   UNL     1      -0.878  10.009  17.893  0.00  0.00    +0.000 A 
ATOM      7  C   UNL     1       1.547  10.320  18.348  0.00  0.00    +0.000 C 
ATOM      8  N   UNL     1       2.594  10.971  17.924  0.00  0.00    +0.000 NA
ATOM      9  N   UNL     1       2.418  12.280  17.572  0.00  0.00    +0.000 N 
ATOM     10  C   UNL     1       1.975  13.194  18.527  0.00  0.00    +0.000 C 
ATOM     11  N   UNL     1       0.804  13.165  19.092  0.00  0.00    +0.000 NA
ATOM     12  H   UNL     1       3.216  12.625  17.041  0.00  0.00    +0.000 HD
ENDROOT
BRANCH   7  13
ATOM     13  C   UNL     1       1.786   8.914  18.829  0.00  0.00    +0.000 A 
ATOM     14  C   UNL     1       1.451   8.591  20.154  0.00  0.00    +0.000 A 
ATOM     15  C   UNL     1       1.673   7.302  20.647  0.00  0.00    +0.000 A 
ATOM     16  C   UNL     1       2.224   6.331  19.816  0.00  0.00    +0.000 A 
ATOM     17 CL   UNL     1       2.516   4.750  20.426  0.00  0.00    +0.000 Cl
ATOM     18  C   UNL     1       2.539   6.631  18.491  0.00  0.00    +0.000 A 
ATOM     19  C   UNL     1       2.309   7.919  17.993  0.00  0.00    +0.000 A 
ENDBRANCH   7  13
BRANCH  10  20
ATOM     20  C   UNL     1       2.928  14.286  18.929  0.00  0.00    +0.000 A 
ATOM     21  C   UNL     1       3.291  15.280  18.014  0.00  0.00    +0.000 A 
ATOM     22  C   UNL     1       4.216  16.261  18.382  0.00  0.00    +0.000 A 
ATOM     23  C   UNL     1       4.772  16.259  19.663  0.00  0.00    +0.000 A 
ATOM     24  C   UNL     1       4.389  15.288  20.587  0.00  0.00    +0.000 A 
ATOM     25  C   UNL     1       3.463  14.310  20.225  0.00  0.00    +0.000 A 
ENDBRANCH  10  20
BRANCH   1  26
ATOM     26  O   UNL     1      -3.270   9.658  17.532  0.00  0.00    +0.000 OA
BRANCH  26  28
ATOM     27  C   UNL     1      -3.250   9.971  15.163  0.00  0.00    +0.000 C 
ATOM     28  C   UNL     1      -4.053  10.143  16.439  0.00  0.00    +0.000 C 
ENDBRANCH  26  28
ENDBRANCH   1  26
TORSDOF 4
ENDMDL
MODEL 7
REMARK VINA RESULT:      -8.1      4.441      7.302
REMARK  Name = 
REMARK  5 active torsions:
REMARK  status: ('A' for Active; 'I' for Inactive)
REMARK    1  A    between atoms: C_1  and  C_2
REMARK    2  A    between atoms: C_2  and  O_3
REMARK    3  A    between atoms: O_3  and  C_4
REMARK    4  A    between atoms: C_10  and  C_11
REMARK    5  A    between atoms: C_20  and  C_21
REMARK                            x       y       z     vdW  Elec       q    Type
REMARK                         _______ _______ _______ _____ _____    ______ ____
ROOT
ATOM      1  C   UNL     1      -0.679  10.962  22.676  0.00  0.00    +0.000 A 
ATOM      2  C   UNL     1       0.006   9.956  23.347  0.00  0.00    +0.000 A 
ATOM      3  C   UNL     1       0.654   8.948  22.626  0.00  0.00    +0.000 A 
ATOM      4  C   UNL     1       0.642   8.926  21.225  0.00  0.00    +0.000 A 
ATOM      5  C   UNL     1      -0.046   9.952  20.554  0.00  0.00    +0.000 A 
ATOM      6  C   UNL     1      -0.666  10.985  21.284  0.00  0.00    +0.000 A 
ATOM      7  C   UNL     1      -0.099  10.030  19.059  0.00  0.00    +0.000 C 
ATOM      8  N   UNL     1       0.915   9.786  18.277  0.00  0.00    +0.000 NA
ATOM      9  N   UNL     1       2.050   9.293  18.858  0.00  0.00    +0.000 N 
ATOM     10  C   UNL     1       2.003   8.072  19.529  0.00  0.00    +0.000 C 
ATOM     11  N   UNL     1       1.323   7.850  20.616  0.00  0.00    +0.000 NA
ATOM     12  H   UNL     1       2.843   9.359  18.222  0.00  0.00    +0.000 HD
ENDROOT
BRANCH   7  13
ATOM     13  C   UNL     1      -1.371  10.470  18.384  0.00  0.00    +0.000 A 
ATOM     14  C   UNL     1      -2.170  11.433  19.020  0.00  0.00    +0.000 A 
ATOM     15  C   UNL     1      -3.368  11.857  18.437  0.00  0.00    +0.000 A 
ATOM     16  C   UNL     1      -3.766  11.325  17.214  0.00  0.00    +0.000 A 
ATOM     17 CL   UNL     1      -5.249  11.830  16.505  0.00  0.00    +0.000 Cl
ATOM     18  C   UNL     1      -2.970  10.384  16.560  0.00  0.00    +0.000 A 
ATOM     19  C   UNL     1      -1.766   9.966  17.138  0.00  0.00    +0.000 A 
ENDBRANCH   7  13
BRANCH  10  20
ATOM     20  C   UNL     1       2.795   6.934  18.947  0.00  0.00    +0.000 A 
ATOM     21  C   UNL     1       3.423   7.072  17.704  0.00  0.00    +0.000 A 
ATOM     22  C   UNL     1       4.114   5.992  17.149  0.00  0.00    +0.000 A 
ATOM     23  C   UNL     1       4.188   4.777  17.833  0.00  0.00    +0.000 A 
ATOM     24  C   UNL     1       3.590   4.646  19.085  0.00  0.00    +0.000 A 
ATOM     25  C   UNL     1       2.903   5.723  19.645  0.00  0.00    +0.000 A 
ENDBRANCH  10  20
BRANCH   1  26
ATOM     26  O   UNL     1      -1.314  11.885  23.462  0.00  0.00    +0.000 OA
BRANCH  26  28
ATOM     27  C   UNL     1      -3.058  13.416  22.893  0.00  0.00    +0.000 C 
ATOM     28  C   UNL     1      -2.727  11.982  23.263  0.00  0.00    +0.000 C 
ENDBRANCH  26  28
ENDBRANCH   1  26
TORSDOF 4
ENDMDL
MODEL 8
REMARK VINA RESULT:      -8.1      5.137      9.124
REMARK  Name = 
REMARK  5 active torsions:
REMARK  status: ('A' for Active; 'I' for Inactive)
REMARK    1  A    between atoms: C_1  and  C_2
REMARK    2  A    between atoms: C_2  and  O_3
REMARK    3  A    between atoms: O_3  and  C_4
REMARK    4  A    between atoms: C_10  and  C_11
REMARK    5  A    between atoms: C_20  and  C_21
REMARK                            x       y       z     vdW  Elec       q    Type
REMARK                         _______ _______ _______ _____ _____    ______ ____
ROOT
ATOM      1  C   UNL     1      -2.143  10.449  17.981  0.00  0.00    +0.000 A 
ATOM      2  C   UNL     1      -2.410  11.764  18.344  0.00  0.00    +0.000 A 
ATOM      3  C   UNL     1      -1.367  12.610  18.734  0.00  0.00    +0.000 A 
ATOM      4  C   UNL     1      -0.037  12.169  18.762  0.00  0.00    +0.000 A 
ATOM      5  C   UNL     1       0.226  10.840  18.386  0.00  0.00    +0.000 A 
ATOM      6  C   UNL     1      -0.824  10.002  17.959  0.00  0.00    +0.000 A 
ATOM      7  C   UNL     1       1.615  10.279  18.362  0.00  0.00    +0.000 C 
ATOM      8  N   UNL     1       2.658  10.928  17.926  0.00  0.00    +0.000 NA
ATOM      9  N   UNL     1       2.488  12.247  17.607  0.00  0.00    +0.000 N 
ATOM     10  C   UNL     1       2.078  13.144  18.592  0.00  0.00    +0.000 C 
ATOM     11  N   UNL     1       0.920  13.115  19.185  0.00  0.00    +0.000 NA
ATOM     12  H   UNL     1       3.277  12.595  17.065  0.00  0.00    +0.000 HD
ENDROOT
BRANCH   7  13
ATOM     13  C   UNL     1       1.850   8.861  18.807  0.00  0.00    +0.000 A 
ATOM     14  C   UNL     1       2.368   7.943  17.880  0.00  0.00    +0.000 A 
ATOM     15  C   UNL     1       2.585   6.612  18.246  0.00  0.00    +0.000 A 
ATOM     16  C   UNL     1       2.290   6.196  19.542  0.00  0.00    +0.000 A 
ATOM     17 CL   UNL     1       2.537   4.554  19.988  0.00  0.00    +0.000 Cl
ATOM     18  C   UNL     1       1.796   7.102  20.480  0.00  0.00    +0.000 A 
ATOM     19  C   UNL     1       1.588   8.438  20.117  0.00  0.00    +0.000 A 
ENDBRANCH   7  13
BRANCH  10  20
ATOM     20  C   UNL     1       3.051  14.218  18.994  0.00  0.00    +0.000 A 
ATOM     21  C   UNL     1       4.187  14.470  18.218  0.00  0.00    +0.000 A 
ATOM     22  C   UNL     1       5.111  15.435  18.629  0.00  0.00    +0.000 A 
ATOM     23  C   UNL     1       4.901  16.154  19.806  0.00  0.00    +0.000 A 
ATOM     24  C   UNL     1       3.755  15.928  20.566  0.00  0.00    +0.000 A 
ATOM     25  C   UNL     1       2.828  14.968  20.158  0.00  0.00    +0.000 A 
ENDBRANCH  10  20
BRANCH   1  26
ATOM     26  O   UNL     1      -3.227   9.684  17.649  0.00  0.00    +0.000 OA
BRANCH  26  28
ATOM     27  C   UNL     1      -3.255   9.970  15.276  0.00  0.00    +0.000 C 
ATOM     28  C   UNL     1      -4.018  10.189  16.570  0.00  0.00    +0.000 C 
ENDBRANCH  26  28
ENDBRANCH   1  26
TORSDOF 4
ENDMDL
MODEL 9
REMARK VINA RESULT:      -8.0      6.134     10.926
REMARK  Name = 
REMARK  5 active torsions:
REMARK  status: ('A' for Active; 'I' for Inactive)
REMARK    1  A    between atoms: C_1  and  C_2
REMARK    2  A    between atoms: C_2  and  O_3
REMARK    3  A    between atoms: O_3  and  C_4
REMARK    4  A    between atoms: C_10  and  C_11
REMARK    5  A    between atoms: C_20  and  C_21
REMARK                            x       y       z     vdW  Elec       q    Type
REMARK                         _______ _______ _______ _____ _____    ______ ____
ROOT
ATOM      1  C   UNL     1      -2.789  10.149  16.656  0.00  0.00    +0.000 A 
ATOM      2  C   UNL     1      -3.881  10.856  17.146  0.00  0.00    +0.000 A 
ATOM      3  C   UNL     1      -3.757  11.620  18.311  0.00  0.00    +0.000 A 
ATOM      4  C   UNL     1      -2.543  11.704  19.006  0.00  0.00    +0.000 A 
ATOM      5  C   UNL     1      -1.441  10.992  18.500  0.00  0.00    +0.000 A 
ATOM      6  C   UNL     1      -1.562  10.253  17.305  0.00  0.00    +0.000 A 
ATOM      7  C   UNL     1      -0.095  11.034  19.156  0.00  0.00    +0.000 C 
ATOM      8  N   UNL     1       0.444  12.113  19.651  0.00  0.00    +0.000 NA
ATOM      9  N   UNL     1      -0.332  13.238  19.694  0.00  0.00    +0.000 N 
ATOM     10  C   UNL     1      -1.509  13.231  20.439  0.00  0.00    +0.000 C 
ATOM     11  N   UNL     1      -2.550  12.497  20.173  0.00  0.00    +0.000 NA
ATOM     12  H   UNL     1       0.237  14.066  19.868  0.00  0.00    +0.000 HD
ENDROOT
BRANCH   7  13
ATOM     13  C   UNL     1       0.740   9.783  19.217  0.00  0.00    +0.000 A 
ATOM     14  C   UNL     1       0.785   9.062  20.420  0.00  0.00    +0.000 A 
ATOM     15  C   UNL     1       1.562   7.906  20.525  0.00  0.00    +0.000 A 
ATOM     16  C   UNL     1       2.291   7.463  19.425  0.00  0.00    +0.000 A 
ATOM     17 CL   UNL     1       3.264   6.051  19.558  0.00  0.00    +0.000 Cl
ATOM     18  C   UNL     1       2.237   8.156  18.216  0.00  0.00    +0.000 A 
ATOM     19  C   UNL     1       1.452   9.309  18.107  0.00  0.00    +0.000 A 
ENDBRANCH   7  13
BRANCH  10  20
ATOM     20  C   UNL     1      -1.573  14.139  21.637  0.00  0.00    +0.000 A 
ATOM     21  C   UNL     1      -1.025  13.736  22.860  0.00  0.00    +0.000 A 
ATOM     22  C   UNL     1      -1.134  14.565  23.979  0.00  0.00    +0.000 A 
ATOM     23  C   UNL     1      -1.781  15.798  23.880  0.00  0.00    +0.000 A 
ATOM     24  C   UNL     1      -2.301  16.217  22.657  0.00  0.00    +0.000 A 
ATOM     25  C   UNL     1      -2.190  15.394  21.536  0.00  0.00    +0.000 A 
ENDBRANCH  10  20
BRANCH   1  26
ATOM     26  O   UNL     1      -3.012   9.400  15.533  0.00  0.00    +0.000 OA
BRANCH  26  28
ATOM     27  C   UNL     1      -2.941   9.690  13.162  0.00  0.00    +0.000 C 
ATOM     28  C   UNL     1      -3.631  10.100  14.450  0.00  0.00    +0.000 C 
ENDBRANCH  26  28
ENDBRANCH   1  26
TORSDOF 4
ENDMDL
