MODEL 1
REMARK VINA RESULT:      -7.3      0.000      0.000
REMARK  Name = 
REMARK  6 active torsions:
REMARK  status: ('A' for Active; 'I' for Inactive)
REMARK    1  A    between atoms: C_1  and  C_2
REMARK    2  A    between atoms: C_4  and  C_5
REMARK    3  A    between atoms: C_10  and  S_11
REMARK    4  A    between atoms: S_11  and  C_12
REMARK    5  A    between atoms: C_12  and  C_13
REMARK    6  A    between atoms: C_13  and  O_15
REMARK                            x       y       z     vdW  Elec       q    Type
REMARK                         _______ _______ _______ _____ _____    ______ ____
ROOT
ATOM      1  C   UNL     1       0.934   7.913  21.322  0.00  0.00    +0.000 C 
ATOM      2  C   UNL     1       1.629   6.831  20.541  0.00  0.00    +0.000 A 
ATOM      3  C   UNL     1       1.389   5.486  20.847  0.00  0.00    +0.000 A 
ATOM      4  C   UNL     1       2.012   4.438  20.147  0.00  0.00    +0.000 A 
ATOM      5  C   UNL     1       1.730   3.009  20.506  0.00  0.00    +0.000 C 
ATOM      6  C   UNL     1       2.893   4.814  19.117  0.00  0.00    +0.000 A 
ATOM      7  N   UNL     1       3.635   4.018  18.269  0.00  0.00    +0.000 N 
ATOM      8  C   UNL     1       4.360   4.787  17.411  0.00  0.00    +0.000 A 
ATOM      9  N   UNL     1       5.176   4.321  16.455  0.00  0.00    +0.000 NA
ATOM     10  C   UNL     1       5.751   5.330  15.778  0.00  0.00    +0.000 A 
ATOM     11  N   UNL     1       5.553   6.660  16.004  0.00  0.00    +0.000 NA
ATOM     12  N   UNL     1       4.725   7.085  16.977  0.00  0.00    +0.000 NA
ATOM     13  C   UNL     1       4.104   6.114  17.700  0.00  0.00    +0.000 A 
ATOM     14  C   UNL     1       3.167   6.146  18.778  0.00  0.00    +0.000 A 
ATOM     15  C   UNL     1       2.517   7.166  19.506  0.00  0.00    +0.000 A 
ATOM     16  H   UNL     1       3.648   3.010  18.272  0.00  0.00    +0.000 HD
ENDROOT
BRANCH  10  17
ATOM     17  S   UNL     1       6.830   4.832  14.454  0.00  0.00    +0.000 S 
BRANCH  17  18
ATOM     18  C   UNL     1       5.782   3.671  13.542  0.00  0.00    +0.000 C 
BRANCH  18  19
ATOM     19  C   UNL     1       6.387   3.272  12.217  0.00  0.00    +0.000 C 
ATOM     20  O   UNL     1       7.190   3.957  11.600  0.00  0.00    +0.000 OA
BRANCH  19  21
ATOM     21  O   UNL     1       5.971   2.071  11.756  0.00  0.00    +0.000 OA
ATOM     22  H   UNL     1       5.212   2.102  11.135  0.00  0.00    +0.000 HD
ENDBRANCH  19  21
ENDBRANCH  18  19
ENDBRANCH  17  18
ENDBRANCH  10  17
TORSDOF 4
ENDMDL
MODEL 2
REMARK VINA RESULT:      -7.2      3.036      4.327
REMARK  Name = 
REMARK  6 active torsions:
REMARK  status: ('A' for Active; 'I' for Inactive)
REMARK    1  A    between atoms: C_1  and  C_2
REMARK    2  A    between atoms: C_4  and  C_5
REMARK    3  A    between atoms: C_10  and  S_11
REMARK    4  A    between atoms: S_11  and  C_12
REMARK    5  A    between atoms: C_12  and  C_13
REMARK    6  A    between atoms: C_13  and  O_15
REMARK                            x       y       z     vdW  Elec       q    Type
REMARK                         _______ _______ _______ _____ _____    ______ ____
ROOT
ATOM      1  C   UNL     1      -0.691  11.960  18.565  0.00  0.00    +0.000 C 
ATOM      2  C   UNL     1      -0.062  10.745  19.191  0.00  0.00    +0.000 A 
ATOM      3  C   UNL     1      -0.410  10.372  20.495  0.00  0.00    +0.000 A 
ATOM      4  C   UNL     1       0.149   9.246  21.125  0.00  0.00    +0.000 A 
ATOM      5  C   UNL     1      -0.248   8.881  22.525  0.00  0.00    +0.000 C 
ATOM      6  C   UNL     1       1.079   8.509  20.370  0.00  0.00    +0.000 A 
ATOM      7  N   UNL     1       1.779   7.371  20.717  0.00  0.00    +0.000 N 
ATOM      8  C   UNL     1       2.579   6.975  19.690  0.00  0.00    +0.000 A 
ATOM      9  N   UNL     1       3.380   5.900  19.703  0.00  0.00    +0.000 NA
ATOM     10  C   UNL     1       4.044   5.779  18.540  0.00  0.00    +0.000 A 
ATOM     11  N   UNL     1       3.941   6.619  17.470  0.00  0.00    +0.000 NA
ATOM     12  N   UNL     1       3.126   7.689  17.500  0.00  0.00    +0.000 NA
ATOM     13  C   UNL     1       2.417   7.869  18.648  0.00  0.00    +0.000 A 
ATOM     14  C   UNL     1       1.460   8.845  19.064  0.00  0.00    +0.000 A 
ATOM     15  C   UNL     1       0.872   9.982  18.470  0.00  0.00    +0.000 A 
ATOM     16  H   UNL     1       1.716   6.891  21.601  0.00  0.00    +0.000 HD
ENDROOT
BRANCH  10  17
ATOM     17  S   UNL     1       5.112   4.362  18.425  0.00  0.00    +0.000 S 
BRANCH  17  18
ATOM     18  C   UNL     1       5.686   4.472  16.711  0.00  0.00    +0.000 C 
BRANCH  18  19
ATOM     19  C   UNL     1       7.122   4.930  16.616  0.00  0.00    +0.000 C 
ATOM     20  O   UNL     1       7.481   5.928  16.009  0.00  0.00    +0.000 OA
BRANCH  19  21
ATOM     21  O   UNL     1       8.001   4.138  17.271  0.00  0.00    +0.000 OA
ATOM     22  H   UNL     1       7.712   3.839  18.160  0.00  0.00    +0.000 HD
ENDBRANCH  19  21
ENDBRANCH  18  19
ENDBRANCH  17  18
ENDBRANCH  10  17
TORSDOF 4
ENDMDL
MODEL 3
REMARK VINA RESULT:      -7.1      5.735      7.847
REMARK  Name = 
REMARK  6 active torsions:
REMARK  status: ('A' for Active; 'I' for Inactive)
REMARK    1  A    between atoms: C_1  and  C_2
REMARK    2  A    between atoms: C_4  and  C_5
REMARK    3  A    between atoms: C_10  and  S_11
REMARK    4  A    between atoms: S_11  and  C_12
REMARK    5  A    between atoms: C_12  and  C_13
REMARK    6  A    between atoms: C_13  and  O_15
REMARK                            x       y       z     vdW  Elec       q    Type
REMARK                         _______ _______ _______ _____ _____    ______ ____
ROOT
ATOM      1  C   UNL     1       6.167   4.579  15.146  0.00  0.00    +0.000 C 
ATOM      2  C   UNL     1       5.312   4.863  16.351  0.00  0.00    +0.000 A 
ATOM      3  C   UNL     1       5.198   3.906  17.367  0.00  0.00    +0.000 A 
ATOM      4  C   UNL     1       4.412   4.122  18.512  0.00  0.00    +0.000 A 
ATOM      5  C   UNL     1       4.314   3.070  19.578  0.00  0.00    +0.000 C 
ATOM      6  C   UNL     1       3.745   5.357  18.586  0.00  0.00    +0.000 A 
ATOM      7  N   UNL     1       2.917   5.846  19.576  0.00  0.00    +0.000 N 
ATOM      8  C   UNL     1       2.478   7.093  19.254  0.00  0.00    +0.000 A 
ATOM      9  N   UNL     1       1.667   7.847  20.010  0.00  0.00    +0.000 NA
ATOM     10  C   UNL     1       1.412   9.026  19.417  0.00  0.00    +0.000 A 
ATOM     11  N   UNL     1       1.898   9.435  18.209  0.00  0.00    +0.000 NA
ATOM     12  N   UNL     1       2.708   8.644  17.481  0.00  0.00    +0.000 NA
ATOM     13  C   UNL     1       3.012   7.435  18.026  0.00  0.00    +0.000 A 
ATOM     14  C   UNL     1       3.827   6.344  17.593  0.00  0.00    +0.000 A 
ATOM     15  C   UNL     1       4.628   6.085  16.460  0.00  0.00    +0.000 A 
ATOM     16  H   UNL     1       2.666   5.360  20.423  0.00  0.00    +0.000 HD
ENDROOT
BRANCH  10  17
ATOM     17  S   UNL     1       0.374  10.131  20.347  0.00  0.00    +0.000 S 
BRANCH  17  18
ATOM     18  C   UNL     1      -0.220   9.049  21.672  0.00  0.00    +0.000 C 
BRANCH  18  19
ATOM     19  C   UNL     1      -0.256   9.749  23.009  0.00  0.00    +0.000 C 
ATOM     20  O   UNL     1       0.594   9.607  23.876  0.00  0.00    +0.000 OA
BRANCH  19  21
ATOM     21  O   UNL     1      -1.320  10.567  23.179  0.00  0.00    +0.000 OA
ATOM     22  H   UNL     1      -1.750  10.870  22.351  0.00  0.00    +0.000 HD
ENDBRANCH  19  21
ENDBRANCH  18  19
ENDBRANCH  17  18
ENDBRANCH  10  17
TORSDOF 4
ENDMDL
MODEL 4
REMARK VINA RESULT:      -7.0      2.328      3.971
REMARK  Name = 
REMARK  6 active torsions:
REMARK  status: ('A' for Active; 'I' for Inactive)
REMARK    1  A    between atoms: C_1  and  C_2
REMARK    2  A    between atoms: C_4  and  C_5
REMARK    3  A    between atoms: C_10  and  S_11
REMARK    4  A    between atoms: S_11  and  C_12
REMARK    5  A    between atoms: C_12  and  C_13
REMARK    6  A    between atoms: C_13  and  O_15
REMARK                            x       y       z     vdW  Elec       q    Type
REMARK                         _______ _______ _______ _____ _____    ______ ____
ROOT
ATOM      1  C   UNL     1      -0.311   9.335  22.769  0.00  0.00    +0.000 C 
ATOM      2  C   UNL     1       0.447   9.066  21.498  0.00  0.00    +0.000 A 
ATOM      3  C   UNL     1       0.505  10.046  20.500  0.00  0.00    +0.000 A 
ATOM      4  C   UNL     1       1.200   9.845  19.294  0.00  0.00    +0.000 A 
ATOM      5  C   UNL     1       1.237  10.920  18.248  0.00  0.00    +0.000 C 
ATOM      6  C   UNL     1       1.838   8.601  19.144  0.00  0.00    +0.000 A 
ATOM      7  N   UNL     1       2.587   8.126  18.087  0.00  0.00    +0.000 N 
ATOM      8  C   UNL     1       3.028   6.865  18.347  0.00  0.00    +0.000 A 
ATOM      9  N   UNL     1       3.789   6.126  17.526  0.00  0.00    +0.000 NA
ATOM     10  C   UNL     1       4.053   4.924  18.067  0.00  0.00    +0.000 A 
ATOM     11  N   UNL     1       3.623   4.482  19.283  0.00  0.00    +0.000 NA
ATOM     12  N   UNL     1       2.858   5.256  20.075  0.00  0.00    +0.000 NA
ATOM     13  C   UNL     1       2.556   6.491  19.591  0.00  0.00    +0.000 A 
ATOM     14  C   UNL     1       1.805   7.589  20.113  0.00  0.00    +0.000 A 
ATOM     15  C   UNL     1       1.097   7.835  21.309  0.00  0.00    +0.000 A 
ATOM     16  H   UNL     1       2.788   8.630  17.237  0.00  0.00    +0.000 HD
ENDROOT
BRANCH  10  17
ATOM     17  S   UNL     1       5.091   3.866  17.082  0.00  0.00    +0.000 S 
BRANCH  17  18
ATOM     18  C   UNL     1       5.551   4.966  15.720  0.00  0.00    +0.000 C 
BRANCH  18  19
ATOM     19  C   UNL     1       7.043   5.005  15.493  0.00  0.00    +0.000 C 
ATOM     20  O   UNL     1       7.569   5.466  14.491  0.00  0.00    +0.000 OA
BRANCH  19  21
ATOM     21  O   UNL     1       7.772   4.484  16.507  0.00  0.00    +0.000 OA
ATOM     22  H   UNL     1       7.253   4.196  17.289  0.00  0.00    +0.000 HD
ENDBRANCH  19  21
ENDBRANCH  18  19
ENDBRANCH  17  18
ENDBRANCH  10  17
TORSDOF 4
ENDMDL
MODEL 5
REMARK VINA RESULT:      -7.0      3.713      4.978
REMARK  Name = 
REMARK  6 active torsions:
REMARK  status: ('A' for Active; 'I' for Inactive)
REMARK    1  A    between atoms: C_1  and  C_2
REMARK    2  A    between atoms: C_4  and  C_5
REMARK    3  A    between atoms: C_10  and  S_11
REMARK    4  A    between atoms: S_11  and  C_12
REMARK    5  A    between atoms: C_12  and  C_13
REMARK    6  A    between atoms: C_13  and  O_15
REMARK                            x       y       z     vdW  Elec       q    Type
REMARK                         _______ _______ _______ _____ _____    ______ ____
ROOT
ATOM      1  C   UNL     1      -0.679  11.949  18.469  0.00  0.00    +0.000 C 
ATOM      2  C   UNL     1      -0.054  10.747  19.123  0.00  0.00    +0.000 A 
ATOM      3  C   UNL     1      -0.408  10.403  20.434  0.00  0.00    +0.000 A 
ATOM      4  C   UNL     1       0.145   9.290  21.090  0.00  0.00    +0.000 A 
ATOM      5  C   UNL     1      -0.258   8.956  22.496  0.00  0.00    +0.000 C 
ATOM      6  C   UNL     1       1.077   8.534  20.356  0.00  0.00    +0.000 A 
ATOM      7  N   UNL     1       1.773   7.403  20.730  0.00  0.00    +0.000 N 
ATOM      8  C   UNL     1       2.576   6.983  19.715  0.00  0.00    +0.000 A 
ATOM      9  N   UNL     1       3.375   5.907  19.754  0.00  0.00    +0.000 NA
ATOM     10  C   UNL     1       4.044   5.760  18.597  0.00  0.00    +0.000 A 
ATOM     11  N   UNL     1       3.947   6.576  17.509  0.00  0.00    +0.000 NA
ATOM     12  N   UNL     1       3.134   7.649  17.512  0.00  0.00    +0.000 NA
ATOM     13  C   UNL     1       2.421   7.855  18.653  0.00  0.00    +0.000 A 
ATOM     14  C   UNL     1       1.464   8.841  19.044  0.00  0.00    +0.000 A 
ATOM     15  C   UNL     1       0.881   9.967  18.423  0.00  0.00    +0.000 A 
ATOM     16  H   UNL     1       1.705   6.942  21.624  0.00  0.00    +0.000 HD
ENDROOT
BRANCH  10  17
ATOM     17  S   UNL     1       5.109   4.338  18.517  0.00  0.00    +0.000 S 
BRANCH  17  18
ATOM     18  C   UNL     1       6.622   5.051  17.824  0.00  0.00    +0.000 C 
BRANCH  18  19
ATOM     19  C   UNL     1       7.407   5.835  18.848  0.00  0.00    +0.000 C 
ATOM     20  O   UNL     1       8.063   6.834  18.587  0.00  0.00    +0.000 OA
BRANCH  19  21
ATOM     21  O   UNL     1       7.326   5.343  20.105  0.00  0.00    +0.000 OA
ATOM     22  H   UNL     1       7.661   4.427  20.217  0.00  0.00    +0.000 HD
ENDBRANCH  19  21
ENDBRANCH  18  19
ENDBRANCH  17  18
ENDBRANCH  10  17
TORSDOF 4
ENDMDL
MODEL 6
REMARK VINA RESULT:      -6.8      1.003      1.296
REMARK  Name = 
REMARK  6 active torsions:
REMARK  status: ('A' for Active; 'I' for Inactive)
REMARK    1  A    between atoms: C_1  and  C_2
REMARK    2  A    between atoms: C_4  and  C_5
REMARK    3  A    between atoms: C_10  and  S_11
REMARK    4  A    between atoms: S_11  and  C_12
REMARK    5  A    between atoms: C_12  and  C_13
REMARK    6  A    between atoms: C_13  and  O_15
REMARK                            x       y       z     vdW  Elec       q    Type
REMARK                         _______ _______ _______ _____ _____    ______ ____
ROOT
ATOM      1  C   UNL     1       1.695   7.995  20.396  0.00  0.00    +0.000 C 
ATOM      2  C   UNL     1       2.286   6.819  19.669  0.00  0.00    +0.000 A 
ATOM      3  C   UNL     1       1.987   5.517  20.089  0.00  0.00    +0.000 A 
ATOM      4  C   UNL     1       2.513   4.384  19.445  0.00  0.00    +0.000 A 
ATOM      5  C   UNL     1       2.170   3.005  19.927  0.00  0.00    +0.000 C 
ATOM      6  C   UNL     1       3.359   4.628  18.348  0.00  0.00    +0.000 A 
ATOM      7  N   UNL     1       4.010   3.728  17.530  0.00  0.00    +0.000 N 
ATOM      8  C   UNL     1       4.731   4.385  16.581  0.00  0.00    +0.000 A 
ATOM      9  N   UNL     1       5.470   3.801  15.626  0.00  0.00    +0.000 NA
ATOM     10  C   UNL     1       6.064   4.720  14.846  0.00  0.00    +0.000 A 
ATOM     11  N   UNL     1       5.953   6.073  14.977  0.00  0.00    +0.000 NA
ATOM     12  N   UNL     1       5.202   6.618  15.952  0.00  0.00    +0.000 NA
ATOM     13  C   UNL     1       4.566   5.743  16.778  0.00  0.00    +0.000 A 
ATOM     14  C   UNL     1       3.689   5.912  17.893  0.00  0.00    +0.000 A 
ATOM     15  C   UNL     1       3.137   7.021  18.569  0.00  0.00    +0.000 A 
ATOM     16  H   UNL     1       3.967   2.724  17.611  0.00  0.00    +0.000 HD
ENDROOT
BRANCH  10  17
ATOM     17  S   UNL     1       7.043   4.060  13.515  0.00  0.00    +0.000 S 
BRANCH  17  18
ATOM     18  C   UNL     1       5.767   3.412  12.406  0.00  0.00    +0.000 C 
BRANCH  18  19
ATOM     19  C   UNL     1       6.233   2.190  11.651  0.00  0.00    +0.000 C 
ATOM     20  O   UNL     1       5.487   1.300  11.267  0.00  0.00    +0.000 OA
BRANCH  19  21
ATOM     21  O   UNL     1       7.565   2.154  11.420  0.00  0.00    +0.000 OA
ATOM     22  H   UNL     1       8.088   1.640  12.073  0.00  0.00    +0.000 HD
ENDBRANCH  19  21
ENDBRANCH  18  19
ENDBRANCH  17  18
ENDBRANCH  10  17
TORSDOF 4
ENDMDL
MODEL 7
REMARK VINA RESULT:      -6.8      5.505      7.264
REMARK  Name = 
REMARK  6 active torsions:
REMARK  status: ('A' for Active; 'I' for Inactive)
REMARK    1  A    between atoms: C_1  and  C_2
REMARK    2  A    between atoms: C_4  and  C_5
REMARK    3  A    between atoms: C_10  and  S_11
REMARK    4  A    between atoms: S_11  and  C_12
REMARK    5  A    between atoms: C_12  and  C_13
REMARK    6  A    between atoms: C_13  and  O_15
REMARK                            x       y       z     vdW  Elec       q    Type
REMARK                         _______ _______ _______ _____ _____    ______ ____
ROOT
ATOM      1  C   UNL     1       4.590   3.548  17.002  0.00  0.00    +0.000 C 
ATOM      2  C   UNL     1       3.838   4.421  17.969  0.00  0.00    +0.000 A 
ATOM      3  C   UNL     1       3.468   3.917  19.222  0.00  0.00    +0.000 A 
ATOM      4  C   UNL     1       2.765   4.692  20.161  0.00  0.00    +0.000 A 
ATOM      5  C   UNL     1       2.385   4.115  21.493  0.00  0.00    +0.000 C 
ATOM      6  C   UNL     1       2.453   6.007  19.775  0.00  0.00    +0.000 A 
ATOM      7  N   UNL     1       1.783   6.988  20.476  0.00  0.00    +0.000 N 
ATOM      8  C   UNL     1       1.695   8.126  19.735  0.00  0.00    +0.000 A 
ATOM      9  N   UNL     1       1.113   9.267  20.132  0.00  0.00    +0.000 NA
ATOM     10  C   UNL     1       1.186  10.205  19.173  0.00  0.00    +0.000 A 
ATOM     11  N   UNL     1       1.768  10.054  17.948  0.00  0.00    +0.000 NA
ATOM     12  N   UNL     1       2.339   8.890  17.588  0.00  0.00    +0.000 NA
ATOM     13  C   UNL     1       2.306   7.895  18.517  0.00  0.00    +0.000 A 
ATOM     14  C   UNL     1       2.800   6.554  18.531  0.00  0.00    +0.000 A 
ATOM     15  C   UNL     1       3.507   5.741  17.619  0.00  0.00    +0.000 A 
ATOM     16  H   UNL     1       1.408   6.891  21.407  0.00  0.00    +0.000 HD
ENDROOT
BRANCH  10  17
ATOM     17  S   UNL     1       0.479  11.780  19.602  0.00  0.00    +0.000 S 
BRANCH  17  18
ATOM     18  C   UNL     1       1.953  12.823  19.729  0.00  0.00    +0.000 C 
BRANCH  18  19
ATOM     19  C   UNL     1       2.191  13.633  18.477  0.00  0.00    +0.000 C 
ATOM     20  O   UNL     1       2.235  14.855  18.453  0.00  0.00    +0.000 OA
BRANCH  19  21
ATOM     21  O   UNL     1       2.361  12.890  17.360  0.00  0.00    +0.000 OA
ATOM     22  H   UNL     1       2.133  13.343  16.519  0.00  0.00    +0.000 HD
ENDBRANCH  19  21
ENDBRANCH  18  19
ENDBRANCH  17  18
ENDBRANCH  10  17
TORSDOF 4
ENDMDL
MODEL 8
REMARK VINA RESULT:      -6.7      5.631      7.421
REMARK  Name = 
REMARK  6 active torsions:
REMARK  status: ('A' for Active; 'I' for Inactive)
REMARK    1  A    between atoms: C_1  and  C_2
REMARK    2  A    between atoms: C_4  and  C_5
REMARK    3  A    between atoms: C_10  and  S_11
REMARK    4  A    between atoms: S_11  and  C_12
REMARK    5  A    between atoms: C_12  and  C_13
REMARK    6  A    between atoms: C_13  and  O_15
REMARK                            x       y       z     vdW  Elec       q    Type
REMARK                         _______ _______ _______ _____ _____    ______ ____
ROOT
ATOM      1  C   UNL     1       4.291   3.207  17.027  0.00  0.00    +0.000 C 
ATOM      2  C   UNL     1       3.614   4.050  18.072  0.00  0.00    +0.000 A 
ATOM      3  C   UNL     1       3.299   3.496  19.319  0.00  0.00    +0.000 A 
ATOM      4  C   UNL     1       2.667   4.241  20.330  0.00  0.00    +0.000 A 
ATOM      5  C   UNL     1       2.344   3.611  21.652  0.00  0.00    +0.000 C 
ATOM      6  C   UNL     1       2.368   5.581  20.022  0.00  0.00    +0.000 A 
ATOM      7  N   UNL     1       1.762   6.542  20.803  0.00  0.00    +0.000 N 
ATOM      8  C   UNL     1       1.663   7.715  20.120  0.00  0.00    +0.000 A 
ATOM      9  N   UNL     1       1.132   8.849  20.601  0.00  0.00    +0.000 NA
ATOM     10  C   UNL     1       1.177   9.830  19.683  0.00  0.00    +0.000 A 
ATOM     11  N   UNL     1       1.688   9.723  18.423  0.00  0.00    +0.000 NA
ATOM     12  N   UNL     1       2.210   8.564  17.979  0.00  0.00    +0.000 NA
ATOM     13  C   UNL     1       2.201   7.528  18.862  0.00  0.00    +0.000 A 
ATOM     14  C   UNL     1       2.661   6.177  18.788  0.00  0.00    +0.000 A 
ATOM     15  C   UNL     1       3.298   5.392  17.802  0.00  0.00    +0.000 A 
ATOM     16  H   UNL     1       1.435   6.410  21.748  0.00  0.00    +0.000 HD
ENDROOT
BRANCH  10  17
ATOM     17  S   UNL     1       0.534  11.398  20.222  0.00  0.00    +0.000 S 
BRANCH  17  18
ATOM     18  C   UNL     1      -1.006  11.509  19.276  0.00  0.00    +0.000 C 
BRANCH  18  19
ATOM     19  C   UNL     1      -0.930  12.543  18.179  0.00  0.00    +0.000 C 
ATOM     20  O   UNL     1      -0.239  13.551  18.237  0.00  0.00    +0.000 OA
BRANCH  19  21
ATOM     21  O   UNL     1      -1.696  12.265  17.099  0.00  0.00    +0.000 OA
ATOM     22  H   UNL     1      -2.616  11.989  17.300  0.00  0.00    +0.000 HD
ENDBRANCH  19  21
ENDBRANCH  18  19
ENDBRANCH  17  18
ENDBRANCH  10  17
TORSDOF 4
ENDMDL
MODEL 9
REMARK VINA RESULT:      -6.7      5.621      7.616
REMARK  Name = 
REMARK  6 active torsions:
REMARK  status: ('A' for Active; 'I' for Inactive)
REMARK    1  A    between atoms: C_1  and  C_2
REMARK    2  A    between atoms: C_4  and  C_5
REMARK    3  A    between atoms: C_10  and  S_11
REMARK    4  A    between atoms: S_11  and  C_12
REMARK    5  A    between atoms: C_12  and  C_13
REMARK    6  A    between atoms: C_13  and  O_15
REMARK                            x       y       z     vdW  Elec       q    Type
REMARK                         _______ _______ _______ _____ _____    ______ ____
ROOT
ATOM      1  C   UNL     1       6.337   5.069  15.091  0.00  0.00    +0.000 C 
ATOM      2  C   UNL     1       5.444   5.324  16.275  0.00  0.00    +0.000 A 
ATOM      3  C   UNL     1       5.363   4.377  17.304  0.00  0.00    +0.000 A 
ATOM      4  C   UNL     1       4.545   4.567  18.431  0.00  0.00    +0.000 A 
ATOM      5  C   UNL     1       4.483   3.529  19.512  0.00  0.00    +0.000 C 
ATOM      6  C   UNL     1       3.811   5.766  18.472  0.00  0.00    +0.000 A 
ATOM      7  N   UNL     1       2.939   6.224  19.439  0.00  0.00    +0.000 N 
ATOM      8  C   UNL     1       2.439   7.440  19.090  0.00  0.00    +0.000 A 
ATOM      9  N   UNL     1       1.574   8.160  19.818  0.00  0.00    +0.000 NA
ATOM     10  C   UNL     1       1.268   9.314  19.201  0.00  0.00    +0.000 A 
ATOM     11  N   UNL     1       1.753   9.730  17.996  0.00  0.00    +0.000 NA
ATOM     12  N   UNL     1       2.619   8.975  17.296  0.00  0.00    +0.000 NA
ATOM     13  C   UNL     1       2.977   7.792  17.866  0.00  0.00    +0.000 A 
ATOM     14  C   UNL     1       3.858   6.740  17.466  0.00  0.00    +0.000 A 
ATOM     15  C   UNL     1       4.694   6.509  16.352  0.00  0.00    +0.000 A 
ATOM     16  H   UNL     1       2.699   5.738  20.289  0.00  0.00    +0.000 HD
ENDROOT
BRANCH  10  17
ATOM     17  S   UNL     1       0.154  10.375  20.095  0.00  0.00    +0.000 S 
BRANCH  17  18
ATOM     18  C   UNL     1      -1.175  10.613  18.888  0.00  0.00    +0.000 C 
BRANCH  18  19
ATOM     19  C   UNL     1      -1.518  12.071  18.694  0.00  0.00    +0.000 C 
ATOM     20  O   UNL     1      -1.988  12.783  19.570  0.00  0.00    +0.000 OA
BRANCH  19  21
ATOM     21  O   UNL     1      -1.257  12.542  17.454  0.00  0.00    +0.000 OA
ATOM     22  H   UNL     1      -0.432  13.067  17.372  0.00  0.00    +0.000 HD
ENDBRANCH  19  21
ENDBRANCH  18  19
ENDBRANCH  17  18
ENDBRANCH  10  17
TORSDOF 4
ENDMDL
