MODEL 1
REMARK VINA RESULT:      -7.6      0.000      0.000
REMARK  Name = 
REMARK  4 active torsions:
REMARK  status: ('A' for Active; 'I' for Inactive)
REMARK    1  A    between atoms: C_7  and  C_8
REMARK    2  A    between atoms: N_9  and  N_10
REMARK    3  A    between atoms: N_13  and  C_14
REMARK    4  A    between atoms: C_14  and  C_15
REMARK                            x       y       z     vdW  Elec       q    Type
REMARK                         _______ _______ _______ _____ _____    ______ ____
ROOT
ATOM      1  N   UNL     1       7.583   7.716  17.951  0.00  0.00    +0.000 N 
ATOM      2  C   UNL     1       6.229   7.708  17.441  0.00  0.00    +0.000 C 
ATOM      3  C   UNL     1       5.962   6.367  16.727  0.00  0.00    +0.000 C 
ATOM      4  N   UNL     1       6.261   5.212  17.610  0.00  0.00    +0.000 NA
ATOM      5  C   UNL     1       7.681   5.275  18.050  0.00  0.00    +0.000 C 
ATOM      6  C   UNL     1       7.999   6.592  18.783  0.00  0.00    +0.000 C 
ENDROOT
BRANCH   1   8
ATOM      7  C   UNL     1       8.602   9.739  18.637  0.00  0.00    +0.000 C 
ATOM      8  N   UNL     1       8.374   8.833  17.752  0.00  0.00    +0.000 NA
BRANCH   7  15
ATOM      9  F   UNL     1       7.668  12.147  17.283  0.00  0.00    +0.000 F 
ATOM     10  C   UNL     1       8.975  12.044  17.630  0.00  0.00    +0.000 A 
ATOM     11  C   UNL     1       9.837  13.104  17.317  0.00  0.00    +0.000 A 
ATOM     12  C   UNL     1      11.188  13.038  17.664  0.00  0.00    +0.000 A 
ATOM     13  C   UNL     1      11.679  11.921  18.343  0.00  0.00    +0.000 A 
ATOM     14  C   UNL     1      10.821  10.865  18.673  0.00  0.00    +0.000 A 
ATOM     15  C   UNL     1       9.466  10.904  18.309  0.00  0.00    +0.000 A 
ENDBRANCH   7  15
ENDBRANCH   1   8
BRANCH   4  16
ATOM     16  C   UNL     1       5.318   5.073  18.755  0.00  0.00    +0.000 C 
BRANCH  16  17
ATOM     17  C   UNL     1       4.052   4.327  18.378  0.00  0.00    +0.000 A 
ATOM     18  C   UNL     1       4.087   2.923  18.316  0.00  0.00    +0.000 A 
ATOM     19  C   UNL     1       2.932   2.196  18.011  0.00  0.00    +0.000 A 
ATOM     20  C   UNL     1       1.732   2.857  17.757  0.00  0.00    +0.000 A 
ATOM     21  C   UNL     1       1.679   4.250  17.807  0.00  0.00    +0.000 A 
ATOM     22  C   UNL     1       2.827   4.992  18.118  0.00  0.00    +0.000 A 
ATOM     23 CL   UNL     1       2.664   6.746  18.171  0.00  0.00    +0.000 Cl
ENDBRANCH  16  17
ENDBRANCH   4  16
TORSDOF 4
ENDMDL
MODEL 2
REMARK VINA RESULT:      -7.6      5.095      7.423
REMARK  Name = 
REMARK  4 active torsions:
REMARK  status: ('A' for Active; 'I' for Inactive)
REMARK    1  A    between atoms: C_7  and  C_8
REMARK    2  A    between atoms: N_9  and  N_10
REMARK    3  A    between atoms: N_13  and  C_14
REMARK    4  A    between atoms: C_14  and  C_15
REMARK                            x       y       z     vdW  Elec       q    Type
REMARK                         _______ _______ _______ _____ _____    ______ ____
ROOT
ATOM      1  N   UNL     1       2.044   6.370  20.194  0.00  0.00    +0.000 N 
ATOM      2  C   UNL     1       2.048   5.027  20.733  0.00  0.00    +0.000 C 
ATOM      3  C   UNL     1       1.827   4.019  19.586  0.00  0.00    +0.000 C 
ATOM      4  N   UNL     1       2.811   4.213  18.493  0.00  0.00    +0.000 NA
ATOM      5  C   UNL     1       2.708   5.601  17.970  0.00  0.00    +0.000 C 
ATOM      6  C   UNL     1       2.936   6.652  19.073  0.00  0.00    +0.000 C 
ENDROOT
BRANCH   1   8
ATOM      7  C   UNL     1       1.371   8.610  20.559  0.00  0.00    +0.000 C 
ATOM      8  N   UNL     1       1.316   7.354  20.837  0.00  0.00    +0.000 NA
BRANCH   7  15
ATOM      9  F   UNL     1       0.988  11.398  19.795  0.00  0.00    +0.000 F 
ATOM     10  C   UNL     1       0.404  10.933  20.927  0.00  0.00    +0.000 A 
ATOM     11  C   UNL     1      -0.362  11.817  21.698  0.00  0.00    +0.000 A 
ATOM     12  C   UNL     1      -0.985  11.373  22.867  0.00  0.00    +0.000 A 
ATOM     13  C   UNL     1      -0.859  10.040  23.260  0.00  0.00    +0.000 A 
ATOM     14  C   UNL     1      -0.108   9.146  22.487  0.00  0.00    +0.000 A 
ATOM     15  C   UNL     1       0.545   9.581  21.323  0.00  0.00    +0.000 A 
ENDBRANCH   7  15
ENDBRANCH   1   8
BRANCH   4  16
ATOM     16  C   UNL     1       4.206   3.852  18.872  0.00  0.00    +0.000 C 
BRANCH  16  17
ATOM     17  C   UNL     1       5.198   4.113  17.754  0.00  0.00    +0.000 A 
ATOM     18  C   UNL     1       4.905   3.638  16.464  0.00  0.00    +0.000 A 
ATOM     19  C   UNL     1       5.773   3.891  15.398  0.00  0.00    +0.000 A 
ATOM     20  C   UNL     1       6.947   4.613  15.605  0.00  0.00    +0.000 A 
ATOM     21  C   UNL     1       7.258   5.088  16.879  0.00  0.00    +0.000 A 
ATOM     22  C   UNL     1       6.394   4.847  17.956  0.00  0.00    +0.000 A 
ATOM     23 CL   UNL     1       6.863   5.494  19.526  0.00  0.00    +0.000 Cl
ENDBRANCH  16  17
ENDBRANCH   4  16
TORSDOF 4
ENDMDL
MODEL 3
REMARK VINA RESULT:      -7.2      5.400      7.734
REMARK  Name = 
REMARK  4 active torsions:
REMARK  status: ('A' for Active; 'I' for Inactive)
REMARK    1  A    between atoms: C_7  and  C_8
REMARK    2  A    between atoms: N_9  and  N_10
REMARK    3  A    between atoms: N_13  and  C_14
REMARK    4  A    between atoms: C_14  and  C_15
REMARK                            x       y       z     vdW  Elec       q    Type
REMARK                         _______ _______ _______ _____ _____    ______ ____
ROOT
ATOM      1  N   UNL     1       2.055   7.076  19.756  0.00  0.00    +0.000 N 
ATOM      2  C   UNL     1       2.076   5.916  20.621  0.00  0.00    +0.000 C 
ATOM      3  C   UNL     1       1.872   4.644  19.771  0.00  0.00    +0.000 C 
ATOM      4  N   UNL     1       2.856   4.566  18.664  0.00  0.00    +0.000 NA
ATOM      5  C   UNL     1       2.736   5.773  17.803  0.00  0.00    +0.000 C 
ATOM      6  C   UNL     1       2.946   7.074  18.600  0.00  0.00    +0.000 C 
ENDROOT
BRANCH   1   8
ATOM      7  C   UNL     1       0.873   8.408  21.315  0.00  0.00    +0.000 C 
ATOM      8  N   UNL     1       1.311   8.181  20.126  0.00  0.00    +0.000 NA
BRANCH   7  15
ATOM      9  F   UNL     1       0.020   9.234  23.979  0.00  0.00    +0.000 F 
ATOM     10  C   UNL     1      -0.336   9.982  22.905  0.00  0.00    +0.000 A 
ATOM     11  C   UNL     1      -1.113  11.130  23.115  0.00  0.00    +0.000 A 
ATOM     12  C   UNL     1      -1.493  11.929  22.035  0.00  0.00    +0.000 A 
ATOM     13  C   UNL     1      -1.084  11.594  20.743  0.00  0.00    +0.000 A 
ATOM     14  C   UNL     1      -0.295  10.459  20.526  0.00  0.00    +0.000 A 
ATOM     15  C   UNL     1       0.076   9.630  21.597  0.00  0.00    +0.000 A 
ENDBRANCH   7  15
ENDBRANCH   1   8
BRANCH   4  16
ATOM     16  C   UNL     1       4.255   4.334  19.122  0.00  0.00    +0.000 C 
BRANCH  16  17
ATOM     17  C   UNL     1       5.248   4.323  17.974  0.00  0.00    +0.000 A 
ATOM     18  C   UNL     1       4.855   3.768  16.744  0.00  0.00    +0.000 A 
ATOM     19  C   UNL     1       5.726   3.774  15.650  0.00  0.00    +0.000 A 
ATOM     20  C   UNL     1       7.000   4.327  15.770  0.00  0.00    +0.000 A 
ATOM     21  C   UNL     1       7.410   4.877  16.984  0.00  0.00    +0.000 A 
ATOM     22  C   UNL     1       6.546   4.884  18.088  0.00  0.00    +0.000 A 
ATOM     23 CL   UNL     1       7.144   5.610  19.577  0.00  0.00    +0.000 Cl
ENDBRANCH  16  17
ENDBRANCH   4  16
TORSDOF 4
ENDMDL
MODEL 4
REMARK VINA RESULT:      -7.0      1.183      1.375
REMARK  Name = 
REMARK  4 active torsions:
REMARK  status: ('A' for Active; 'I' for Inactive)
REMARK    1  A    between atoms: C_7  and  C_8
REMARK    2  A    between atoms: N_9  and  N_10
REMARK    3  A    between atoms: N_13  and  C_14
REMARK    4  A    between atoms: C_14  and  C_15
REMARK                            x       y       z     vdW  Elec       q    Type
REMARK                         _______ _______ _______ _____ _____    ______ ____
ROOT
ATOM      1  N   UNL     1       7.769   7.822  18.226  0.00  0.00    +0.000 N 
ATOM      2  C   UNL     1       6.423   7.912  17.701  0.00  0.00    +0.000 C 
ATOM      3  C   UNL     1       6.117   6.650  16.869  0.00  0.00    +0.000 C 
ATOM      4  N   UNL     1       6.359   5.411  17.650  0.00  0.00    +0.000 NA
ATOM      5  C   UNL     1       7.773   5.380  18.111  0.00  0.00    +0.000 C 
ATOM      6  C   UNL     1       8.129   6.614  18.961  0.00  0.00    +0.000 C 
ENDROOT
BRANCH   1   8
ATOM      7  C   UNL     1       8.951   9.664  19.128  0.00  0.00    +0.000 C 
ATOM      8  N   UNL     1       8.604   8.921  18.135  0.00  0.00    +0.000 NA
BRANCH   7  15
ATOM      9  F   UNL     1      10.047  11.313  21.269  0.00  0.00    +0.000 F 
ATOM     10  C   UNL     1      10.343  11.615  19.980  0.00  0.00    +0.000 A 
ATOM     11  C   UNL     1      11.166  12.719  19.721  0.00  0.00    +0.000 A 
ATOM     12  C   UNL     1      11.498  13.057  18.407  0.00  0.00    +0.000 A 
ATOM     13  C   UNL     1      11.025  12.280  17.348  0.00  0.00    +0.000 A 
ATOM     14  C   UNL     1      10.216  11.166  17.599  0.00  0.00    +0.000 A 
ATOM     15  C   UNL     1       9.851  10.827  18.911  0.00  0.00    +0.000 A 
ENDBRANCH   7  15
ENDBRANCH   1   8
BRANCH   4  16
ATOM     16  C   UNL     1       5.394   5.210  18.768  0.00  0.00    +0.000 C 
BRANCH  16  17
ATOM     17  C   UNL     1       4.124   4.510  18.319  0.00  0.00    +0.000 A 
ATOM     18  C   UNL     1       4.144   3.116  18.147  0.00  0.00    +0.000 A 
ATOM     19  C   UNL     1       2.985   2.428  17.773  0.00  0.00    +0.000 A 
ATOM     20  C   UNL     1       1.795   3.122  17.560  0.00  0.00    +0.000 A 
ATOM     21  C   UNL     1       1.757   4.507  17.720  0.00  0.00    +0.000 A 
ATOM     22  C   UNL     1       2.909   5.209  18.100  0.00  0.00    +0.000 A 
ATOM     23 CL   UNL     1       2.765   6.954  18.290  0.00  0.00    +0.000 Cl
ENDBRANCH  16  17
ENDBRANCH   4  16
TORSDOF 4
ENDMDL
MODEL 5
REMARK VINA RESULT:      -7.0      1.193      1.523
REMARK  Name = 
REMARK  4 active torsions:
REMARK  status: ('A' for Active; 'I' for Inactive)
REMARK    1  A    between atoms: C_7  and  C_8
REMARK    2  A    between atoms: N_9  and  N_10
REMARK    3  A    between atoms: N_13  and  C_14
REMARK    4  A    between atoms: C_14  and  C_15
REMARK                            x       y       z     vdW  Elec       q    Type
REMARK                         _______ _______ _______ _____ _____    ______ ____
ROOT
ATOM      1  N   UNL     1       7.550   7.633  18.060  0.00  0.00    +0.000 N 
ATOM      2  C   UNL     1       6.156   7.680  17.675  0.00  0.00    +0.000 C 
ATOM      3  C   UNL     1       5.783   6.367  16.955  0.00  0.00    +0.000 C 
ATOM      4  N   UNL     1       6.124   5.180  17.778  0.00  0.00    +0.000 NA
ATOM      5  C   UNL     1       7.578   5.189  18.089  0.00  0.00    +0.000 C 
ATOM      6  C   UNL     1       8.003   6.475  18.824  0.00  0.00    +0.000 C 
ENDROOT
BRANCH   1   8
ATOM      7  C   UNL     1       8.507   9.723  18.627  0.00  0.00    +0.000 C 
ATOM      8  N   UNL     1       8.354   8.732  17.819  0.00  0.00    +0.000 NA
BRANCH   7  15
ATOM      9  F   UNL     1       7.600  12.157  17.301  0.00  0.00    +0.000 F 
ATOM     10  C   UNL     1       8.916  12.011  17.595  0.00  0.00    +0.000 A 
ATOM     11  C   UNL     1       9.800  13.040  17.243  0.00  0.00    +0.000 A 
ATOM     12  C   UNL     1      11.161  12.929  17.536  0.00  0.00    +0.000 A 
ATOM     13  C   UNL     1      11.641  11.798  18.198  0.00  0.00    +0.000 A 
ATOM     14  C   UNL     1      10.762  10.773  18.567  0.00  0.00    +0.000 A 
ATOM     15  C   UNL     1       9.395  10.856  18.259  0.00  0.00    +0.000 A 
ENDBRANCH   7  15
ENDBRANCH   1   8
BRANCH   4  16
ATOM     16  C   UNL     1       5.283   5.037  19.000  0.00  0.00    +0.000 C 
BRANCH  16  17
ATOM     17  C   UNL     1       3.945   4.382  18.711  0.00  0.00    +0.000 A 
ATOM     18  C   UNL     1       3.000   5.083  17.943  0.00  0.00    +0.000 A 
ATOM     19  C   UNL     1       1.770   4.500  17.621  0.00  0.00    +0.000 A 
ATOM     20  C   UNL     1       1.465   3.215  18.066  0.00  0.00    +0.000 A 
ATOM     21  C   UNL     1       2.388   2.506  18.835  0.00  0.00    +0.000 A 
ATOM     22  C   UNL     1       3.627   3.075  19.160  0.00  0.00    +0.000 A 
ATOM     23 CL   UNL     1       4.733   2.102  20.124  0.00  0.00    +0.000 Cl
ENDBRANCH  16  17
ENDBRANCH   4  16
TORSDOF 4
ENDMDL
MODEL 6
REMARK VINA RESULT:      -7.0      1.083      1.349
REMARK  Name = 
REMARK  4 active torsions:
REMARK  status: ('A' for Active; 'I' for Inactive)
REMARK    1  A    between atoms: C_7  and  C_8
REMARK    2  A    between atoms: N_9  and  N_10
REMARK    3  A    between atoms: N_13  and  C_14
REMARK    4  A    between atoms: C_14  and  C_15
REMARK                            x       y       z     vdW  Elec       q    Type
REMARK                         _______ _______ _______ _____ _____    ______ ____
ROOT
ATOM      1  N   UNL     1       7.113   6.915  17.710  0.00  0.00    +0.000 N 
ATOM      2  C   UNL     1       7.257   6.214  16.452  0.00  0.00    +0.000 C 
ATOM      3  C   UNL     1       7.253   4.694  16.715  0.00  0.00    +0.000 C 
ATOM      4  N   UNL     1       6.054   4.277  17.483  0.00  0.00    +0.000 NA
ATOM      5  C   UNL     1       6.009   5.012  18.775  0.00  0.00    +0.000 C 
ATOM      6  C   UNL     1       5.996   6.539  18.571  0.00  0.00    +0.000 C 
ENDROOT
BRANCH   1   8
ATOM      7  C   UNL     1       7.588   9.227  17.891  0.00  0.00    +0.000 C 
ATOM      8  N   UNL     1       7.938   7.992  17.982  0.00  0.00    +0.000 NA
BRANCH   7  15
ATOM      9  F   UNL     1       7.442  11.935  16.820  0.00  0.00    +0.000 F 
ATOM     10  C   UNL     1       8.467  11.601  17.642  0.00  0.00    +0.000 A 
ATOM     11  C   UNL     1       9.429  12.573  17.944  0.00  0.00    +0.000 A 
ATOM     12  C   UNL     1      10.496  12.268  18.793  0.00  0.00    +0.000 A 
ATOM     13  C   UNL     1      10.594  10.995  19.358  0.00  0.00    +0.000 A 
ATOM     14  C   UNL     1       9.628  10.023  19.073  0.00  0.00    +0.000 A 
ATOM     15  C   UNL     1       8.564  10.305  18.203  0.00  0.00    +0.000 A 
ENDBRANCH   7  15
ENDBRANCH   1   8
BRANCH   4  16
ATOM     16  C   UNL     1       4.781   4.398  16.718  0.00  0.00    +0.000 C 
BRANCH  16  17
ATOM     17  C   UNL     1       3.601   3.788  17.452  0.00  0.00    +0.000 A 
ATOM     18  C   UNL     1       3.570   2.397  17.646  0.00  0.00    +0.000 A 
ATOM     19  C   UNL     1       2.521   1.800  18.352  0.00  0.00    +0.000 A 
ATOM     20  C   UNL     1       1.487   2.581  18.867  0.00  0.00    +0.000 A 
ATOM     21  C   UNL     1       1.498   3.963  18.680  0.00  0.00    +0.000 A 
ATOM     22  C   UNL     1       2.546   4.576  17.980  0.00  0.00    +0.000 A 
ATOM     23 CL   UNL     1       2.482   6.327  17.802  0.00  0.00    +0.000 Cl
ENDBRANCH  16  17
ENDBRANCH   4  16
TORSDOF 4
ENDMDL
MODEL 7
REMARK VINA RESULT:      -6.8      7.283      9.532
REMARK  Name = 
REMARK  4 active torsions:
REMARK  status: ('A' for Active; 'I' for Inactive)
REMARK    1  A    between atoms: C_7  and  C_8
REMARK    2  A    between atoms: N_9  and  N_10
REMARK    3  A    between atoms: N_13  and  C_14
REMARK    4  A    between atoms: C_14  and  C_15
REMARK                            x       y       z     vdW  Elec       q    Type
REMARK                         _______ _______ _______ _____ _____    ______ ____
ROOT
ATOM      1  N   UNL     1       1.470   8.830  19.641  0.00  0.00    +0.000 N 
ATOM      2  C   UNL     1       1.055  10.123  19.141  0.00  0.00    +0.000 C 
ATOM      3  C   UNL     1      -0.413  10.375  19.543  0.00  0.00    +0.000 C 
ATOM      4  N   UNL     1      -0.612  10.222  21.005  0.00  0.00    +0.000 NA
ATOM      5  C   UNL     1      -0.202   8.855  21.424  0.00  0.00    +0.000 C 
ATOM      6  C   UNL     1       1.264   8.554  21.060  0.00  0.00    +0.000 C 
ENDROOT
BRANCH   1   8
ATOM      7  C   UNL     1       2.551   6.789  19.125  0.00  0.00    +0.000 C 
ATOM      8  N   UNL     1       2.163   7.973  18.805  0.00  0.00    +0.000 NA
BRANCH   7  15
ATOM      9  F   UNL     1       2.003   3.971  18.611  0.00  0.00    +0.000 F 
ATOM     10  C   UNL     1       3.011   4.584  17.943  0.00  0.00    +0.000 A 
ATOM     11  C   UNL     1       3.762   3.835  17.027  0.00  0.00    +0.000 A 
ATOM     12  C   UNL     1       4.804   4.434  16.315  0.00  0.00    +0.000 A 
ATOM     13  C   UNL     1       5.086   5.788  16.501  0.00  0.00    +0.000 A 
ATOM     14  C   UNL     1       4.330   6.548  17.402  0.00  0.00    +0.000 A 
ATOM     15  C   UNL     1       3.296   5.956  18.144  0.00  0.00    +0.000 A 
ENDBRANCH   7  15
ENDBRANCH   1   8
BRANCH   4  16
ATOM     16  C   UNL     1       0.050  11.284  21.814  0.00  0.00    +0.000 C 
BRANCH  16  17
ATOM     17  C   UNL     1      -0.948  12.210  22.484  0.00  0.00    +0.000 A 
ATOM     18  C   UNL     1      -2.123  11.662  23.025  0.00  0.00    +0.000 A 
ATOM     19  C   UNL     1      -3.050  12.475  23.685  0.00  0.00    +0.000 A 
ATOM     20  C   UNL     1      -2.820  13.845  23.809  0.00  0.00    +0.000 A 
ATOM     21  C   UNL     1      -1.662  14.408  23.273  0.00  0.00    +0.000 A 
ATOM     22  C   UNL     1      -0.722  13.605  22.614  0.00  0.00    +0.000 A 
ATOM     23 CL   UNL     1       0.716  14.401  21.979  0.00  0.00    +0.000 Cl
ENDBRANCH  16  17
ENDBRANCH   4  16
TORSDOF 4
ENDMDL
MODEL 8
REMARK VINA RESULT:      -6.7      5.574      7.862
REMARK  Name = 
REMARK  4 active torsions:
REMARK  status: ('A' for Active; 'I' for Inactive)
REMARK    1  A    between atoms: C_7  and  C_8
REMARK    2  A    between atoms: N_9  and  N_10
REMARK    3  A    between atoms: N_13  and  C_14
REMARK    4  A    between atoms: C_14  and  C_15
REMARK                            x       y       z     vdW  Elec       q    Type
REMARK                         _______ _______ _______ _____ _____    ______ ____
ROOT
ATOM      1  N   UNL     1       2.043   7.963  19.470  0.00  0.00    +0.000 N 
ATOM      2  C   UNL     1       2.370   6.844  20.328  0.00  0.00    +0.000 C 
ATOM      3  C   UNL     1       2.237   5.533  19.525  0.00  0.00    +0.000 C 
ATOM      4  N   UNL     1       3.045   5.573  18.281  0.00  0.00    +0.000 NA
ATOM      5  C   UNL     1       2.614   6.723  17.442  0.00  0.00    +0.000 C 
ATOM      6  C   UNL     1       2.740   8.063  18.192  0.00  0.00    +0.000 C 
ENDROOT
BRANCH   1   8
ATOM      7  C   UNL     1       0.679   8.974  21.120  0.00  0.00    +0.000 C 
ATOM      8  N   UNL     1       1.203   8.954  19.944  0.00  0.00    +0.000 NA
BRANCH   7  15
ATOM      9  F   UNL     1      -0.181   9.488  23.859  0.00  0.00    +0.000 F 
ATOM     10  C   UNL     1      -0.627  10.290  22.860  0.00  0.00    +0.000 A 
ATOM     11  C   UNL     1      -1.497  11.340  23.182  0.00  0.00    +0.000 A 
ATOM     12  C   UNL     1      -1.973  12.191  22.182  0.00  0.00    +0.000 A 
ATOM     13  C   UNL     1      -1.566  12.007  20.859  0.00  0.00    +0.000 A 
ATOM     14  C   UNL     1      -0.684  10.970  20.532  0.00  0.00    +0.000 A 
ATOM     15  C   UNL     1      -0.217  10.090  21.520  0.00  0.00    +0.000 A 
ENDBRANCH   7  15
ENDBRANCH   1   8
BRANCH   4  16
ATOM     16  C   UNL     1       4.516   5.566  18.521  0.00  0.00    +0.000 C 
BRANCH  16  17
ATOM     17  C   UNL     1       5.301   5.122  17.301  0.00  0.00    +0.000 A 
ATOM     18  C   UNL     1       4.826   4.034  16.548  0.00  0.00    +0.000 A 
ATOM     19  C   UNL     1       5.499   3.618  15.395  0.00  0.00    +0.000 A 
ATOM     20  C   UNL     1       6.657   4.276  14.983  0.00  0.00    +0.000 A 
ATOM     21  C   UNL     1       7.148   5.353  15.720  0.00  0.00    +0.000 A 
ATOM     22  C   UNL     1       6.481   5.785  16.875  0.00  0.00    +0.000 A 
ATOM     23 CL   UNL     1       7.166   7.160  17.736  0.00  0.00    +0.000 Cl
ENDBRANCH  16  17
ENDBRANCH   4  16
TORSDOF 4
ENDMDL
MODEL 9
REMARK VINA RESULT:      -6.7      1.426      1.715
REMARK  Name = 
REMARK  4 active torsions:
REMARK  status: ('A' for Active; 'I' for Inactive)
REMARK    1  A    between atoms: C_7  and  C_8
REMARK    2  A    between atoms: N_9  and  N_10
REMARK    3  A    between atoms: N_13  and  C_14
REMARK    4  A    between atoms: C_14  and  C_15
REMARK                            x       y       z     vdW  Elec       q    Type
REMARK                         _______ _______ _______ _____ _____    ______ ____
ROOT
ATOM      1  N   UNL     1       7.363   7.082  17.897  0.00  0.00    +0.000 N 
ATOM      2  C   UNL     1       7.345   6.621  16.526  0.00  0.00    +0.000 C 
ATOM      3  C   UNL     1       7.255   5.081  16.509  0.00  0.00    +0.000 C 
ATOM      4  N   UNL     1       6.101   4.594  17.305  0.00  0.00    +0.000 NA
ATOM      5  C   UNL     1       6.223   5.076  18.707  0.00  0.00    +0.000 C 
ATOM      6  C   UNL     1       6.302   6.613  18.783  0.00  0.00    +0.000 C 
ENDROOT
BRANCH   1   8
ATOM      7  C   UNL     1       8.151   9.307  18.072  0.00  0.00    +0.000 C 
ATOM      8  N   UNL     1       8.283   8.042  18.275  0.00  0.00    +0.000 NA
BRANCH   7  15
ATOM      9  F   UNL     1       8.702   9.961  20.860  0.00  0.00    +0.000 F 
ATOM     10  C   UNL     1       9.430  10.555  19.882  0.00  0.00    +0.000 A 
ATOM     11  C   UNL     1      10.423  11.474  20.249  0.00  0.00    +0.000 A 
ATOM     12  C   UNL     1      11.197  12.101  19.270  0.00  0.00    +0.000 A 
ATOM     13  C   UNL     1      10.995  11.798  17.922  0.00  0.00    +0.000 A 
ATOM     14  C   UNL     1      10.016  10.870  17.549  0.00  0.00    +0.000 A 
ATOM     15  C   UNL     1       9.211  10.249  18.517  0.00  0.00    +0.000 A 
ENDBRANCH   7  15
ENDBRANCH   1   8
BRANCH   4  16
ATOM     16  C   UNL     1       4.778   4.924  16.705  0.00  0.00    +0.000 C 
BRANCH  16  17
ATOM     17  C   UNL     1       3.635   4.190  17.381  0.00  0.00    +0.000 A 
ATOM     18  C   UNL     1       3.647   2.785  17.398  0.00  0.00    +0.000 A 
ATOM     19  C   UNL     1       2.633   2.072  18.044  0.00  0.00    +0.000 A 
ATOM     20  C   UNL     1       1.591   2.749  18.676  0.00  0.00    +0.000 A 
ATOM     21  C   UNL     1       1.558   4.143  18.665  0.00  0.00    +0.000 A 
ATOM     22  C   UNL     1       2.571   4.872  18.026  0.00  0.00    +0.000 A 
ATOM     23 CL   UNL     1       2.453   6.629  18.073  0.00  0.00    +0.000 Cl
ENDBRANCH  16  17
ENDBRANCH   4  16
TORSDOF 4
ENDMDL
