MODEL 1
REMARK VINA RESULT:      -7.9      0.000      0.000
REMARK  Name = 
REMARK  6 active torsions:
REMARK  status: ('A' for Active; 'I' for Inactive)
REMARK    1  A    between atoms: N_2  and  C_4
REMARK    2  A    between atoms: C_11  and  N_12
REMARK    3  A    between atoms: N_12  and  S_13
REMARK    4  A    between atoms: S_13  and  C_16
REMARK    5  A    between atoms: C_21  and  O_22
REMARK    6  A    between atoms: O_22  and  C_23
REMARK                            x       y       z     vdW  Elec       q    Type
REMARK                         _______ _______ _______ _____ _____    ______ ____
ROOT
ATOM      1  N   UNL     1       3.817   5.244  19.578  0.00  0.00    +0.000 NA
ATOM      2  H   UNL     1       3.939   5.049  20.576  0.00  0.00    +0.000 HD
ENDROOT
BRANCH   1  10
ATOM      3  C   UNL     1       0.875   9.637  21.303  0.00  0.00    +0.000 A 
ATOM      4  C   UNL     1       0.987   8.319  21.716  0.00  0.00    +0.000 A 
ATOM      5  N   UNL     1       1.506   7.673  20.631  0.00  0.00    +0.000 N 
ATOM      6  C   UNL     1       1.601   8.570  19.613  0.00  0.00    +0.000 A 
ATOM      7  N   UNL     1       1.275   9.780  19.987  0.00  0.00    +0.000 NA
ATOM      8  O   UNL     1       1.831   8.200  18.362  0.00  0.00    +0.000 OA
ATOM      9  C   UNL     1       2.731   7.099  18.224  0.00  0.00    +0.000 C 
ATOM     10  C   UNL     1       2.520   5.899  19.174  0.00  0.00    +0.000 C 
ATOM     11  C   UNL     1       1.718   6.256  20.448  0.00  0.00    +0.000 C 
BRANCH   3  13
ATOM     12  O   UNL     1      -0.075  10.507  23.194  0.00  0.00    +0.000 OA
ATOM     13  N   UNL     1       0.339  10.753  22.051  0.00  0.00    +0.000 N 
ATOM     14  O   UNL     1       0.329  11.865  21.506  0.00  0.00    +0.000 OA
ENDBRANCH   3  13
ENDBRANCH   1  10
BRANCH   1  15
ATOM     15  S   UNL     1       4.399   3.884  18.719  0.00  0.00    +0.000 S 
ATOM     16  O   UNL     1       5.483   3.377  19.536  0.00  0.00    +0.000 OA
ATOM     17  O   UNL     1       3.241   3.096  18.380  0.00  0.00    +0.000 OA
BRANCH  15  18
ATOM     18  C   UNL     1       5.114   4.549  17.234  0.00  0.00    +0.000 A 
ATOM     19  C   UNL     1       4.678   4.050  15.998  0.00  0.00    +0.000 A 
ATOM     20  C   UNL     1       5.437   4.265  14.859  0.00  0.00    +0.000 A 
ATOM     21  C   UNL     1       6.603   5.022  14.942  0.00  0.00    +0.000 A 
ATOM     22  C   UNL     1       6.975   5.616  16.151  0.00  0.00    +0.000 A 
ATOM     23  C   UNL     1       6.204   5.428  17.307  0.00  0.00    +0.000 A 
BRANCH  23  24
ATOM     24  O   UNL     1       6.442   6.066  18.487  0.00  0.00    +0.000 OA
BRANCH  24  25
ATOM     25  C   UNL     1       7.739   5.916  19.075  0.00  0.00    +0.000 C 
ATOM     26  F   UNL     1       8.550   6.968  18.834  0.00  0.00    +0.000 F 
ATOM     27  F   UNL     1       7.602   5.806  20.416  0.00  0.00    +0.000 F 
ATOM     28  F   UNL     1       8.323   4.791  18.613  0.00  0.00    +0.000 F 
ENDBRANCH  24  25
ENDBRANCH  23  24
ENDBRANCH  15  18
ENDBRANCH   1  15
TORSDOF 6
ENDMDL
MODEL 2
REMARK VINA RESULT:      -7.8      3.892      7.841
REMARK  Name = 
REMARK  6 active torsions:
REMARK  status: ('A' for Active; 'I' for Inactive)
REMARK    1  A    between atoms: N_2  and  C_4
REMARK    2  A    between atoms: C_11  and  N_12
REMARK    3  A    between atoms: N_12  and  S_13
REMARK    4  A    between atoms: S_13  and  C_16
REMARK    5  A    between atoms: C_21  and  O_22
REMARK    6  A    between atoms: O_22  and  C_23
REMARK                            x       y       z     vdW  Elec       q    Type
REMARK                         _______ _______ _______ _____ _____    ______ ____
ROOT
ATOM      1  N   UNL     1       4.873   5.811  18.909  0.00  0.00    +0.000 NA
ATOM      2  H   UNL     1       4.946   6.546  19.619  0.00  0.00    +0.000 HD
ENDROOT
BRANCH   1  10
ATOM      3  C   UNL     1       6.586   4.239  13.858  0.00  0.00    +0.000 A 
ATOM      4  C   UNL     1       5.918   3.611  14.896  0.00  0.00    +0.000 A 
ATOM      5  N   UNL     1       6.202   4.379  15.988  0.00  0.00    +0.000 N 
ATOM      6  C   UNL     1       7.071   5.353  15.602  0.00  0.00    +0.000 A 
ATOM      7  N   UNL     1       7.294   5.335  14.314  0.00  0.00    +0.000 NA
ATOM      8  O   UNL     1       7.727   6.103  16.475  0.00  0.00    +0.000 OA
ATOM      9  C   UNL     1       6.980   6.450  17.642  0.00  0.00    +0.000 C 
ATOM     10  C   UNL     1       6.169   5.319  18.315  0.00  0.00    +0.000 C 
ATOM     11  C   UNL     1       5.871   4.130  17.371  0.00  0.00    +0.000 C 
BRANCH   3  13
ATOM     12  O   UNL     1       5.925   2.877  12.141  0.00  0.00    +0.000 OA
ATOM     13  N   UNL     1       6.661   3.818  12.475  0.00  0.00    +0.000 N 
ATOM     14  O   UNL     1       7.444   4.420  11.728  0.00  0.00    +0.000 OA
ENDBRANCH   3  13
ENDBRANCH   1  10
BRANCH   1  15
ATOM     15  S   UNL     1       3.557   6.214  17.893  0.00  0.00    +0.000 S 
ATOM     16  O   UNL     1       4.094   7.205  16.982  0.00  0.00    +0.000 OA
ATOM     17  O   UNL     1       2.997   4.964  17.445  0.00  0.00    +0.000 OA
BRANCH  15  18
ATOM     18  C   UNL     1       2.392   7.037  18.951  0.00  0.00    +0.000 A 
ATOM     19  C   UNL     1       1.844   8.256  18.526  0.00  0.00    +0.000 A 
ATOM     20  C   UNL     1       1.228   9.094  19.441  0.00  0.00    +0.000 A 
ATOM     21  C   UNL     1       1.112   8.695  20.770  0.00  0.00    +0.000 A 
ATOM     22  C   UNL     1       1.555   7.431  21.169  0.00  0.00    +0.000 A 
ATOM     23  C   UNL     1       2.158   6.561  20.249  0.00  0.00    +0.000 A 
BRANCH  23  24
ATOM     24  O   UNL     1       2.508   5.277  20.540  0.00  0.00    +0.000 OA
BRANCH  24  25
ATOM     25  C   UNL     1       1.464   4.297  20.583  0.00  0.00    +0.000 C 
ATOM     26  F   UNL     1       1.464   3.579  21.727  0.00  0.00    +0.000 F 
ATOM     27  F   UNL     1       0.269   4.924  20.496  0.00  0.00    +0.000 F 
ATOM     28  F   UNL     1       1.581   3.458  19.532  0.00  0.00    +0.000 F 
ENDBRANCH  24  25
ENDBRANCH  23  24
ENDBRANCH  15  18
ENDBRANCH   1  15
TORSDOF 6
ENDMDL
MODEL 3
REMARK VINA RESULT:      -7.6      0.676      1.101
REMARK  Name = 
REMARK  6 active torsions:
REMARK  status: ('A' for Active; 'I' for Inactive)
REMARK    1  A    between atoms: N_2  and  C_4
REMARK    2  A    between atoms: C_11  and  N_12
REMARK    3  A    between atoms: N_12  and  S_13
REMARK    4  A    between atoms: S_13  and  C_16
REMARK    5  A    between atoms: C_21  and  O_22
REMARK    6  A    between atoms: O_22  and  C_23
REMARK                            x       y       z     vdW  Elec       q    Type
REMARK                         _______ _______ _______ _____ _____    ______ ____
ROOT
ATOM      1  N   UNL     1       4.035   5.783  18.877  0.00  0.00    +0.000 NA
ATOM      2  H   UNL     1       4.335   5.787  19.856  0.00  0.00    +0.000 HD
ENDROOT
BRANCH   1  10
ATOM      3  C   UNL     1       0.619   9.283  21.525  0.00  0.00    +0.000 A 
ATOM      4  C   UNL     1       0.840   7.916  21.575  0.00  0.00    +0.000 A 
ATOM      5  N   UNL     1       1.462   7.635  20.392  0.00  0.00    +0.000 N 
ATOM      6  C   UNL     1       1.511   8.781  19.661  0.00  0.00    +0.000 A 
ATOM      7  N   UNL     1       1.055   9.812  20.324  0.00  0.00    +0.000 NA
ATOM      8  O   UNL     1       1.826   8.787  18.374  0.00  0.00    +0.000 OA
ATOM      9  C   UNL     1       2.832   7.843  18.003  0.00  0.00    +0.000 C 
ATOM     10  C   UNL     1       2.699   6.415  18.581  0.00  0.00    +0.000 C 
ATOM     11  C   UNL     1       1.815   6.345  19.850  0.00  0.00    +0.000 C 
BRANCH   3  13
ATOM     12  O   UNL     1      -0.899  10.903  22.078  0.00  0.00    +0.000 OA
ATOM     13  N   UNL     1      -0.052  10.105  22.508  0.00  0.00    +0.000 N 
ATOM     14  O   UNL     1       0.260   9.958  23.697  0.00  0.00    +0.000 OA
ENDBRANCH   3  13
ENDBRANCH   1  10
BRANCH   1  15
ATOM     15  S   UNL     1       4.423   4.247  18.231  0.00  0.00    +0.000 S 
ATOM     16  O   UNL     1       5.344   3.673  19.191  0.00  0.00    +0.000 OA
ATOM     17  O   UNL     1       3.168   3.628  17.885  0.00  0.00    +0.000 OA
BRANCH  15  18
ATOM     18  C   UNL     1       5.340   4.589  16.748  0.00  0.00    +0.000 A 
ATOM     19  C   UNL     1       5.021   3.877  15.583  0.00  0.00    +0.000 A 
ATOM     20  C   UNL     1       5.917   3.843  14.526  0.00  0.00    +0.000 A 
ATOM     21  C   UNL     1       7.106   4.562  14.610  0.00  0.00    +0.000 A 
ATOM     22  C   UNL     1       7.370   5.365  15.722  0.00  0.00    +0.000 A 
ATOM     23  C   UNL     1       6.463   5.428  16.790  0.00  0.00    +0.000 A 
BRANCH  23  24
ATOM     24  O   UNL     1       6.599   6.273  17.849  0.00  0.00    +0.000 OA
BRANCH  24  25
ATOM     25  C   UNL     1       7.665   6.017  18.772  0.00  0.00    +0.000 C 
ATOM     26  F   UNL     1       8.406   4.940  18.433  0.00  0.00    +0.000 F 
ATOM     27  F   UNL     1       8.490   7.087  18.797  0.00  0.00    +0.000 F 
ATOM     28  F   UNL     1       7.162   5.837  20.011  0.00  0.00    +0.000 F 
ENDBRANCH  24  25
ENDBRANCH  23  24
ENDBRANCH  15  18
ENDBRANCH   1  15
TORSDOF 6
ENDMDL
MODEL 4
REMARK VINA RESULT:      -7.5      1.045      1.357
REMARK  Name = 
REMARK  6 active torsions:
REMARK  status: ('A' for Active; 'I' for Inactive)
REMARK    1  A    between atoms: N_2  and  C_4
REMARK    2  A    between atoms: C_11  and  N_12
REMARK    3  A    between atoms: N_12  and  S_13
REMARK    4  A    between atoms: S_13  and  C_16
REMARK    5  A    between atoms: C_21  and  O_22
REMARK    6  A    between atoms: O_22  and  C_23
REMARK                            x       y       z     vdW  Elec       q    Type
REMARK                         _______ _______ _______ _____ _____    ______ ____
ROOT
ATOM      1  N   UNL     1       4.368   5.912  18.974  0.00  0.00    +0.000 NA
ATOM      2  H   UNL     1       4.678   6.016  19.945  0.00  0.00    +0.000 HD
ENDROOT
BRANCH   1  10
ATOM      3  C   UNL     1       0.799   9.552  21.197  0.00  0.00    +0.000 A 
ATOM      4  C   UNL     1       1.140   8.236  21.467  0.00  0.00    +0.000 A 
ATOM      5  N   UNL     1       1.723   7.799  20.312  0.00  0.00    +0.000 N 
ATOM      6  C   UNL     1       1.636   8.799  19.393  0.00  0.00    +0.000 A 
ATOM      7  N   UNL     1       1.127   9.893  19.897  0.00  0.00    +0.000 NA
ATOM      8  O   UNL     1       1.885   8.602  18.107  0.00  0.00    +0.000 OA
ATOM      9  C   UNL     1       2.949   7.688  17.840  0.00  0.00    +0.000 C 
ATOM     10  C   UNL     1       2.969   6.378  18.661  0.00  0.00    +0.000 C 
ATOM     11  C   UNL     1       2.160   6.465  19.977  0.00  0.00    +0.000 C 
BRANCH   3  13
ATOM     12  O   UNL     1       0.310  11.688  21.857  0.00  0.00    +0.000 OA
ATOM     13  N   UNL     1       0.110  10.481  22.066  0.00  0.00    +0.000 N 
ATOM     14  O   UNL     1      -0.625  10.015  22.947  0.00  0.00    +0.000 OA
ENDBRANCH   3  13
ENDBRANCH   1  10
BRANCH   1  15
ATOM     15  S   UNL     1       4.909   4.383  18.429  0.00  0.00    +0.000 S 
ATOM     16  O   UNL     1       6.037   4.072  19.284  0.00  0.00    +0.000 OA
ATOM     17  O   UNL     1       3.737   3.548  18.347  0.00  0.00    +0.000 OA
BRANCH  15  18
ATOM     18  C   UNL     1       5.541   4.674  16.795  0.00  0.00    +0.000 A 
ATOM     19  C   UNL     1       4.778   4.255  15.696  0.00  0.00    +0.000 A 
ATOM     20  C   UNL     1       5.370   4.132  14.448  0.00  0.00    +0.000 A 
ATOM     21  C   UNL     1       6.709   4.479  14.286  0.00  0.00    +0.000 A 
ATOM     22  C   UNL     1       7.436   5.007  15.355  0.00  0.00    +0.000 A 
ATOM     23  C   UNL     1       6.845   5.160  16.617  0.00  0.00    +0.000 A 
BRANCH  23  24
ATOM     24  O   UNL     1       7.456   5.771  17.670  0.00  0.00    +0.000 OA
BRANCH  24  25
ATOM     25  C   UNL     1       7.532   7.201  17.657  0.00  0.00    +0.000 C 
ATOM     26  F   UNL     1       6.318   7.791  17.600  0.00  0.00    +0.000 F 
ATOM     27  F   UNL     1       8.135   7.619  18.792  0.00  0.00    +0.000 F 
ATOM     28  F   UNL     1       8.273   7.609  16.606  0.00  0.00    +0.000 F 
ENDBRANCH  24  25
ENDBRANCH  23  24
ENDBRANCH  15  18
ENDBRANCH   1  15
TORSDOF 6
ENDMDL
MODEL 5
REMARK VINA RESULT:      -7.5      2.393      3.330
REMARK  Name = 
REMARK  6 active torsions:
REMARK  status: ('A' for Active; 'I' for Inactive)
REMARK    1  A    between atoms: N_2  and  C_4
REMARK    2  A    between atoms: C_11  and  N_12
REMARK    3  A    between atoms: N_12  and  S_13
REMARK    4  A    between atoms: S_13  and  C_16
REMARK    5  A    between atoms: C_21  and  O_22
REMARK    6  A    between atoms: O_22  and  C_23
REMARK                            x       y       z     vdW  Elec       q    Type
REMARK                         _______ _______ _______ _____ _____    ______ ____
ROOT
ATOM      1  N   UNL     1       2.724   5.647  17.952  0.00  0.00    +0.000 NA
ATOM      2  H   UNL     1       2.552   5.827  16.959  0.00  0.00    +0.000 HD
ENDROOT
BRANCH   1  10
ATOM      3  C   UNL     1       0.154  10.491  18.875  0.00  0.00    +0.000 A 
ATOM      4  C   UNL     1       1.035  10.026  17.912  0.00  0.00    +0.000 A 
ATOM      5  N   UNL     1       1.621   8.939  18.493  0.00  0.00    +0.000 N 
ATOM      6  C   UNL     1       1.159   8.844  19.769  0.00  0.00    +0.000 A 
ATOM      7  N   UNL     1       0.235   9.733  20.029  0.00  0.00    +0.000 NA
ATOM      8  O   UNL     1       1.719   8.049  20.668  0.00  0.00    +0.000 OA
ATOM      9  C   UNL     1       2.191   6.805  20.150  0.00  0.00    +0.000 C 
ATOM     10  C   UNL     1       2.978   6.854  18.820  0.00  0.00    +0.000 C 
ATOM     11  C   UNL     1       2.711   8.134  17.994  0.00  0.00    +0.000 C 
BRANCH   3  13
ATOM     12  O   UNL     1      -1.515  11.688  17.866  0.00  0.00    +0.000 OA
ATOM     13  N   UNL     1      -0.700  11.657  18.801  0.00  0.00    +0.000 N 
ATOM     14  O   UNL     1      -0.562  12.533  19.666  0.00  0.00    +0.000 OA
ENDBRANCH   3  13
ENDBRANCH   1  10
BRANCH   1  15
ATOM     15  S   UNL     1       3.752   4.283  18.052  0.00  0.00    +0.000 S 
ATOM     16  O   UNL     1       3.526   3.756  19.383  0.00  0.00    +0.000 OA
ATOM     17  O   UNL     1       3.517   3.513  16.856  0.00  0.00    +0.000 OA
BRANCH  15  18
ATOM     18  C   UNL     1       5.401   4.945  18.012  0.00  0.00    +0.000 A 
ATOM     19  C   UNL     1       6.163   4.915  19.188  0.00  0.00    +0.000 A 
ATOM     20  C   UNL     1       7.285   5.721  19.305  0.00  0.00    +0.000 A 
ATOM     21  C   UNL     1       7.676   6.515  18.231  0.00  0.00    +0.000 A 
ATOM     22  C   UNL     1       6.983   6.456  17.019  0.00  0.00    +0.000 A 
ATOM     23  C   UNL     1       5.861   5.628  16.877  0.00  0.00    +0.000 A 
BRANCH  23  24
ATOM     24  O   UNL     1       5.208   5.434  15.697  0.00  0.00    +0.000 OA
BRANCH  24  25
ATOM     25  C   UNL     1       5.845   4.612  14.712  0.00  0.00    +0.000 C 
ATOM     26  F   UNL     1       6.873   5.233  14.095  0.00  0.00    +0.000 F 
ATOM     27  F   UNL     1       6.340   3.508  15.315  0.00  0.00    +0.000 F 
ATOM     28  F   UNL     1       4.942   4.223  13.788  0.00  0.00    +0.000 F 
ENDBRANCH  24  25
ENDBRANCH  23  24
ENDBRANCH  15  18
ENDBRANCH   1  15
TORSDOF 6
ENDMDL
MODEL 6
REMARK VINA RESULT:      -7.4      3.940      7.790
REMARK  Name = 
REMARK  6 active torsions:
REMARK  status: ('A' for Active; 'I' for Inactive)
REMARK    1  A    between atoms: N_2  and  C_4
REMARK    2  A    between atoms: C_11  and  N_12
REMARK    3  A    between atoms: N_12  and  S_13
REMARK    4  A    between atoms: S_13  and  C_16
REMARK    5  A    between atoms: C_21  and  O_22
REMARK    6  A    between atoms: O_22  and  C_23
REMARK                            x       y       z     vdW  Elec       q    Type
REMARK                         _______ _______ _______ _____ _____    ______ ____
ROOT
ATOM      1  N   UNL     1       4.414   4.877  18.958  0.00  0.00    +0.000 NA
ATOM      2  H   UNL     1       4.509   5.460  19.794  0.00  0.00    +0.000 HD
ENDROOT
BRANCH   1  10
ATOM      3  C   UNL     1       6.995   4.728  14.034  0.00  0.00    +0.000 A 
ATOM      4  C   UNL     1       5.959   4.011  14.610  0.00  0.00    +0.000 A 
ATOM      5  N   UNL     1       6.111   4.225  15.950  0.00  0.00    +0.000 N 
ATOM      6  C   UNL     1       7.241   4.961  16.133  0.00  0.00    +0.000 A 
ATOM      7  N   UNL     1       7.782   5.327  15.001  0.00  0.00    +0.000 NA
ATOM      8  O   UNL     1       7.795   5.122  17.326  0.00  0.00    +0.000 OA
ATOM      9  C   UNL     1       6.865   5.248  18.402  0.00  0.00    +0.000 C 
ATOM     10  C   UNL     1       5.679   4.256  18.422  0.00  0.00    +0.000 C 
ATOM     11  C   UNL     1       5.385   3.621  17.042  0.00  0.00    +0.000 C 
BRANCH   3  13
ATOM     12  O   UNL     1       6.966   3.873  11.912  0.00  0.00    +0.000 OA
ATOM     13  N   UNL     1       7.333   4.816  12.630  0.00  0.00    +0.000 N 
ATOM     14  O   UNL     1       7.958   5.813  12.245  0.00  0.00    +0.000 OA
ENDBRANCH   3  13
ENDBRANCH   1  10
BRANCH   1  15
ATOM     15  S   UNL     1       3.333   5.677  17.900  0.00  0.00    +0.000 S 
ATOM     16  O   UNL     1       4.175   6.568  17.128  0.00  0.00    +0.000 OA
ATOM     17  O   UNL     1       2.525   4.648  17.296  0.00  0.00    +0.000 OA
BRANCH  15  18
ATOM     18  C   UNL     1       2.316   6.682  18.954  0.00  0.00    +0.000 A 
ATOM     19  C   UNL     1       1.875   7.924  18.475  0.00  0.00    +0.000 A 
ATOM     20  C   UNL     1       1.398   8.878  19.360  0.00  0.00    +0.000 A 
ATOM     21  C   UNL     1       1.311   8.574  20.716  0.00  0.00    +0.000 A 
ATOM     22  C   UNL     1       1.641   7.297  21.177  0.00  0.00    +0.000 A 
ATOM     23  C   UNL     1       2.102   6.314  20.290  0.00  0.00    +0.000 A 
BRANCH  23  24
ATOM     24  O   UNL     1       2.332   5.020  20.648  0.00  0.00    +0.000 OA
BRANCH  24  25
ATOM     25  C   UNL     1       1.235   4.102  20.567  0.00  0.00    +0.000 C 
ATOM     26  F   UNL     1       0.047   4.718  20.383  0.00  0.00    +0.000 F 
ATOM     27  F   UNL     1       1.432   3.275  19.516  0.00  0.00    +0.000 F 
ATOM     28  F   UNL     1       1.179   3.357  21.691  0.00  0.00    +0.000 F 
ENDBRANCH  24  25
ENDBRANCH  23  24
ENDBRANCH  15  18
ENDBRANCH   1  15
TORSDOF 6
ENDMDL
MODEL 7
REMARK VINA RESULT:      -7.2      1.818      2.707
REMARK  Name = 
REMARK  6 active torsions:
REMARK  status: ('A' for Active; 'I' for Inactive)
REMARK    1  A    between atoms: N_2  and  C_4
REMARK    2  A    between atoms: C_11  and  N_12
REMARK    3  A    between atoms: N_12  and  S_13
REMARK    4  A    between atoms: S_13  and  C_16
REMARK    5  A    between atoms: C_21  and  O_22
REMARK    6  A    between atoms: O_22  and  C_23
REMARK                            x       y       z     vdW  Elec       q    Type
REMARK                         _______ _______ _______ _____ _____    ______ ____
ROOT
ATOM      1  N   UNL     1       3.786   5.333  19.857  0.00  0.00    +0.000 NA
ATOM      2  H   UNL     1       3.738   4.883  20.776  0.00  0.00    +0.000 HD
ENDROOT
BRANCH   1  10
ATOM      3  C   UNL     1       0.726   9.753  21.282  0.00  0.00    +0.000 A 
ATOM      4  C   UNL     1       0.814   8.446  21.733  0.00  0.00    +0.000 A 
ATOM      5  N   UNL     1       1.405   7.776  20.699  0.00  0.00    +0.000 N 
ATOM      6  C   UNL     1       1.564   8.650  19.668  0.00  0.00    +0.000 A 
ATOM      7  N   UNL     1       1.211   9.867  19.992  0.00  0.00    +0.000 NA
ATOM      8  O   UNL     1       1.877   8.252  18.445  0.00  0.00    +0.000 OA
ATOM      9  C   UNL     1       2.786   7.152  18.391  0.00  0.00    +0.000 C 
ATOM     10  C   UNL     1       2.516   5.973  19.354  0.00  0.00    +0.000 C 
ATOM     11  C   UNL     1       1.632   6.357  20.564  0.00  0.00    +0.000 C 
BRANCH   3  13
ATOM     12  O   UNL     1       0.031  11.933  21.311  0.00  0.00    +0.000 OA
ATOM     13  N   UNL     1       0.139  10.885  21.966  0.00  0.00    +0.000 N 
ATOM     14  O   UNL     1      -0.212  10.732  23.144  0.00  0.00    +0.000 OA
ENDBRANCH   3  13
ENDBRANCH   1  10
BRANCH   1  15
ATOM     15  S   UNL     1       4.697   4.308  18.835  0.00  0.00    +0.000 S 
ATOM     16  O   UNL     1       5.191   3.267  19.714  0.00  0.00    +0.000 OA
ATOM     17  O   UNL     1       3.862   4.034  17.692  0.00  0.00    +0.000 OA
BRANCH  15  18
ATOM     18  C   UNL     1       6.090   5.284  18.326  0.00  0.00    +0.000 A 
ATOM     19  C   UNL     1       7.098   5.554  19.263  0.00  0.00    +0.000 A 
ATOM     20  C   UNL     1       8.000   6.581  19.032  0.00  0.00    +0.000 A 
ATOM     21  C   UNL     1       7.930   7.304  17.845  0.00  0.00    +0.000 A 
ATOM     22  C   UNL     1       7.000   6.959  16.861  0.00  0.00    +0.000 A 
ATOM     23  C   UNL     1       6.096   5.907  17.069  0.00  0.00    +0.000 A 
BRANCH  23  24
ATOM     24  O   UNL     1       5.243   5.442  16.114  0.00  0.00    +0.000 OA
BRANCH  24  25
ATOM     25  C   UNL     1       5.791   4.626  15.073  0.00  0.00    +0.000 C 
ATOM     26  F   UNL     1       6.734   5.263  14.346  0.00  0.00    +0.000 F 
ATOM     27  F   UNL     1       6.370   3.538  15.627  0.00  0.00    +0.000 F 
ATOM     28  F   UNL     1       4.804   4.210  14.252  0.00  0.00    +0.000 F 
ENDBRANCH  24  25
ENDBRANCH  23  24
ENDBRANCH  15  18
ENDBRANCH   1  15
TORSDOF 6
ENDMDL
MODEL 8
REMARK VINA RESULT:      -7.1      1.332      1.788
REMARK  Name = 
REMARK  6 active torsions:
REMARK  status: ('A' for Active; 'I' for Inactive)
REMARK    1  A    between atoms: N_2  and  C_4
REMARK    2  A    between atoms: C_11  and  N_12
REMARK    3  A    between atoms: N_12  and  S_13
REMARK    4  A    between atoms: S_13  and  C_16
REMARK    5  A    between atoms: C_21  and  O_22
REMARK    6  A    between atoms: O_22  and  C_23
REMARK                            x       y       z     vdW  Elec       q    Type
REMARK                         _______ _______ _______ _____ _____    ______ ____
ROOT
ATOM      1  N   UNL     1       3.871   7.002  18.651  0.00  0.00    +0.000 NA
ATOM      2  H   UNL     1       4.421   7.531  19.333  0.00  0.00    +0.000 HD
ENDROOT
BRANCH   1  10
ATOM      3  C   UNL     1       0.388  10.315  21.446  0.00  0.00    +0.000 A 
ATOM      4  C   UNL     1       0.934   9.063  21.677  0.00  0.00    +0.000 A 
ATOM      5  N   UNL     1       1.329   8.638  20.441  0.00  0.00    +0.000 N 
ATOM      6  C   UNL     1       0.941   9.573  19.532  0.00  0.00    +0.000 A 
ATOM      7  N   UNL     1       0.411  10.626  20.098  0.00  0.00    +0.000 NA
ATOM      8  O   UNL     1       0.955   9.341  18.227  0.00  0.00    +0.000 OA
ATOM      9  C   UNL     1       2.050   8.543  17.777  0.00  0.00    +0.000 C 
ATOM     10  C   UNL     1       2.391   7.287  18.612  0.00  0.00    +0.000 C 
ATOM     11  C   UNL     1       1.852   7.347  20.061  0.00  0.00    +0.000 C 
BRANCH   3  13
ATOM     12  O   UNL     1      -0.080  12.419  22.216  0.00  0.00    +0.000 OA
ATOM     13  N   UNL     1      -0.226  11.202  22.410  0.00  0.00    +0.000 N 
ATOM     14  O   UNL     1      -0.849  10.693  23.352  0.00  0.00    +0.000 OA
ENDBRANCH   3  13
ENDBRANCH   1  10
BRANCH   1  15
ATOM     15  S   UNL     1       4.436   5.387  18.684  0.00  0.00    +0.000 S 
ATOM     16  O   UNL     1       5.508   5.399  19.660  0.00  0.00    +0.000 OA
ATOM     17  O   UNL     1       3.267   4.555  18.818  0.00  0.00    +0.000 OA
BRANCH  15  18
ATOM     18  C   UNL     1       5.169   5.122  17.088  0.00  0.00    +0.000 A 
ATOM     19  C   UNL     1       4.864   3.939  16.399  0.00  0.00    +0.000 A 
ATOM     20  C   UNL     1       5.666   3.526  15.346  0.00  0.00    +0.000 A 
ATOM     21  C   UNL     1       6.739   4.318  14.947  0.00  0.00    +0.000 A 
ATOM     22  C   UNL     1       6.972   5.553  15.559  0.00  0.00    +0.000 A 
ATOM     23  C   UNL     1       6.155   5.996  16.609  0.00  0.00    +0.000 A 
BRANCH  23  24
ATOM     24  O   UNL     1       6.251   7.232  17.172  0.00  0.00    +0.000 OA
BRANCH  24  25
ATOM     25  C   UNL     1       7.542   7.659  17.623  0.00  0.00    +0.000 C 
ATOM     26  F   UNL     1       8.070   6.839  18.558  0.00  0.00    +0.000 F 
ATOM     27  F   UNL     1       8.391   7.676  16.571  0.00  0.00    +0.000 F 
ATOM     28  F   UNL     1       7.461   8.909  18.124  0.00  0.00    +0.000 F 
ENDBRANCH  24  25
ENDBRANCH  23  24
ENDBRANCH  15  18
ENDBRANCH   1  15
TORSDOF 6
ENDMDL
MODEL 9
REMARK VINA RESULT:      -7.0      3.868      7.581
REMARK  Name = 
REMARK  6 active torsions:
REMARK  status: ('A' for Active; 'I' for Inactive)
REMARK    1  A    between atoms: N_2  and  C_4
REMARK    2  A    between atoms: C_11  and  N_12
REMARK    3  A    between atoms: N_12  and  S_13
REMARK    4  A    between atoms: S_13  and  C_16
REMARK    5  A    between atoms: C_21  and  O_22
REMARK    6  A    between atoms: O_22  and  C_23
REMARK                            x       y       z     vdW  Elec       q    Type
REMARK                         _______ _______ _______ _____ _____    ______ ____
ROOT
ATOM      1  N   UNL     1       5.273   5.363  19.312  0.00  0.00    +0.000 NA
ATOM      2  H   UNL     1       5.307   5.829  20.223  0.00  0.00    +0.000 HD
ENDROOT
BRANCH   1  10
ATOM      3  C   UNL     1       6.470   4.288  13.989  0.00  0.00    +0.000 A 
ATOM      4  C   UNL     1       6.466   3.539  15.155  0.00  0.00    +0.000 A 
ATOM      5  N   UNL     1       6.520   4.472  16.150  0.00  0.00    +0.000 N 
ATOM      6  C   UNL     1       6.640   5.697  15.572  0.00  0.00    +0.000 A 
ATOM      7  N   UNL     1       6.567   5.639  14.267  0.00  0.00    +0.000 NA
ATOM      8  O   UNL     1       6.965   6.778  16.265  0.00  0.00    +0.000 OA
ATOM      9  C   UNL     1       6.408   6.832  17.579  0.00  0.00    +0.000 C 
ATOM     10  C   UNL     1       6.476   5.538  18.421  0.00  0.00    +0.000 C 
ATOM     11  C   UNL     1       6.665   4.259  17.571  0.00  0.00    +0.000 C 
BRANCH   3  13
ATOM     12  O   UNL     1       7.386   4.199  11.894  0.00  0.00    +0.000 OA
ATOM     13  N   UNL     1       6.468   3.800  12.627  0.00  0.00    +0.000 N 
ATOM     14  O   UNL     1       5.562   3.025  12.289  0.00  0.00    +0.000 OA
ENDBRANCH   3  13
ENDBRANCH   1  10
BRANCH   1  15
ATOM     15  S   UNL     1       3.697   5.587  18.685  0.00  0.00    +0.000 S 
ATOM     16  O   UNL     1       3.337   6.933  19.082  0.00  0.00    +0.000 OA
ATOM     17  O   UNL     1       3.749   5.166  17.307  0.00  0.00    +0.000 OA
BRANCH  15  18
ATOM     18  C   UNL     1       2.671   4.466  19.605  0.00  0.00    +0.000 A 
ATOM     19  C   UNL     1       1.501   4.961  20.199  0.00  0.00    +0.000 A 
ATOM     20  C   UNL     1       0.874   4.237  21.200  0.00  0.00    +0.000 A 
ATOM     21  C   UNL     1       1.382   2.995  21.572  0.00  0.00    +0.000 A 
ATOM     22  C   UNL     1       2.478   2.450  20.899  0.00  0.00    +0.000 A 
ATOM     23  C   UNL     1       3.109   3.160  19.868  0.00  0.00    +0.000 A 
BRANCH  23  24
ATOM     24  O   UNL     1       4.106   2.645  19.095  0.00  0.00    +0.000 OA
BRANCH  24  25
ATOM     25  C   UNL     1       3.741   1.707  18.075  0.00  0.00    +0.000 C 
ATOM     26  F   UNL     1       3.993   0.427  18.424  0.00  0.00    +0.000 F 
ATOM     27  F   UNL     1       2.413   1.811  17.839  0.00  0.00    +0.000 F 
ATOM     28  F   UNL     1       4.399   1.994  16.933  0.00  0.00    +0.000 F 
ENDBRANCH  24  25
ENDBRANCH  23  24
ENDBRANCH  15  18
ENDBRANCH   1  15
TORSDOF 6
ENDMDL
