MODEL 1
REMARK VINA RESULT:      -7.5      0.000      0.000
REMARK  Name = 
REMARK  8 active torsions:
REMARK  status: ('A' for Active; 'I' for Inactive)
REMARK    1  A    between atoms: C_1  and  O_2
REMARK    2  A    between atoms: O_2  and  C_3
REMARK    3  A    between atoms: C_7  and  C_8
REMARK    4  A    between atoms: N_13  and  C_14
REMARK    5  A    between atoms: C_14  and  C_15
REMARK    6  A    between atoms: C_15  and  C_16
REMARK    7  A    between atoms: C_21  and  C_22
REMARK    8  A    between atoms: C_22  and  O_24
REMARK                            x       y       z     vdW  Elec       q    Type
REMARK                         _______ _______ _______ _____ _____    ______ ____
ROOT
ATOM      1  C   UNL     1       2.710   7.547  17.867  0.00  0.00    +0.000 C 
ATOM      2  C   UNL     1       2.058   8.291  18.769  0.00  0.00    +0.000 C 
ATOM      3  S   UNL     1       1.635   7.856  20.379  0.00  0.00    +0.000 S 
ATOM      4  C   UNL     1       0.753   9.350  20.643  0.00  0.00    +0.000 C 
ATOM      5  O   UNL     1       0.198   9.600  21.701  0.00  0.00    +0.000 OA
ATOM      6  N   UNL     1       0.795  10.132  19.516  0.00  0.00    +0.000 N 
ATOM      7  C   UNL     1       1.547   9.651  18.463  0.00  0.00    +0.000 C 
ATOM      8  O   UNL     1       1.758  10.230  17.406  0.00  0.00    +0.000 OA
ENDROOT
BRANCH   1  13
ATOM      9  C   UNL     1       4.985   4.618  18.520  0.00  0.00    +0.000 A 
ATOM     10  C   UNL     1       4.089   3.556  18.374  0.00  0.00    +0.000 A 
ATOM     11  C   UNL     1       2.740   3.794  18.106  0.00  0.00    +0.000 A 
ATOM     12  C   UNL     1       2.279   5.103  17.963  0.00  0.00    +0.000 A 
ATOM     13  C   UNL     1       3.166   6.174  18.104  0.00  0.00    +0.000 A 
ATOM     14  C   UNL     1       4.515   5.929  18.403  0.00  0.00    +0.000 A 
BRANCH   9  16
ATOM     15  C   UNL     1       7.258   4.694  17.814  0.00  0.00    +0.000 C 
ATOM     16  O   UNL     1       6.281   4.244  18.744  0.00  0.00    +0.000 OA
ENDBRANCH   9  16
ENDBRANCH   1  13
BRANCH   6  17
ATOM     17  C   UNL     1       0.144  11.443  19.465  0.00  0.00    +0.000 C 
BRANCH  17  18
ATOM     18  C   UNL     1      -1.278  11.359  18.914  0.00  0.00    +0.000 C 
BRANCH  18  19
ATOM     19  C   UNL     1      -2.316  11.949  19.848  0.00  0.00    +0.000 C 
ATOM     20  O   UNL     1      -2.032  12.272  21.001  0.00  0.00    +0.000 OA
ATOM     21  N   UNL     1      -3.594  12.110  19.318  0.00  0.00    +0.000 N 
ATOM     22  C   UNL     1      -4.611  12.836  20.074  0.00  0.00    +0.000 C 
ATOM     23  C   UNL     1      -5.864  11.979  20.251  0.00  0.00    +0.000 C 
ATOM     24  C   UNL     1      -6.387  11.438  18.912  0.00  0.00    +0.000 C 
ATOM     25  C   UNL     1      -5.252  10.740  18.144  0.00  0.00    +0.000 C 
ATOM     26  C   UNL     1      -4.023  11.636  18.000  0.00  0.00    +0.000 C 
BRANCH  24  27
ATOM     27  C   UNL     1      -7.031  12.523  18.057  0.00  0.00    +0.000 C 
ATOM     28  O   UNL     1      -6.844  12.672  16.862  0.00  0.00    +0.000 OA
BRANCH  27  29
ATOM     29  O   UNL     1      -7.890  13.310  18.744  0.00  0.00    +0.000 OA
ATOM     30  H   UNL     1      -7.506  14.135  19.089  0.00  0.00    +0.000 HD
ENDBRANCH  27  29
ENDBRANCH  24  27
ENDBRANCH  18  19
ENDBRANCH  17  18
ENDBRANCH   6  17
TORSDOF 7
ENDMDL
MODEL 2
REMARK VINA RESULT:      -7.4      1.100      1.860
REMARK  Name = 
REMARK  8 active torsions:
REMARK  status: ('A' for Active; 'I' for Inactive)
REMARK    1  A    between atoms: C_1  and  O_2
REMARK    2  A    between atoms: O_2  and  C_3
REMARK    3  A    between atoms: C_7  and  C_8
REMARK    4  A    between atoms: N_13  and  C_14
REMARK    5  A    between atoms: C_14  and  C_15
REMARK    6  A    between atoms: C_15  and  C_16
REMARK    7  A    between atoms: C_21  and  C_22
REMARK    8  A    between atoms: C_22  and  O_24
REMARK                            x       y       z     vdW  Elec       q    Type
REMARK                         _______ _______ _______ _____ _____    ______ ____
ROOT
ATOM      1  C   UNL     1       2.932   7.102  17.872  0.00  0.00    +0.000 C 
ATOM      2  C   UNL     1       2.278   7.882  18.743  0.00  0.00    +0.000 C 
ATOM      3  S   UNL     1       1.834   7.502  20.361  0.00  0.00    +0.000 S 
ATOM      4  C   UNL     1       0.963   9.011  20.568  0.00  0.00    +0.000 C 
ATOM      5  O   UNL     1       0.399   9.300  21.612  0.00  0.00    +0.000 OA
ATOM      6  N   UNL     1       1.023   9.756  19.417  0.00  0.00    +0.000 N 
ATOM      7  C   UNL     1       1.782   9.235  18.388  0.00  0.00    +0.000 C 
ATOM      8  O   UNL     1       2.010   9.778  17.316  0.00  0.00    +0.000 OA
ENDROOT
BRANCH   1  13
ATOM      9  C   UNL     1       2.862   3.365  18.320  0.00  0.00    +0.000 A 
ATOM     10  C   UNL     1       4.129   3.145  18.867  0.00  0.00    +0.000 A 
ATOM     11  C   UNL     1       5.018   4.205  19.051  0.00  0.00    +0.000 A 
ATOM     12  C   UNL     1       4.638   5.501  18.703  0.00  0.00    +0.000 A 
ATOM     13  C   UNL     1       3.373   5.735  18.157  0.00  0.00    +0.000 A 
ATOM     14  C   UNL     1       2.494   4.660  17.948  0.00  0.00    +0.000 A 
BRANCH   9  16
ATOM     15  C   UNL     1       0.767   2.326  18.772  0.00  0.00    +0.000 C 
ATOM     16  O   UNL     1       2.079   2.248  18.230  0.00  0.00    +0.000 OA
ENDBRANCH   9  16
ENDBRANCH   1  13
BRANCH   6  17
ATOM     17  C   UNL     1       0.386  11.070  19.317  0.00  0.00    +0.000 C 
BRANCH  17  18
ATOM     18  C   UNL     1      -1.080  10.969  18.897  0.00  0.00    +0.000 C 
BRANCH  18  19
ATOM     19  C   UNL     1      -2.021  11.706  19.829  0.00  0.00    +0.000 C 
ATOM     20  O   UNL     1      -1.685  12.006  20.974  0.00  0.00    +0.000 OA
ATOM     21  N   UNL     1      -3.271  12.029  19.305  0.00  0.00    +0.000 N 
ATOM     22  C   UNL     1      -4.174  12.895  20.058  0.00  0.00    +0.000 C 
ATOM     23  C   UNL     1      -5.529  12.216  20.258  0.00  0.00    +0.000 C 
ATOM     24  C   UNL     1      -6.133  11.730  18.931  0.00  0.00    +0.000 C 
ATOM     25  C   UNL     1      -5.108  10.876  18.167  0.00  0.00    +0.000 C 
ATOM     26  C   UNL     1      -3.771  11.597  17.998  0.00  0.00    +0.000 C 
BRANCH  24  27
ATOM     27  C   UNL     1      -6.634  12.879  18.064  0.00  0.00    +0.000 C 
ATOM     28  O   UNL     1      -6.682  12.863  16.846  0.00  0.00    +0.000 OA
BRANCH  27  29
ATOM     29  O   UNL     1      -7.076  13.939  18.777  0.00  0.00    +0.000 OA
ATOM     30  H   UNL     1      -7.803  14.438  18.367  0.00  0.00    +0.000 HD
ENDBRANCH  27  29
ENDBRANCH  24  27
ENDBRANCH  18  19
ENDBRANCH  17  18
ENDBRANCH   6  17
TORSDOF 7
ENDMDL
MODEL 3
REMARK VINA RESULT:      -7.2      7.664     10.322
REMARK  Name = 
REMARK  8 active torsions:
REMARK  status: ('A' for Active; 'I' for Inactive)
REMARK    1  A    between atoms: C_1  and  O_2
REMARK    2  A    between atoms: O_2  and  C_3
REMARK    3  A    between atoms: C_7  and  C_8
REMARK    4  A    between atoms: N_13  and  C_14
REMARK    5  A    between atoms: C_14  and  C_15
REMARK    6  A    between atoms: C_15  and  C_16
REMARK    7  A    between atoms: C_21  and  C_22
REMARK    8  A    between atoms: C_22  and  O_24
REMARK                            x       y       z     vdW  Elec       q    Type
REMARK                         _______ _______ _______ _____ _____    ______ ____
ROOT
ATOM      1  C   UNL     1       3.950   5.429  17.186  0.00  0.00    +0.000 C 
ATOM      2  C   UNL     1       5.186   5.757  17.582  0.00  0.00    +0.000 C 
ATOM      3  S   UNL     1       6.068   5.108  18.908  0.00  0.00    +0.000 S 
ATOM      4  C   UNL     1       7.408   6.218  18.671  0.00  0.00    +0.000 C 
ATOM      5  O   UNL     1       8.397   6.206  19.387  0.00  0.00    +0.000 OA
ATOM      6  N   UNL     1       7.155   7.047  17.609  0.00  0.00    +0.000 N 
ATOM      7  C   UNL     1       5.983   6.817  16.915  0.00  0.00    +0.000 C 
ATOM      8  O   UNL     1       5.617   7.404  15.906  0.00  0.00    +0.000 OA
ENDROOT
BRANCH   1  13
ATOM      9  C   UNL     1       1.856   3.755  19.830  0.00  0.00    +0.000 A 
ATOM     10  C   UNL     1       1.637   2.509  19.237  0.00  0.00    +0.000 A 
ATOM     11  C   UNL     1       2.135   2.229  17.964  0.00  0.00    +0.000 A 
ATOM     12  C   UNL     1       2.872   3.193  17.278  0.00  0.00    +0.000 A 
ATOM     13  C   UNL     1       3.101   4.443  17.860  0.00  0.00    +0.000 A 
ATOM     14  C   UNL     1       2.573   4.728  19.129  0.00  0.00    +0.000 A 
BRANCH   9  16
ATOM     15  C   UNL     1       1.235   2.699  21.873  0.00  0.00    +0.000 C 
ATOM     16  O   UNL     1       1.347   3.883  21.092  0.00  0.00    +0.000 OA
ENDBRANCH   9  16
ENDBRANCH   1  13
BRANCH   6  17
ATOM     17  C   UNL     1       8.115   8.068  17.184  0.00  0.00    +0.000 C 
BRANCH  17  18
ATOM     18  C   UNL     1       7.779   9.447  17.751  0.00  0.00    +0.000 C 
BRANCH  18  19
ATOM     19  C   UNL     1       8.816   9.959  18.730  0.00  0.00    +0.000 C 
ATOM     20  O   UNL     1       9.257   9.243  19.629  0.00  0.00    +0.000 OA
ATOM     21  N   UNL     1       9.240  11.272  18.540  0.00  0.00    +0.000 N 
ATOM     22  C   UNL     1      10.363  11.794  19.313  0.00  0.00    +0.000 C 
ATOM     23  C   UNL     1       9.963  13.073  20.050  0.00  0.00    +0.000 C 
ATOM     24  C   UNL     1       9.352  14.116  19.102  0.00  0.00    +0.000 C 
ATOM     25  C   UNL     1       8.218  13.483  18.280  0.00  0.00    +0.000 C 
ATOM     26  C   UNL     1       8.668  12.207  17.569  0.00  0.00    +0.000 C 
BRANCH  24  27
ATOM     27  C   UNL     1      10.392  14.754  18.189  0.00  0.00    +0.000 C 
ATOM     28  O   UNL     1      11.538  15.014  18.514  0.00  0.00    +0.000 OA
BRANCH  27  29
ATOM     29  O   UNL     1       9.942  14.978  16.935  0.00  0.00    +0.000 OA
ATOM     30  H   UNL     1       9.124  15.501  16.878  0.00  0.00    +0.000 HD
ENDBRANCH  27  29
ENDBRANCH  24  27
ENDBRANCH  18  19
ENDBRANCH  17  18
ENDBRANCH   6  17
TORSDOF 7
ENDMDL
MODEL 4
REMARK VINA RESULT:      -7.2      3.201     10.362
REMARK  Name = 
REMARK  8 active torsions:
REMARK  status: ('A' for Active; 'I' for Inactive)
REMARK    1  A    between atoms: C_1  and  O_2
REMARK    2  A    between atoms: O_2  and  C_3
REMARK    3  A    between atoms: C_7  and  C_8
REMARK    4  A    between atoms: N_13  and  C_14
REMARK    5  A    between atoms: C_14  and  C_15
REMARK    6  A    between atoms: C_15  and  C_16
REMARK    7  A    between atoms: C_21  and  C_22
REMARK    8  A    between atoms: C_22  and  O_24
REMARK                            x       y       z     vdW  Elec       q    Type
REMARK                         _______ _______ _______ _____ _____    ______ ____
ROOT
ATOM      1  C   UNL     1      -0.834  12.104  22.638  0.00  0.00    +0.000 C 
ATOM      2  C   UNL     1      -0.666  11.672  21.381  0.00  0.00    +0.000 C 
ATOM      3  S   UNL     1      -1.736  11.881  20.050  0.00  0.00    +0.000 S 
ATOM      4  C   UNL     1      -0.741  10.900  18.987  0.00  0.00    +0.000 C 
ATOM      5  O   UNL     1      -1.043  10.692  17.822  0.00  0.00    +0.000 OA
ATOM      6  N   UNL     1       0.362  10.439  19.659  0.00  0.00    +0.000 N 
ATOM      7  C   UNL     1       0.511  10.871  20.962  0.00  0.00    +0.000 C 
ATOM      8  O   UNL     1       1.457  10.624  21.698  0.00  0.00    +0.000 OA
ENDROOT
BRANCH   1  13
ATOM      9  C   UNL     1      -4.432  13.011  23.278  0.00  0.00    +0.000 A 
ATOM     10  C   UNL     1      -4.283  14.284  23.835  0.00  0.00    +0.000 A 
ATOM     11  C   UNL     1      -3.014  14.828  24.039  0.00  0.00    +0.000 A 
ATOM     12  C   UNL     1      -1.880  14.105  23.671  0.00  0.00    +0.000 A 
ATOM     13  C   UNL     1      -2.014  12.832  23.110  0.00  0.00    +0.000 A 
ATOM     14  C   UNL     1      -3.292  12.279  22.934  0.00  0.00    +0.000 A 
BRANCH   9  16
ATOM     15  C   UNL     1      -6.607  12.739  24.210  0.00  0.00    +0.000 C 
ATOM     16  O   UNL     1      -5.728  12.615  23.099  0.00  0.00    +0.000 OA
ENDBRANCH   9  16
ENDBRANCH   1  13
BRANCH   6  17
ATOM     17  C   UNL     1       1.368   9.602  19.004  0.00  0.00    +0.000 C 
BRANCH  17  18
ATOM     18  C   UNL     1       1.543   8.256  19.705  0.00  0.00    +0.000 C 
BRANCH  18  19
ATOM     19  C   UNL     1       2.438   7.298  18.946  0.00  0.00    +0.000 C 
ATOM     20  O   UNL     1       2.998   7.634  17.902  0.00  0.00    +0.000 OA
ATOM     21  N   UNL     1       2.593   6.031  19.505  0.00  0.00    +0.000 N 
ATOM     22  C   UNL     1       3.575   5.105  18.949  0.00  0.00    +0.000 C 
ATOM     23  C   UNL     1       2.913   3.777  18.578  0.00  0.00    +0.000 C 
ATOM     24  C   UNL     1       2.122   3.179  19.752  0.00  0.00    +0.000 C 
ATOM     25  C   UNL     1       1.153   4.227  20.324  0.00  0.00    +0.000 C 
ATOM     26  C   UNL     1       1.863   5.534  20.673  0.00  0.00    +0.000 C 
BRANCH  24  27
ATOM     27  C   UNL     1       3.029   2.627  20.844  0.00  0.00    +0.000 C 
ATOM     28  O   UNL     1       2.720   2.519  22.019  0.00  0.00    +0.000 OA
BRANCH  27  29
ATOM     29  O   UNL     1       4.232   2.213  20.387  0.00  0.00    +0.000 OA
ATOM     30  H   UNL     1       4.784   2.908  19.990  0.00  0.00    +0.000 HD
ENDBRANCH  27  29
ENDBRANCH  24  27
ENDBRANCH  18  19
ENDBRANCH  17  18
ENDBRANCH   6  17
TORSDOF 7
ENDMDL
MODEL 5
REMARK VINA RESULT:      -7.1      2.061      2.729
REMARK  Name = 
REMARK  8 active torsions:
REMARK  status: ('A' for Active; 'I' for Inactive)
REMARK    1  A    between atoms: C_1  and  O_2
REMARK    2  A    between atoms: O_2  and  C_3
REMARK    3  A    between atoms: C_7  and  C_8
REMARK    4  A    between atoms: N_13  and  C_14
REMARK    5  A    between atoms: C_14  and  C_15
REMARK    6  A    between atoms: C_15  and  C_16
REMARK    7  A    between atoms: C_21  and  C_22
REMARK    8  A    between atoms: C_22  and  O_24
REMARK                            x       y       z     vdW  Elec       q    Type
REMARK                         _______ _______ _______ _____ _____    ______ ____
ROOT
ATOM      1  C   UNL     1       2.602   6.180  19.680  0.00  0.00    +0.000 C 
ATOM      2  C   UNL     1       2.192   7.428  19.420  0.00  0.00    +0.000 C 
ATOM      3  S   UNL     1       2.319   8.284  17.933  0.00  0.00    +0.000 S 
ATOM      4  C   UNL     1       1.675   9.761  18.629  0.00  0.00    +0.000 C 
ATOM      5  O   UNL     1       1.529  10.780  17.973  0.00  0.00    +0.000 OA
ATOM      6  N   UNL     1       1.387   9.574  19.957  0.00  0.00    +0.000 N 
ATOM      7  C   UNL     1       1.583   8.301  20.454  0.00  0.00    +0.000 C 
ATOM      8  O   UNL     1       1.322   7.923  21.589  0.00  0.00    +0.000 OA
ENDROOT
BRANCH   1  13
ATOM      9  C   UNL     1       5.239   4.796  17.377  0.00  0.00    +0.000 A 
ATOM     10  C   UNL     1       4.517   3.789  16.731  0.00  0.00    +0.000 A 
ATOM     11  C   UNL     1       3.189   3.534  17.074  0.00  0.00    +0.000 A 
ATOM     12  C   UNL     1       2.565   4.300  18.058  0.00  0.00    +0.000 A 
ATOM     13  C   UNL     1       3.274   5.312  18.710  0.00  0.00    +0.000 A 
ATOM     14  C   UNL     1       4.619   5.545  18.381  0.00  0.00    +0.000 A 
BRANCH   9  16
ATOM     15  C   UNL     1       7.576   4.669  17.821  0.00  0.00    +0.000 C 
ATOM     16  O   UNL     1       6.516   4.964  16.919  0.00  0.00    +0.000 OA
ENDBRANCH   9  16
ENDBRANCH   1  13
BRANCH   6  17
ATOM     17  C   UNL     1       0.827  10.647  20.781  0.00  0.00    +0.000 C 
BRANCH  17  18
ATOM     18  C   UNL     1      -0.676  10.479  21.001  0.00  0.00    +0.000 C 
BRANCH  18  19
ATOM     19  C   UNL     1      -1.503  11.554  20.326  0.00  0.00    +0.000 C 
ATOM     20  O   UNL     1      -1.722  12.634  20.875  0.00  0.00    +0.000 OA
ATOM     21  N   UNL     1      -1.983  11.248  19.055  0.00  0.00    +0.000 N 
ATOM     22  C   UNL     1      -2.631  12.282  18.252  0.00  0.00    +0.000 C 
ATOM     23  C   UNL     1      -4.022  11.827  17.809  0.00  0.00    +0.000 C 
ATOM     24  C   UNL     1      -3.986  10.460  17.109  0.00  0.00    +0.000 C 
ATOM     25  C   UNL     1      -3.239   9.439  17.982  0.00  0.00    +0.000 C 
ATOM     26  C   UNL     1      -1.859   9.943  18.402  0.00  0.00    +0.000 C 
BRANCH  24  27
ATOM     27  C   UNL     1      -3.370  10.535  15.717  0.00  0.00    +0.000 C 
ATOM     28  O   UNL     1      -2.908   9.585  15.107  0.00  0.00    +0.000 OA
BRANCH  27  29
ATOM     29  O   UNL     1      -3.416  11.772  15.174  0.00  0.00    +0.000 OA
ATOM     30  H   UNL     1      -3.281  12.503  15.801  0.00  0.00    +0.000 HD
ENDBRANCH  27  29
ENDBRANCH  24  27
ENDBRANCH  18  19
ENDBRANCH  17  18
ENDBRANCH   6  17
TORSDOF 7
ENDMDL
MODEL 6
REMARK VINA RESULT:      -7.1      2.795     10.556
REMARK  Name = 
REMARK  8 active torsions:
REMARK  status: ('A' for Active; 'I' for Inactive)
REMARK    1  A    between atoms: C_1  and  O_2
REMARK    2  A    between atoms: O_2  and  C_3
REMARK    3  A    between atoms: C_7  and  C_8
REMARK    4  A    between atoms: N_13  and  C_14
REMARK    5  A    between atoms: C_14  and  C_15
REMARK    6  A    between atoms: C_15  and  C_16
REMARK    7  A    between atoms: C_21  and  C_22
REMARK    8  A    between atoms: C_22  and  O_24
REMARK                            x       y       z     vdW  Elec       q    Type
REMARK                         _______ _______ _______ _____ _____    ______ ____
ROOT
ATOM      1  C   UNL     1      -2.325  11.776  23.441  0.00  0.00    +0.000 C 
ATOM      2  C   UNL     1      -1.302  11.533  22.612  0.00  0.00    +0.000 C 
ATOM      3  S   UNL     1      -0.891  12.389  21.177  0.00  0.00    +0.000 S 
ATOM      4  C   UNL     1       0.413  11.280  20.788  0.00  0.00    +0.000 C 
ATOM      5  O   UNL     1       1.108  11.416  19.793  0.00  0.00    +0.000 OA
ATOM      6  N   UNL     1       0.502  10.297  21.740  0.00  0.00    +0.000 N 
ATOM      7  C   UNL     1      -0.364  10.401  22.811  0.00  0.00    +0.000 C 
ATOM      8  O   UNL     1      -0.392   9.663  23.787  0.00  0.00    +0.000 OA
ENDROOT
BRANCH   1  13
ATOM      9  C   UNL     1      -5.277  13.672  22.075  0.00  0.00    +0.000 A 
ATOM     10  C   UNL     1      -5.108  14.906  22.709  0.00  0.00    +0.000 A 
ATOM     11  C   UNL     1      -4.061  15.107  23.609  0.00  0.00    +0.000 A 
ATOM     12  C   UNL     1      -3.161  14.075  23.871  0.00  0.00    +0.000 A 
ATOM     13  C   UNL     1      -3.316  12.837  23.242  0.00  0.00    +0.000 A 
ATOM     14  C   UNL     1      -4.388  12.632  22.359  0.00  0.00    +0.000 A 
BRANCH   9  16
ATOM     15  C   UNL     1      -6.083  14.119  19.878  0.00  0.00    +0.000 C 
ATOM     16  O   UNL     1      -6.318  13.623  21.191  0.00  0.00    +0.000 OA
ENDBRANCH   9  16
ENDBRANCH   1  13
BRANCH   6  17
ATOM     17  C   UNL     1       1.514   9.242  21.665  0.00  0.00    +0.000 C 
BRANCH  17  18
ATOM     18  C   UNL     1       1.007   8.009  20.919  0.00  0.00    +0.000 C 
BRANCH  18  19
ATOM     19  C   UNL     1       1.908   7.592  19.773  0.00  0.00    +0.000 C 
ATOM     20  O   UNL     1       2.233   8.387  18.891  0.00  0.00    +0.000 OA
ATOM     21  N   UNL     1       2.347   6.270  19.790  0.00  0.00    +0.000 N 
ATOM     22  C   UNL     1       3.359   5.826  18.837  0.00  0.00    +0.000 C 
ATOM     23  C   UNL     1       2.862   4.615  18.048  0.00  0.00    +0.000 C 
ATOM     24  C   UNL     1       2.373   3.487  18.970  0.00  0.00    +0.000 C 
ATOM     25  C   UNL     1       1.357   4.038  19.984  0.00  0.00    +0.000 C 
ATOM     26  C   UNL     1       1.900   5.249  20.741  0.00  0.00    +0.000 C 
BRANCH  24  27
ATOM     27  C   UNL     1       3.519   2.779  19.682  0.00  0.00    +0.000 C 
ATOM     28  O   UNL     1       3.499   2.417  20.847  0.00  0.00    +0.000 OA
BRANCH  27  29
ATOM     29  O   UNL     1       4.583   2.539  18.883  0.00  0.00    +0.000 OA
ATOM     30  H   UNL     1       4.824   1.601  18.789  0.00  0.00    +0.000 HD
ENDBRANCH  27  29
ENDBRANCH  24  27
ENDBRANCH  18  19
ENDBRANCH  17  18
ENDBRANCH   6  17
TORSDOF 7
ENDMDL
MODEL 7
REMARK VINA RESULT:      -7.1      2.179     10.039
REMARK  Name = 
REMARK  8 active torsions:
REMARK  status: ('A' for Active; 'I' for Inactive)
REMARK    1  A    between atoms: C_1  and  O_2
REMARK    2  A    between atoms: O_2  and  C_3
REMARK    3  A    between atoms: C_7  and  C_8
REMARK    4  A    between atoms: N_13  and  C_14
REMARK    5  A    between atoms: C_14  and  C_15
REMARK    6  A    between atoms: C_15  and  C_16
REMARK    7  A    between atoms: C_21  and  C_22
REMARK    8  A    between atoms: C_22  and  O_24
REMARK                            x       y       z     vdW  Elec       q    Type
REMARK                         _______ _______ _______ _____ _____    ______ ____
ROOT
ATOM      1  C   UNL     1      -3.669  10.664  17.532  0.00  0.00    +0.000 C 
ATOM      2  C   UNL     1      -2.603  10.983  18.277  0.00  0.00    +0.000 C 
ATOM      3  S   UNL     1      -2.534  12.102  19.582  0.00  0.00    +0.000 S 
ATOM      4  C   UNL     1      -0.799  11.910  19.768  0.00  0.00    +0.000 C 
ATOM      5  O   UNL     1      -0.165  12.516  20.617  0.00  0.00    +0.000 OA
ATOM      6  N   UNL     1      -0.318  11.017  18.844  0.00  0.00    +0.000 N 
ATOM      7  C   UNL     1      -1.255  10.414  18.029  0.00  0.00    +0.000 C 
ATOM      8  O   UNL     1      -1.031   9.547  17.194  0.00  0.00    +0.000 OA
ENDROOT
BRANCH   1  13
ATOM      9  C   UNL     1      -6.582  13.020  17.154  0.00  0.00    +0.000 A 
ATOM     10  C   UNL     1      -7.452  12.512  18.122  0.00  0.00    +0.000 A 
ATOM     11  C   UNL     1      -7.110  11.383  18.867  0.00  0.00    +0.000 A 
ATOM     12  C   UNL     1      -5.880  10.759  18.658  0.00  0.00    +0.000 A 
ATOM     13  C   UNL     1      -4.998  11.258  17.695  0.00  0.00    +0.000 A 
ATOM     14  C   UNL     1      -5.362  12.377  16.929  0.00  0.00    +0.000 A 
BRANCH   9  16
ATOM     15  C   UNL     1      -6.887  15.381  17.225  0.00  0.00    +0.000 C 
ATOM     16  O   UNL     1      -7.025  14.150  16.526  0.00  0.00    +0.000 OA
ENDBRANCH   9  16
ENDBRANCH   1  13
BRANCH   6  17
ATOM     17  C   UNL     1       1.101  10.664  18.783  0.00  0.00    +0.000 C 
BRANCH  17  18
ATOM     18  C   UNL     1       1.381   9.295  19.401  0.00  0.00    +0.000 C 
BRANCH  18  19
ATOM     19  C   UNL     1       2.045   8.330  18.441  0.00  0.00    +0.000 C 
ATOM     20  O   UNL     1       2.326   8.662  17.289  0.00  0.00    +0.000 OA
ATOM     21  N   UNL     1       2.324   7.061  18.943  0.00  0.00    +0.000 N 
ATOM     22  C   UNL     1       3.124   6.126  18.158  0.00  0.00    +0.000 C 
ATOM     23  C   UNL     1       2.377   4.805  17.967  0.00  0.00    +0.000 C 
ATOM     24  C   UNL     1       1.903   4.213  19.303  0.00  0.00    +0.000 C 
ATOM     25  C   UNL     1       1.121   5.269  20.102  0.00  0.00    +0.000 C 
ATOM     26  C   UNL     1       1.908   6.569  20.259  0.00  0.00    +0.000 C 
BRANCH  24  27
ATOM     27  C   UNL     1       3.052   3.650  20.131  0.00  0.00    +0.000 C 
ATOM     28  O   UNL     1       4.173   3.427  19.706  0.00  0.00    +0.000 OA
BRANCH  27  29
ATOM     29  O   UNL     1       2.732   3.449  21.429  0.00  0.00    +0.000 OA
ATOM     30  H   UNL     1       3.242   3.979  22.066  0.00  0.00    +0.000 HD
ENDBRANCH  27  29
ENDBRANCH  24  27
ENDBRANCH  18  19
ENDBRANCH  17  18
ENDBRANCH   6  17
TORSDOF 7
ENDMDL
MODEL 8
REMARK VINA RESULT:      -7.1      2.450      3.275
REMARK  Name = 
REMARK  8 active torsions:
REMARK  status: ('A' for Active; 'I' for Inactive)
REMARK    1  A    between atoms: C_1  and  O_2
REMARK    2  A    between atoms: O_2  and  C_3
REMARK    3  A    between atoms: C_7  and  C_8
REMARK    4  A    between atoms: N_13  and  C_14
REMARK    5  A    between atoms: C_14  and  C_15
REMARK    6  A    between atoms: C_15  and  C_16
REMARK    7  A    between atoms: C_21  and  C_22
REMARK    8  A    between atoms: C_22  and  O_24
REMARK                            x       y       z     vdW  Elec       q    Type
REMARK                         _______ _______ _______ _____ _____    ______ ____
ROOT
ATOM      1  C   UNL     1       2.117   6.414  20.089  0.00  0.00    +0.000 C 
ATOM      2  C   UNL     1       1.861   7.674  19.716  0.00  0.00    +0.000 C 
ATOM      3  S   UNL     1       2.208   8.409  18.199  0.00  0.00    +0.000 S 
ATOM      4  C   UNL     1       1.656   9.985  18.740  0.00  0.00    +0.000 C 
ATOM      5  O   UNL     1       1.675  10.966  18.012  0.00  0.00    +0.000 OA
ATOM      6  N   UNL     1       1.232   9.919  20.042  0.00  0.00    +0.000 N 
ATOM      7  C   UNL     1       1.251   8.671  20.632  0.00  0.00    +0.000 C 
ATOM      8  O   UNL     1       0.852   8.400  21.756  0.00  0.00    +0.000 OA
ENDROOT
BRANCH   1  13
ATOM      9  C   UNL     1       4.837   4.401  18.439  0.00  0.00    +0.000 A 
ATOM     10  C   UNL     1       4.092   3.669  17.512  0.00  0.00    +0.000 A 
ATOM     11  C   UNL     1       2.704   3.800  17.452  0.00  0.00    +0.000 A 
ATOM     12  C   UNL     1       2.050   4.681  18.313  0.00  0.00    +0.000 A 
ATOM     13  C   UNL     1       2.784   5.421  19.243  0.00  0.00    +0.000 A 
ATOM     14  C   UNL     1       4.177   5.264  19.318  0.00  0.00    +0.000 A 
BRANCH   9  16
ATOM     15  C   UNL     1       7.014   5.365  18.356  0.00  0.00    +0.000 C 
ATOM     16  O   UNL     1       6.188   4.207  18.365  0.00  0.00    +0.000 OA
ENDBRANCH   9  16
ENDBRANCH   1  13
BRANCH   6  17
ATOM     17  C   UNL     1       0.709  11.095  20.741  0.00  0.00    +0.000 C 
BRANCH  17  18
ATOM     18  C   UNL     1      -0.799  11.007  20.970  0.00  0.00    +0.000 C 
BRANCH  18  19
ATOM     19  C   UNL     1      -1.210  11.357  22.385  0.00  0.00    +0.000 C 
ATOM     20  O   UNL     1      -0.659  10.842  23.359  0.00  0.00    +0.000 OA
ATOM     21  N   UNL     1      -2.232  12.295  22.511  0.00  0.00    +0.000 N 
ATOM     22  C   UNL     1      -2.571  12.831  23.826  0.00  0.00    +0.000 C 
ATOM     23  C   UNL     1      -4.058  12.632  24.122  0.00  0.00    +0.000 C 
ATOM     24  C   UNL     1      -4.949  13.189  23.001  0.00  0.00    +0.000 C 
ATOM     25  C   UNL     1      -4.498  12.630  21.641  0.00  0.00    +0.000 C 
ATOM     26  C   UNL     1      -3.005  12.850  21.397  0.00  0.00    +0.000 C 
BRANCH  24  27
ATOM     27  C   UNL     1      -4.972  14.713  22.978  0.00  0.00    +0.000 C 
ATOM     28  O   UNL     1      -4.586  15.429  23.887  0.00  0.00    +0.000 OA
BRANCH  27  29
ATOM     29  O   UNL     1      -5.433  15.227  21.816  0.00  0.00    +0.000 OA
ATOM     30  H   UNL     1      -5.189  14.727  21.019  0.00  0.00    +0.000 HD
ENDBRANCH  27  29
ENDBRANCH  24  27
ENDBRANCH  18  19
ENDBRANCH  17  18
ENDBRANCH   6  17
TORSDOF 7
ENDMDL
MODEL 9
REMARK VINA RESULT:      -7.0      3.790      6.045
REMARK  Name = 
REMARK  8 active torsions:
REMARK  status: ('A' for Active; 'I' for Inactive)
REMARK    1  A    between atoms: C_1  and  O_2
REMARK    2  A    between atoms: O_2  and  C_3
REMARK    3  A    between atoms: C_7  and  C_8
REMARK    4  A    between atoms: N_13  and  C_14
REMARK    5  A    between atoms: C_14  and  C_15
REMARK    6  A    between atoms: C_15  and  C_16
REMARK    7  A    between atoms: C_21  and  C_22
REMARK    8  A    between atoms: C_22  and  O_24
REMARK                            x       y       z     vdW  Elec       q    Type
REMARK                         _______ _______ _______ _____ _____    ______ ____
ROOT
ATOM      1  C   UNL     1       2.869   7.180  17.847  0.00  0.00    +0.000 C 
ATOM      2  C   UNL     1       2.241   7.897  18.787  0.00  0.00    +0.000 C 
ATOM      3  S   UNL     1       1.853   7.409  20.391  0.00  0.00    +0.000 S 
ATOM      4  C   UNL     1       0.983   8.897  20.724  0.00  0.00    +0.000 C 
ATOM      5  O   UNL     1       0.453   9.113  21.803  0.00  0.00    +0.000 OA
ATOM      6  N   UNL     1       1.003   9.716  19.625  0.00  0.00    +0.000 N 
ATOM      7  C   UNL     1       1.730   9.268  18.539  0.00  0.00    +0.000 C 
ATOM      8  O   UNL     1       1.920   9.882  17.498  0.00  0.00    +0.000 OA
ENDROOT
BRANCH   1  13
ATOM      9  C   UNL     1       2.816   3.424  18.099  0.00  0.00    +0.000 A 
ATOM     10  C   UNL     1       4.118   3.176  18.542  0.00  0.00    +0.000 A 
ATOM     11  C   UNL     1       5.023   4.223  18.718  0.00  0.00    +0.000 A 
ATOM     12  C   UNL     1       4.624   5.536  18.467  0.00  0.00    +0.000 A 
ATOM     13  C   UNL     1       3.324   5.799  18.026  0.00  0.00    +0.000 A 
ATOM     14  C   UNL     1       2.428   4.738  17.824  0.00  0.00    +0.000 A 
BRANCH   9  16
ATOM     15  C   UNL     1       0.818   2.308  18.760  0.00  0.00    +0.000 C 
ATOM     16  O   UNL     1       2.024   2.314  18.006  0.00  0.00    +0.000 OA
ENDBRANCH   9  16
ENDBRANCH   1  13
BRANCH   6  17
ATOM     17  C   UNL     1       0.358  11.030  19.632  0.00  0.00    +0.000 C 
BRANCH  17  18
ATOM     18  C   UNL     1       1.197  12.080  20.361  0.00  0.00    +0.000 C 
BRANCH  18  19
ATOM     19  C   UNL     1       0.775  13.502  20.051  0.00  0.00    +0.000 C 
ATOM     20  O   UNL     1      -0.407  13.842  20.086  0.00  0.00    +0.000 OA
ATOM     21  N   UNL     1       1.802  14.390  19.739  0.00  0.00    +0.000 N 
ATOM     22  C   UNL     1       1.517  15.816  19.607  0.00  0.00    +0.000 C 
ATOM     23  C   UNL     1       1.989  16.336  18.248  0.00  0.00    +0.000 C 
ATOM     24  C   UNL     1       3.463  15.992  17.980  0.00  0.00    +0.000 C 
ATOM     25  C   UNL     1       3.702  14.488  18.195  0.00  0.00    +0.000 C 
ATOM     26  C   UNL     1       3.208  14.019  19.563  0.00  0.00    +0.000 C 
BRANCH  24  27
ATOM     27  C   UNL     1       4.418  16.820  18.830  0.00  0.00    +0.000 C 
ATOM     28  O   UNL     1       4.083  17.730  19.570  0.00  0.00    +0.000 OA
BRANCH  27  29
ATOM     29  O   UNL     1       5.707  16.425  18.730  0.00  0.00    +0.000 OA
ATOM     30  H   UNL     1       6.343  16.965  19.230  0.00  0.00    +0.000 HD
ENDBRANCH  27  29
ENDBRANCH  24  27
ENDBRANCH  18  19
ENDBRANCH  17  18
ENDBRANCH   6  17
TORSDOF 7
ENDMDL
