MODEL 1
REMARK VINA RESULT:      -8.1      0.000      0.000
REMARK  Name = 
REMARK  10 active torsions:
REMARK  status: ('A' for Active; 'I' for Inactive)
REMARK    1  A    between atoms: C_1  and  C_2
REMARK    2  A    between atoms: C_2  and  N_3
REMARK    3  A    between atoms: C_9  and  N_10
REMARK    4  A    between atoms: N_13  and  C_14
REMARK    5  A    between atoms: C_14  and  C_15
REMARK    6  A    between atoms: C_14  and  C_21
REMARK    7  A    between atoms: C_21  and  C_22
REMARK    8  A    between atoms: C_21  and  C_23
REMARK    9  A    between atoms: C_21  and  O_24
REMARK   10  A    between atoms: O_24  and  C_25
REMARK                            x       y       z     vdW  Elec       q    Type
REMARK                         _______ _______ _______ _____ _____    ______ ____
ROOT
ATOM      1  N   UNL     1       6.980   5.168  17.997  0.00  0.00    +0.000 N 
ATOM      2  C   UNL     1       6.026   5.396  18.961  0.00  0.00    +0.000 C 
ATOM      3  O   UNL     1       6.360   5.765  20.083  0.00  0.00    +0.000 OA
ATOM      4  N   UNL     1       4.740   5.187  18.588  0.00  0.00    +0.000 N 
ATOM      5  H   UNL     1       7.923   5.338  18.311  0.00  0.00    +0.000 HD
ATOM      6  H   UNL     1       4.630   4.832  17.643  0.00  0.00    +0.000 HD
ENDROOT
BRANCH   1  13
ATOM      7  N   UNL     1       5.455   2.665  12.184  0.00  0.00    +0.000 N 
ATOM      8  C   UNL     1       6.245   3.603  12.754  0.00  0.00    +0.000 A 
ATOM      9  N   UNL     1       7.095   4.416  12.127  0.00  0.00    +0.000 NA
ATOM     10  N   UNL     1       7.623   5.169  13.111  0.00  0.00    +0.000 N 
ATOM     11  C   UNL     1       7.174   4.854  14.363  0.00  0.00    +0.000 A 
ATOM     12  C   UNL     1       7.466   5.351  15.638  0.00  0.00    +0.000 A 
ATOM     13  C   UNL     1       6.768   4.739  16.676  0.00  0.00    +0.000 A 
ATOM     14  N   UNL     1       5.881   3.737  16.479  0.00  0.00    +0.000 NA
ATOM     15  C   UNL     1       5.609   3.281  15.241  0.00  0.00    +0.000 A 
ATOM     16  C   UNL     1       6.255   3.834  14.149  0.00  0.00    +0.000 A 
ATOM     17  H   UNL     1       4.975   2.008  12.788  0.00  0.00    +0.000 HD
ATOM     18  H   UNL     1       8.297   5.881  12.852  0.00  0.00    +0.000 HD
BRANCH   7  20
ATOM     19  C   UNL     1       6.304   0.681  11.068  0.00  0.00    +0.000 C 
ATOM     20  C   UNL     1       5.813   2.110  10.890  0.00  0.00    +0.000 C 
ENDBRANCH   7  20
ENDBRANCH   1  13
BRANCH   4  21
ATOM     21  C   UNL     1       3.535   5.236  19.397  0.00  0.00    +0.000 C 
BRANCH  21  22
ATOM     22  C   UNL     1       2.859   6.595  19.152  0.00  0.00    +0.000 A 
ATOM     23  C   UNL     1       3.003   7.287  17.933  0.00  0.00    +0.000 A 
ATOM     24  C   UNL     1       2.378   8.519  17.722  0.00  0.00    +0.000 A 
ATOM     25  C   UNL     1       1.604   9.084  18.730  0.00  0.00    +0.000 A 
ATOM     26  C   UNL     1       1.458   8.422  19.946  0.00  0.00    +0.000 A 
ATOM     27  C   UNL     1       2.083   7.189  20.159  0.00  0.00    +0.000 A 
ENDBRANCH  21  22
BRANCH  21  28
ATOM     28  C   UNL     1       2.560   4.001  19.163  0.00  0.00    +0.000 C 
ATOM     29  C   UNL     1       1.464   3.978  20.243  0.00  0.00    +0.000 C 
ATOM     30  C   UNL     1       1.892   4.161  17.782  0.00  0.00    +0.000 C 
BRANCH  28  31
ATOM     31  O   UNL     1       3.328   2.776  19.237  0.00  0.00    +0.000 OA
ATOM     32  C   UNL     1       3.214   1.867  18.154  0.00  0.00    +0.000 C 
ENDBRANCH  28  31
ENDBRANCH  21  28
ENDBRANCH   4  21
TORSDOF 6
ENDMDL
MODEL 2
REMARK VINA RESULT:      -7.9      0.713      1.100
REMARK  Name = 
REMARK  10 active torsions:
REMARK  status: ('A' for Active; 'I' for Inactive)
REMARK    1  A    between atoms: C_1  and  C_2
REMARK    2  A    between atoms: C_2  and  N_3
REMARK    3  A    between atoms: C_9  and  N_10
REMARK    4  A    between atoms: N_13  and  C_14
REMARK    5  A    between atoms: C_14  and  C_15
REMARK    6  A    between atoms: C_14  and  C_21
REMARK    7  A    between atoms: C_21  and  C_22
REMARK    8  A    between atoms: C_21  and  C_23
REMARK    9  A    between atoms: C_21  and  O_24
REMARK   10  A    between atoms: O_24  and  C_25
REMARK                            x       y       z     vdW  Elec       q    Type
REMARK                         _______ _______ _______ _____ _____    ______ ____
ROOT
ATOM      1  N   UNL     1       7.193   4.987  18.063  0.00  0.00    +0.000 N 
ATOM      2  C   UNL     1       6.305   5.255  19.078  0.00  0.00    +0.000 C 
ATOM      3  O   UNL     1       6.719   5.556  20.194  0.00  0.00    +0.000 OA
ATOM      4  N   UNL     1       4.991   5.163  18.761  0.00  0.00    +0.000 N 
ATOM      5  H   UNL     1       8.160   5.069  18.337  0.00  0.00    +0.000 HD
ATOM      6  H   UNL     1       4.809   4.852  17.812  0.00  0.00    +0.000 HD
ENDROOT
BRANCH   1  13
ATOM      7  N   UNL     1       5.209   2.820  12.254  0.00  0.00    +0.000 N 
ATOM      8  C   UNL     1       6.094   3.674  12.814  0.00  0.00    +0.000 A 
ATOM      9  N   UNL     1       6.974   4.444  12.173  0.00  0.00    +0.000 NA
ATOM     10  N   UNL     1       7.603   5.120  13.154  0.00  0.00    +0.000 N 
ATOM     11  C   UNL     1       7.191   4.793  14.415  0.00  0.00    +0.000 A 
ATOM     12  C   UNL     1       7.579   5.219  15.690  0.00  0.00    +0.000 A 
ATOM     13  C   UNL     1       6.887   4.623  16.740  0.00  0.00    +0.000 A 
ATOM     14  N   UNL     1       5.917   3.699  16.555  0.00  0.00    +0.000 NA
ATOM     15  C   UNL     1       5.553   3.310  15.318  0.00  0.00    +0.000 A 
ATOM     16  C   UNL     1       6.187   3.852  14.214  0.00  0.00    +0.000 A 
ATOM     17  H   UNL     1       4.709   2.179  12.858  0.00  0.00    +0.000 HD
ATOM     18  H   UNL     1       8.316   5.788  12.885  0.00  0.00    +0.000 HD
BRANCH   7  20
ATOM     19  C   UNL     1       6.331   1.043  11.034  0.00  0.00    +0.000 C 
ATOM     20  C   UNL     1       5.462   2.287  10.926  0.00  0.00    +0.000 C 
ENDBRANCH   7  20
ENDBRANCH   1  13
BRANCH   4  21
ATOM     21  C   UNL     1       3.832   5.280  19.628  0.00  0.00    +0.000 C 
BRANCH  21  22
ATOM     22  C   UNL     1       3.076   6.560  19.235  0.00  0.00    +0.000 A 
ATOM     23  C   UNL     1       3.247   7.164  17.973  0.00  0.00    +0.000 A 
ATOM     24  C   UNL     1       2.549   8.325  17.627  0.00  0.00    +0.000 A 
ATOM     25  C   UNL     1       1.674   8.906  18.540  0.00  0.00    +0.000 A 
ATOM     26  C   UNL     1       1.501   8.330  19.797  0.00  0.00    +0.000 A 
ATOM     27  C   UNL     1       2.199   7.169  20.145  0.00  0.00    +0.000 A 
ENDBRANCH  21  22
BRANCH  21  28
ATOM     28  C   UNL     1       2.908   3.985  19.634  0.00  0.00    +0.000 C 
ATOM     29  C   UNL     1       2.000   3.975  18.391  0.00  0.00    +0.000 C 
ATOM     30  C   UNL     1       3.814   2.738  19.596  0.00  0.00    +0.000 C 
BRANCH  28  31
ATOM     31  O   UNL     1       2.085   4.001  20.825  0.00  0.00    +0.000 OA
ATOM     32  C   UNL     1       1.892   2.770  21.503  0.00  0.00    +0.000 C 
ENDBRANCH  28  31
ENDBRANCH  21  28
ENDBRANCH   4  21
TORSDOF 6
ENDMDL
MODEL 3
REMARK VINA RESULT:      -7.9      0.904      1.403
REMARK  Name = 
REMARK  10 active torsions:
REMARK  status: ('A' for Active; 'I' for Inactive)
REMARK    1  A    between atoms: C_1  and  C_2
REMARK    2  A    between atoms: C_2  and  N_3
REMARK    3  A    between atoms: C_9  and  N_10
REMARK    4  A    between atoms: N_13  and  C_14
REMARK    5  A    between atoms: C_14  and  C_15
REMARK    6  A    between atoms: C_14  and  C_21
REMARK    7  A    between atoms: C_21  and  C_22
REMARK    8  A    between atoms: C_21  and  C_23
REMARK    9  A    between atoms: C_21  and  O_24
REMARK   10  A    between atoms: O_24  and  C_25
REMARK                            x       y       z     vdW  Elec       q    Type
REMARK                         _______ _______ _______ _____ _____    ______ ____
ROOT
ATOM      1  N   UNL     1       6.946   4.927  17.908  0.00  0.00    +0.000 N 
ATOM      2  C   UNL     1       6.148   5.199  18.995  0.00  0.00    +0.000 C 
ATOM      3  O   UNL     1       6.655   5.409  20.093  0.00  0.00    +0.000 OA
ATOM      4  N   UNL     1       4.813   5.213  18.765  0.00  0.00    +0.000 N 
ATOM      5  H   UNL     1       7.933   4.928  18.118  0.00  0.00    +0.000 HD
ATOM      6  H   UNL     1       4.548   4.968  17.816  0.00  0.00    +0.000 HD
ENDROOT
BRANCH   1  13
ATOM      7  N   UNL     1       4.286   3.528  12.134  0.00  0.00    +0.000 N 
ATOM      8  C   UNL     1       5.454   3.923  12.688  0.00  0.00    +0.000 A 
ATOM      9  N   UNL     1       6.597   4.170  12.049  0.00  0.00    +0.000 NA
ATOM     10  N   UNL     1       7.449   4.548  13.021  0.00  0.00    +0.000 N 
ATOM     11  C   UNL     1       6.913   4.524  14.278  0.00  0.00    +0.000 A 
ATOM     12  C   UNL     1       7.433   4.808  15.546  0.00  0.00    +0.000 A 
ATOM     13  C   UNL     1       6.529   4.658  16.594  0.00  0.00    +0.000 A 
ATOM     14  N   UNL     1       5.249   4.262  16.413  0.00  0.00    +0.000 NA
ATOM     15  C   UNL     1       4.767   4.002  15.182  0.00  0.00    +0.000 A 
ATOM     16  C   UNL     1       5.596   4.128  14.081  0.00  0.00    +0.000 A 
ATOM     17  H   UNL     1       3.541   3.222  12.747  0.00  0.00    +0.000 HD
ATOM     18  H   UNL     1       8.392   4.804  12.750  0.00  0.00    +0.000 HD
BRANCH   7  20
ATOM     19  C   UNL     1       3.203   3.443   9.961  0.00  0.00    +0.000 C 
ATOM     20  C   UNL     1       4.291   2.855  10.846  0.00  0.00    +0.000 C 
ENDBRANCH   7  20
ENDBRANCH   1  13
BRANCH   4  21
ATOM     21  C   UNL     1       3.724   5.360  19.715  0.00  0.00    +0.000 C 
BRANCH  21  22
ATOM     22  C   UNL     1       2.953   6.640  19.352  0.00  0.00    +0.000 A 
ATOM     23  C   UNL     1       2.101   7.280  20.275  0.00  0.00    +0.000 A 
ATOM     24  C   UNL     1       1.411   8.446  19.933  0.00  0.00    +0.000 A 
ATOM     25  C   UNL     1       1.553   8.988  18.660  0.00  0.00    +0.000 A 
ATOM     26  C   UNL     1       2.381   8.363  17.729  0.00  0.00    +0.000 A 
ATOM     27  C   UNL     1       3.072   7.196  18.070  0.00  0.00    +0.000 A 
ENDBRANCH  21  22
BRANCH  21  28
ATOM     28  C   UNL     1       2.792   4.076  19.819  0.00  0.00    +0.000 C 
ATOM     29  C   UNL     1       2.112   4.024  21.199  0.00  0.00    +0.000 C 
ATOM     30  C   UNL     1       1.702   4.174  18.732  0.00  0.00    +0.000 C 
BRANCH  28  31
ATOM     31  O   UNL     1       3.605   2.891  19.643  0.00  0.00    +0.000 OA
ATOM     32  C   UNL     1       3.162   1.928  18.700  0.00  0.00    +0.000 C 
ENDBRANCH  28  31
ENDBRANCH  21  28
ENDBRANCH   4  21
TORSDOF 6
ENDMDL
MODEL 4
REMARK VINA RESULT:      -7.5      1.123      1.785
REMARK  Name = 
REMARK  10 active torsions:
REMARK  status: ('A' for Active; 'I' for Inactive)
REMARK    1  A    between atoms: C_1  and  C_2
REMARK    2  A    between atoms: C_2  and  N_3
REMARK    3  A    between atoms: C_9  and  N_10
REMARK    4  A    between atoms: N_13  and  C_14
REMARK    5  A    between atoms: C_14  and  C_15
REMARK    6  A    between atoms: C_14  and  C_21
REMARK    7  A    between atoms: C_21  and  C_22
REMARK    8  A    between atoms: C_21  and  C_23
REMARK    9  A    between atoms: C_21  and  O_24
REMARK   10  A    between atoms: O_24  and  C_25
REMARK                            x       y       z     vdW  Elec       q    Type
REMARK                         _______ _______ _______ _____ _____    ______ ____
ROOT
ATOM      1  N   UNL     1       6.808   4.863  17.825  0.00  0.00    +0.000 N 
ATOM      2  C   UNL     1       5.991   5.116  18.902  0.00  0.00    +0.000 C 
ATOM      3  O   UNL     1       6.480   5.320  20.010  0.00  0.00    +0.000 OA
ATOM      4  N   UNL     1       4.660   5.120  18.653  0.00  0.00    +0.000 N 
ATOM      5  H   UNL     1       7.791   4.872  18.049  0.00  0.00    +0.000 HD
ATOM      6  H   UNL     1       4.411   4.882  17.698  0.00  0.00    +0.000 HD
ENDROOT
BRANCH   1  13
ATOM      7  N   UNL     1       4.232   3.562  11.989  0.00  0.00    +0.000 N 
ATOM      8  C   UNL     1       5.406   3.888  12.574  0.00  0.00    +0.000 A 
ATOM      9  N   UNL     1       6.581   4.051  11.966  0.00  0.00    +0.000 NA
ATOM     10  N   UNL     1       7.428   4.386  12.959  0.00  0.00    +0.000 N 
ATOM     11  C   UNL     1       6.855   4.414  14.199  0.00  0.00    +0.000 A 
ATOM     12  C   UNL     1       7.355   4.681  15.479  0.00  0.00    +0.000 A 
ATOM     13  C   UNL     1       6.413   4.604  16.501  0.00  0.00    +0.000 A 
ATOM     14  N   UNL     1       5.115   4.291  16.287  0.00  0.00    +0.000 NA
ATOM     15  C   UNL     1       4.654   4.046  15.045  0.00  0.00    +0.000 A 
ATOM     16  C   UNL     1       5.521   4.102  13.968  0.00  0.00    +0.000 A 
ATOM     17  H   UNL     1       3.450   3.315  12.584  0.00  0.00    +0.000 HD
ATOM     18  H   UNL     1       8.393   4.575  12.714  0.00  0.00    +0.000 HD
BRANCH   7  20
ATOM     19  C   UNL     1       3.119   3.431   9.833  0.00  0.00    +0.000 C 
ATOM     20  C   UNL     1       4.230   2.873  10.710  0.00  0.00    +0.000 C 
ENDBRANCH   7  20
ENDBRANCH   1  13
BRANCH   4  21
ATOM     21  C   UNL     1       3.556   5.245  19.588  0.00  0.00    +0.000 C 
BRANCH  21  22
ATOM     22  C   UNL     1       2.861   6.590  19.317  0.00  0.00    +0.000 A 
ATOM     23  C   UNL     1       2.068   7.226  20.294  0.00  0.00    +0.000 A 
ATOM     24  C   UNL     1       1.447   8.450  20.036  0.00  0.00    +0.000 A 
ATOM     25  C   UNL     1       1.600   9.057  18.794  0.00  0.00    +0.000 A 
ATOM     26  C   UNL     1       2.370   8.439  17.811  0.00  0.00    +0.000 A 
ATOM     27  C   UNL     1       2.992   7.213  18.067  0.00  0.00    +0.000 A 
ENDBRANCH  21  22
BRANCH  21  28
ATOM     28  C   UNL     1       2.557   4.009  19.564  0.00  0.00    +0.000 C 
ATOM     29  C   UNL     1       1.649   4.082  18.323  0.00  0.00    +0.000 C 
ATOM     30  C   UNL     1       3.387   2.711  19.495  0.00  0.00    +0.000 C 
BRANCH  28  31
ATOM     31  O   UNL     1       1.737   4.045  20.757  0.00  0.00    +0.000 OA
ATOM     32  C   UNL     1       2.187   3.309  21.883  0.00  0.00    +0.000 C 
ENDBRANCH  28  31
ENDBRANCH  21  28
ENDBRANCH   4  21
TORSDOF 6
ENDMDL
MODEL 5
REMARK VINA RESULT:      -6.5      1.417      1.903
REMARK  Name = 
REMARK  10 active torsions:
REMARK  status: ('A' for Active; 'I' for Inactive)
REMARK    1  A    between atoms: C_1  and  C_2
REMARK    2  A    between atoms: C_2  and  N_3
REMARK    3  A    between atoms: C_9  and  N_10
REMARK    4  A    between atoms: N_13  and  C_14
REMARK    5  A    between atoms: C_14  and  C_15
REMARK    6  A    between atoms: C_14  and  C_21
REMARK    7  A    between atoms: C_21  and  C_22
REMARK    8  A    between atoms: C_21  and  C_23
REMARK    9  A    between atoms: C_21  and  O_24
REMARK   10  A    between atoms: O_24  and  C_25
REMARK                            x       y       z     vdW  Elec       q    Type
REMARK                         _______ _______ _______ _____ _____    ______ ____
ROOT
ATOM      1  N   UNL     1       6.884   5.253  17.194  0.00  0.00    +0.000 N 
ATOM      2  C   UNL     1       6.169   5.416  18.357  0.00  0.00    +0.000 C 
ATOM      3  O   UNL     1       6.749   5.711  19.399  0.00  0.00    +0.000 OA
ATOM      4  N   UNL     1       4.831   5.231  18.265  0.00  0.00    +0.000 N 
ATOM      5  H   UNL     1       7.876   5.402  17.302  0.00  0.00    +0.000 HD
ATOM      6  H   UNL     1       4.509   4.939  17.348  0.00  0.00    +0.000 HD
ENDROOT
BRANCH   1  13
ATOM      7  N   UNL     1       4.037   4.290  11.419  0.00  0.00    +0.000 N 
ATOM      8  C   UNL     1       5.023   3.799  12.203  0.00  0.00    +0.000 A 
ATOM      9  N   UNL     1       5.823   2.769  11.927  0.00  0.00    +0.000 NA
ATOM     10  N   UNL     1       6.641   2.686  12.994  0.00  0.00    +0.000 N 
ATOM     11  C   UNL     1       6.382   3.603  13.973  0.00  0.00    +0.000 A 
ATOM     12  C   UNL     1       6.953   3.854  15.226  0.00  0.00    +0.000 A 
ATOM     13  C   UNL     1       6.380   4.911  15.927  0.00  0.00    +0.000 A 
ATOM     14  N   UNL     1       5.347   5.641  15.448  0.00  0.00    +0.000 NA
ATOM     15  C   UNL     1       4.819   5.388  14.235  0.00  0.00    +0.000 A 
ATOM     16  C   UNL     1       5.329   4.356  13.467  0.00  0.00    +0.000 A 
ATOM     17  H   UNL     1       3.401   4.972  11.815  0.00  0.00    +0.000 HD
ATOM     18  H   UNL     1       7.355   1.966  12.987  0.00  0.00    +0.000 HD
BRANCH   7  20
ATOM     19  C   UNL     1       2.774   4.300   9.343  0.00  0.00    +0.000 C 
ATOM     20  C   UNL     1       3.423   3.437  10.415  0.00  0.00    +0.000 C 
ENDBRANCH   7  20
ENDBRANCH   1  13
BRANCH   4  21
ATOM     21  C   UNL     1       3.835   5.226  19.322  0.00  0.00    +0.000 C 
BRANCH  21  22
ATOM     22  C   UNL     1       3.009   6.518  19.198  0.00  0.00    +0.000 A 
ATOM     23  C   UNL     1       3.012   7.289  18.018  0.00  0.00    +0.000 A 
ATOM     24  C   UNL     1       2.252   8.458  17.917  0.00  0.00    +0.000 A 
ATOM     25  C   UNL     1       1.483   8.880  18.996  0.00  0.00    +0.000 A 
ATOM     26  C   UNL     1       1.476   8.137  20.175  0.00  0.00    +0.000 A 
ATOM     27  C   UNL     1       2.236   6.968  20.278  0.00  0.00    +0.000 A 
ENDBRANCH  21  22
BRANCH  21  28
ATOM     28  C   UNL     1       2.939   3.912  19.348  0.00  0.00    +0.000 C 
ATOM     29  C   UNL     1       1.629   4.147  18.575  0.00  0.00    +0.000 C 
ATOM     30  C   UNL     1       3.722   2.774  18.662  0.00  0.00    +0.000 C 
BRANCH  28  31
ATOM     31  O   UNL     1       2.629   3.583  20.723  0.00  0.00    +0.000 OA
ATOM     32  C   UNL     1       1.308   3.150  21.009  0.00  0.00    +0.000 C 
ENDBRANCH  28  31
ENDBRANCH  21  28
ENDBRANCH   4  21
TORSDOF 6
ENDMDL
MODEL 6
REMARK VINA RESULT:      -6.3      8.885     13.398
REMARK  Name = 
REMARK  10 active torsions:
REMARK  status: ('A' for Active; 'I' for Inactive)
REMARK    1  A    between atoms: C_1  and  C_2
REMARK    2  A    between atoms: C_2  and  N_3
REMARK    3  A    between atoms: C_9  and  N_10
REMARK    4  A    between atoms: N_13  and  C_14
REMARK    5  A    between atoms: C_14  and  C_15
REMARK    6  A    between atoms: C_14  and  C_21
REMARK    7  A    between atoms: C_21  and  C_22
REMARK    8  A    between atoms: C_21  and  C_23
REMARK    9  A    between atoms: C_21  and  O_24
REMARK   10  A    between atoms: O_24  and  C_25
REMARK                            x       y       z     vdW  Elec       q    Type
REMARK                         _______ _______ _______ _____ _____    ______ ____
ROOT
ATOM      1  N   UNL     1      -1.096  10.585  23.037  0.00  0.00    +0.000 N 
ATOM      2  C   UNL     1      -0.594  10.169  21.826  0.00  0.00    +0.000 C 
ATOM      3  O   UNL     1      -0.014   9.090  21.739  0.00  0.00    +0.000 OA
ATOM      4  N   UNL     1      -0.782  11.011  20.781  0.00  0.00    +0.000 N 
ATOM      5  H   UNL     1      -0.939   9.931  23.788  0.00  0.00    +0.000 HD
ATOM      6  H   UNL     1      -1.232  11.888  21.025  0.00  0.00    +0.000 HD
ENDROOT
BRANCH   1  13
ATOM      7  N   UNL     1      -4.874  15.687  24.480  0.00  0.00    +0.000 N 
ATOM      8  C   UNL     1      -3.618  15.384  24.080  0.00  0.00    +0.000 A 
ATOM      9  N   UNL     1      -2.635  16.246  23.820  0.00  0.00    +0.000 NA
ATOM     10  N   UNL     1      -1.588  15.468  23.484  0.00  0.00    +0.000 N 
ATOM     11  C   UNL     1      -1.862  14.129  23.481  0.00  0.00    +0.000 A 
ATOM     12  C   UNL     1      -1.098  12.996  23.179  0.00  0.00    +0.000 A 
ATOM     13  C   UNL     1      -1.774  11.786  23.308  0.00  0.00    +0.000 A 
ATOM     14  N   UNL     1      -3.069  11.700  23.688  0.00  0.00    +0.000 NA
ATOM     15  C   UNL     1      -3.783  12.804  23.983  0.00  0.00    +0.000 A 
ATOM     16  C   UNL     1      -3.190  14.051  23.884  0.00  0.00    +0.000 A 
ATOM     17  H   UNL     1      -5.567  14.949  24.489  0.00  0.00    +0.000 HD
ATOM     18  H   UNL     1      -0.712  15.926  23.259  0.00  0.00    +0.000 HD
BRANCH   7  20
ATOM     19  C   UNL     1      -5.207  17.917  25.385  0.00  0.00    +0.000 C 
ATOM     20  C   UNL     1      -5.426  16.999  24.191  0.00  0.00    +0.000 C 
ENDBRANCH   7  20
ENDBRANCH   1  13
BRANCH   4  21
ATOM     21  C   UNL     1      -0.282  10.905  19.422  0.00  0.00    +0.000 C 
BRANCH  21  22
ATOM     22  C   UNL     1      -1.494  10.822  18.480  0.00  0.00    +0.000 A 
ATOM     23  C   UNL     1      -1.472  10.036  17.310  0.00  0.00    +0.000 A 
ATOM     24  C   UNL     1      -2.584   9.965  16.466  0.00  0.00    +0.000 A 
ATOM     25  C   UNL     1      -3.734  10.684  16.772  0.00  0.00    +0.000 A 
ATOM     26  C   UNL     1      -3.771  11.476  17.918  0.00  0.00    +0.000 A 
ATOM     27  C   UNL     1      -2.659  11.549  18.764  0.00  0.00    +0.000 A 
ENDBRANCH  21  22
BRANCH  21  28
ATOM     28  C   UNL     1       0.739  12.059  19.027  0.00  0.00    +0.000 C 
ATOM     29  C   UNL     1       1.297  12.731  20.294  0.00  0.00    +0.000 C 
ATOM     30  C   UNL     1       1.909  11.430  18.243  0.00  0.00    +0.000 C 
BRANCH  28  31
ATOM     31  O   UNL     1       0.044  13.048  18.230  0.00  0.00    +0.000 OA
ATOM     32  C   UNL     1      -0.149  14.331  18.803  0.00  0.00    +0.000 C 
ENDBRANCH  28  31
ENDBRANCH  21  28
ENDBRANCH   4  21
TORSDOF 6
ENDMDL
MODEL 7
REMARK VINA RESULT:      -6.3      9.463     12.388
REMARK  Name = 
REMARK  10 active torsions:
REMARK  status: ('A' for Active; 'I' for Inactive)
REMARK    1  A    between atoms: C_1  and  C_2
REMARK    2  A    between atoms: C_2  and  N_3
REMARK    3  A    between atoms: C_9  and  N_10
REMARK    4  A    between atoms: N_13  and  C_14
REMARK    5  A    between atoms: C_14  and  C_15
REMARK    6  A    between atoms: C_14  and  C_21
REMARK    7  A    between atoms: C_21  and  C_22
REMARK    8  A    between atoms: C_21  and  C_23
REMARK    9  A    between atoms: C_21  and  O_24
REMARK   10  A    between atoms: O_24  and  C_25
REMARK                            x       y       z     vdW  Elec       q    Type
REMARK                         _______ _______ _______ _____ _____    ______ ____
ROOT
ATOM      1  N   UNL     1       0.183  11.512  18.454  0.00  0.00    +0.000 N 
ATOM      2  C   UNL     1       1.133  12.465  18.738  0.00  0.00    +0.000 C 
ATOM      3  O   UNL     1       2.325  12.210  18.588  0.00  0.00    +0.000 OA
ATOM      4  N   UNL     1       0.668  13.658  19.179  0.00  0.00    +0.000 N 
ATOM      5  H   UNL     1       0.568  10.640  18.125  0.00  0.00    +0.000 HD
ATOM      6  H   UNL     1      -0.340  13.697  19.300  0.00  0.00    +0.000 HD
ENDROOT
BRANCH   1  13
ATOM      7  N   UNL     1      -6.134  12.371  19.773  0.00  0.00    +0.000 N 
ATOM      8  C   UNL     1      -5.309  11.975  18.778  0.00  0.00    +0.000 A 
ATOM      9  N   UNL     1      -5.668  11.568  17.560  0.00  0.00    +0.000 NA
ATOM     10  N   UNL     1      -4.501  11.307  16.938  0.00  0.00    +0.000 N 
ATOM     11  C   UNL     1      -3.395  11.495  17.718  0.00  0.00    +0.000 A 
ATOM     12  C   UNL     1      -2.024  11.325  17.492  0.00  0.00    +0.000 A 
ATOM     13  C   UNL     1      -1.211  11.639  18.577  0.00  0.00    +0.000 A 
ATOM     14  N   UNL     1      -1.697  12.070  19.763  0.00  0.00    +0.000 NA
ATOM     15  C   UNL     1      -3.020  12.235  19.956  0.00  0.00    +0.000 A 
ATOM     16  C   UNL     1      -3.903  11.948  18.929  0.00  0.00    +0.000 A 
ATOM     17  H   UNL     1      -5.743  12.502  20.698  0.00  0.00    +0.000 HD
ATOM     18  H   UNL     1      -4.540  10.994  15.975  0.00  0.00    +0.000 HD
BRANCH   7  20
ATOM     19  C   UNL     1      -7.633  10.649  20.605  0.00  0.00    +0.000 C 
ATOM     20  C   UNL     1      -7.517  11.924  19.784  0.00  0.00    +0.000 C 
ENDBRANCH   7  20
ENDBRANCH   1  13
BRANCH   4  21
ATOM     21  C   UNL     1       1.413  14.810  19.656  0.00  0.00    +0.000 C 
BRANCH  21  22
ATOM     22  C   UNL     1       1.047  16.009  18.767  0.00  0.00    +0.000 A 
ATOM     23  C   UNL     1       2.032  16.795  18.136  0.00  0.00    +0.000 A 
ATOM     24  C   UNL     1       1.685  17.879  17.326  0.00  0.00    +0.000 A 
ATOM     25  C   UNL     1       0.345  18.202  17.139  0.00  0.00    +0.000 A 
ATOM     26  C   UNL     1      -0.645  17.445  17.762  0.00  0.00    +0.000 A 
ATOM     27  C   UNL     1      -0.298  16.360  18.574  0.00  0.00    +0.000 A 
ENDBRANCH  21  22
BRANCH  21  28
ATOM     28  C   UNL     1       1.216  15.098  21.207  0.00  0.00    +0.000 C 
ATOM     29  C   UNL     1       1.344  16.606  21.488  0.00  0.00    +0.000 C 
ATOM     30  C   UNL     1      -0.198  14.636  21.615  0.00  0.00    +0.000 C 
BRANCH  28  31
ATOM     31  O   UNL     1       2.235  14.387  21.950  0.00  0.00    +0.000 OA
ATOM     32  C   UNL     1       3.503  14.229  21.334  0.00  0.00    +0.000 C 
ENDBRANCH  28  31
ENDBRANCH  21  28
ENDBRANCH   4  21
TORSDOF 6
ENDMDL
MODEL 8
REMARK VINA RESULT:      -6.3      5.252      7.894
REMARK  Name = 
REMARK  10 active torsions:
REMARK  status: ('A' for Active; 'I' for Inactive)
REMARK    1  A    between atoms: C_1  and  C_2
REMARK    2  A    between atoms: C_2  and  N_3
REMARK    3  A    between atoms: C_9  and  N_10
REMARK    4  A    between atoms: N_13  and  C_14
REMARK    5  A    between atoms: C_14  and  C_15
REMARK    6  A    between atoms: C_14  and  C_21
REMARK    7  A    between atoms: C_21  and  C_22
REMARK    8  A    between atoms: C_21  and  C_23
REMARK    9  A    between atoms: C_21  and  O_24
REMARK   10  A    between atoms: O_24  and  C_25
REMARK                            x       y       z     vdW  Elec       q    Type
REMARK                         _______ _______ _______ _____ _____    ______ ____
ROOT
ATOM      1  N   UNL     1       2.549   9.561  18.155  0.00  0.00    +0.000 N 
ATOM      2  C   UNL     1       1.760  10.668  18.367  0.00  0.00    +0.000 C 
ATOM      3  O   UNL     1       2.095  11.758  17.909  0.00  0.00    +0.000 OA
ATOM      4  N   UNL     1       0.633  10.468  19.091  0.00  0.00    +0.000 N 
ATOM      5  H   UNL     1       3.376   9.749  17.610  0.00  0.00    +0.000 HD
ATOM      6  H   UNL     1       0.524   9.522  19.443  0.00  0.00    +0.000 HD
ENDROOT
BRANCH   1  13
ATOM      7  N   UNL     1       1.259   3.837  20.974  0.00  0.00    +0.000 N 
ATOM      8  C   UNL     1       1.660   4.365  19.796  0.00  0.00    +0.000 A 
ATOM      9  N   UNL     1       1.963   3.695  18.684  0.00  0.00    +0.000 NA
ATOM     10  N   UNL     1       2.281   4.654  17.793  0.00  0.00    +0.000 N 
ATOM     11  C   UNL     1       2.230   5.925  18.293  0.00  0.00    +0.000 A 
ATOM     12  C   UNL     1       2.498   7.183  17.740  0.00  0.00    +0.000 A 
ATOM     13  C   UNL     1       2.316   8.253  18.612  0.00  0.00    +0.000 A 
ATOM     14  N   UNL     1       1.919   8.100  19.895  0.00  0.00    +0.000 NA
ATOM     15  C   UNL     1       1.659   6.880  20.404  0.00  0.00    +0.000 A 
ATOM     16  C   UNL     1       1.811   5.759  19.607  0.00  0.00    +0.000 A 
ATOM     17  H   UNL     1       1.215   4.443  21.784  0.00  0.00    +0.000 HD
ATOM     18  H   UNL     1       2.532   4.363  16.855  0.00  0.00    +0.000 HD
BRANCH   7  20
ATOM     19  C   UNL     1       3.095   2.329  21.481  0.00  0.00    +0.000 C 
ATOM     20  C   UNL     1       1.591   2.460  21.297  0.00  0.00    +0.000 C 
ENDBRANCH   7  20
ENDBRANCH   1  13
BRANCH   4  21
ATOM     21  C   UNL     1      -0.331  11.443  19.567  0.00  0.00    +0.000 C 
BRANCH  21  22
ATOM     22  C   UNL     1      -1.682  11.134  18.899  0.00  0.00    +0.000 A 
ATOM     23  C   UNL     1      -1.897   9.945  18.175  0.00  0.00    +0.000 A 
ATOM     24  C   UNL     1      -3.131   9.674  17.578  0.00  0.00    +0.000 A 
ATOM     25  C   UNL     1      -4.170  10.593  17.689  0.00  0.00    +0.000 A 
ATOM     26  C   UNL     1      -3.974  11.780  18.392  0.00  0.00    +0.000 A 
ATOM     27  C   UNL     1      -2.739  12.052  18.989  0.00  0.00    +0.000 A 
ENDBRANCH  21  22
BRANCH  21  28
ATOM     28  C   UNL     1      -0.422  11.528  21.152  0.00  0.00    +0.000 C 
ATOM     29  C   UNL     1      -1.757  12.168  21.575  0.00  0.00    +0.000 C 
ATOM     30  C   UNL     1      -0.357  10.097  21.723  0.00  0.00    +0.000 C 
BRANCH  28  31
ATOM     31  O   UNL     1       0.671  12.340  21.643  0.00  0.00    +0.000 OA
ATOM     32  C   UNL     1       0.465  13.742  21.711  0.00  0.00    +0.000 C 
ENDBRANCH  28  31
ENDBRANCH  21  28
ENDBRANCH   4  21
TORSDOF 6
ENDMDL
MODEL 9
REMARK VINA RESULT:      -6.3      5.542      8.438
REMARK  Name = 
REMARK  10 active torsions:
REMARK  status: ('A' for Active; 'I' for Inactive)
REMARK    1  A    between atoms: C_1  and  C_2
REMARK    2  A    between atoms: C_2  and  N_3
REMARK    3  A    between atoms: C_9  and  N_10
REMARK    4  A    between atoms: N_13  and  C_14
REMARK    5  A    between atoms: C_14  and  C_15
REMARK    6  A    between atoms: C_14  and  C_21
REMARK    7  A    between atoms: C_21  and  C_22
REMARK    8  A    between atoms: C_21  and  C_23
REMARK    9  A    between atoms: C_21  and  O_24
REMARK   10  A    between atoms: O_24  and  C_25
REMARK                            x       y       z     vdW  Elec       q    Type
REMARK                         _______ _______ _______ _____ _____    ______ ____
ROOT
ATOM      1  N   UNL     1       1.894  10.955  18.254  0.00  0.00    +0.000 N 
ATOM      2  C   UNL     1       0.896  11.863  18.521  0.00  0.00    +0.000 C 
ATOM      3  O   UNL     1       0.975  13.009  18.086  0.00  0.00    +0.000 OA
ATOM      4  N   UNL     1      -0.137  11.411  19.272  0.00  0.00    +0.000 N 
ATOM      5  H   UNL     1       2.643  11.327  17.691  0.00  0.00    +0.000 HD
ATOM      6  H   UNL     1      -0.031  10.456  19.600  0.00  0.00    +0.000 HD
ENDROOT
BRANCH   1  13
ATOM      7  N   UNL     1       1.859   5.011  20.909  0.00  0.00    +0.000 N 
ATOM      8  C   UNL     1       2.206   5.656  19.772  0.00  0.00    +0.000 A 
ATOM      9  N   UNL     1       2.751   5.114  18.683  0.00  0.00    +0.000 NA
ATOM     10  N   UNL     1       2.888   6.147  17.829  0.00  0.00    +0.000 N 
ATOM     11  C   UNL     1       2.483   7.351  18.334  0.00  0.00    +0.000 A 
ATOM     12  C   UNL     1       2.470   8.651  17.816  0.00  0.00    +0.000 A 
ATOM     13  C   UNL     1       1.960   9.617  18.679  0.00  0.00    +0.000 A 
ATOM     14  N   UNL     1       1.516   9.334  19.924  0.00  0.00    +0.000 NA
ATOM     15  C   UNL     1       1.529   8.074  20.399  0.00  0.00    +0.000 A 
ATOM     16  C   UNL     1       2.018   7.048  19.608  0.00  0.00    +0.000 A 
ATOM     17  H   UNL     1       1.602   5.564  21.717  0.00  0.00    +0.000 HD
ATOM     18  H   UNL     1       3.276   5.954  16.913  0.00  0.00    +0.000 HD
BRANCH   7  20
ATOM     19  C   UNL     1       1.434   2.695  21.509  0.00  0.00    +0.000 C 
ATOM     20  C   UNL     1       2.498   3.750  21.246  0.00  0.00    +0.000 C 
ENDBRANCH   7  20
ENDBRANCH   1  13
BRANCH   4  21
ATOM     21  C   UNL     1      -1.269  12.148  19.804  0.00  0.00    +0.000 C 
BRANCH  21  22
ATOM     22  C   UNL     1      -2.532  11.665  19.071  0.00  0.00    +0.000 A 
ATOM     23  C   UNL     1      -3.763  12.341  19.188  0.00  0.00    +0.000 A 
ATOM     24  C   UNL     1      -4.901  11.894  18.511  0.00  0.00    +0.000 A 
ATOM     25  C   UNL     1      -4.829  10.759  17.710  0.00  0.00    +0.000 A 
ATOM     26  C   UNL     1      -3.624  10.070  17.590  0.00  0.00    +0.000 A 
ATOM     27  C   UNL     1      -2.485  10.515  18.268  0.00  0.00    +0.000 A 
ENDBRANCH  21  22
BRANCH  21  28
ATOM     28  C   UNL     1      -1.396  12.064  21.387  0.00  0.00    +0.000 C 
ATOM     29  C   UNL     1      -0.346  12.972  22.053  0.00  0.00    +0.000 C 
ATOM     30  C   UNL     1      -2.802  12.554  21.792  0.00  0.00    +0.000 C 
BRANCH  28  31
ATOM     31  O   UNL     1      -1.176  10.696  21.804  0.00  0.00    +0.000 OA
ATOM     32  C   UNL     1      -0.821  10.474  23.160  0.00  0.00    +0.000 C 
ENDBRANCH  28  31
ENDBRANCH  21  28
ENDBRANCH   4  21
TORSDOF 6
ENDMDL
