MODEL 1
REMARK VINA RESULT:      -9.9      0.000      0.000
REMARK  Name = 
REMARK  7 active torsions:
REMARK  status: ('A' for Active; 'I' for Inactive)
REMARK    1  A    between atoms: C_2  and  C_7
REMARK    2  A    between atoms: N_3  and  C_4
REMARK    3  A    between atoms: C_4  and  C_5
REMARK    4  A    between atoms: C_5  and  O_6
REMARK    5  A    between atoms: C_11  and  N_12
REMARK    6  A    between atoms: C_13  and  C_14
REMARK    7  A    between atoms: C_15  and  C_16
REMARK                            x       y       z     vdW  Elec       q    Type
REMARK                         _______ _______ _______ _____ _____    ______ ____
ROOT
ATOM      1  N   UNL     1       4.587   3.765  17.303  0.00  0.00    +0.000 N 
ATOM      2  C   UNL     1       4.885   4.174  18.596  0.00  0.00    +0.000 A 
ATOM      3  N   UNL     1       4.760   3.265  19.515  0.00  0.00    +0.000 NA
ATOM      4  C   UNL     1       3.393   2.932  19.634  0.00  0.00    +0.000 A 
ATOM      5  C   UNL     1       2.871   2.832  20.920  0.00  0.00    +0.000 A 
ATOM      6  C   UNL     1       1.570   3.262  21.144  0.00  0.00    +0.000 A 
ATOM      7  C   UNL     1       0.799   3.731  20.074  0.00  0.00    +0.000 A 
ATOM      8  C   UNL     1       1.266   3.633  18.751  0.00  0.00    +0.000 A 
ATOM      9  C   UNL     1       2.559   3.162  18.522  0.00  0.00    +0.000 A 
ATOM     10  C   UNL     1       3.265   3.307  17.186  0.00  0.00    +0.000 A 
ATOM     11  O   UNL     1       2.621   3.157  16.148  0.00  0.00    +0.000 OA
ENDROOT
BRANCH   1  16
ATOM     12  C   UNL     1       5.977   3.998  13.848  0.00  0.00    +0.000 A 
ATOM     13  C   UNL     1       7.148   4.725  14.032  0.00  0.00    +0.000 A 
ATOM     14  C   UNL     1       7.454   5.215  15.306  0.00  0.00    +0.000 A 
ATOM     15  C   UNL     1       6.629   4.926  16.411  0.00  0.00    +0.000 A 
ATOM     16  C   UNL     1       5.450   4.193  16.237  0.00  0.00    +0.000 A 
ATOM     17  C   UNL     1       5.110   3.815  14.923  0.00  0.00    +0.000 A 
BRANCH  12  19
ATOM     18  O   UNL     1       6.514   2.691  11.963  0.00  0.00    +0.000 OA
ATOM     19  C   UNL     1       5.646   3.289  12.584  0.00  0.00    +0.000 C 
ATOM     20  N   UNL     1       4.356   3.479  12.129  0.00  0.00    +0.000 N 
ATOM     21  H   UNL     1       3.821   4.212  12.576  0.00  0.00    +0.000 HD
BRANCH  20  22
ATOM     22  C   UNL     1       3.978   3.172  10.752  0.00  0.00    +0.000 C 
BRANCH  22  23
ATOM     23  C   UNL     1       3.058   4.213  10.116  0.00  0.00    +0.000 C 
BRANCH  23  24
ATOM     24  O   UNL     1       2.973   3.988   8.710  0.00  0.00    +0.000 OA
ATOM     25  H   UNL     1       3.888   3.807   8.425  0.00  0.00    +0.000 HD
ENDBRANCH  23  24
ENDBRANCH  22  23
ENDBRANCH  20  22
ENDBRANCH  12  19
ENDBRANCH   1  16
BRANCH   2  26
ATOM     26  C   UNL     1       4.403   5.616  18.745  0.00  0.00    +0.000 C 
ATOM     27  C   UNL     1       3.551   5.963  19.719  0.00  0.00    +0.000 C 
BRANCH  27  28
ATOM     28  C   UNL     1       2.545   7.035  19.555  0.00  0.00    +0.000 A 
ATOM     29  C   UNL     1       2.477   7.663  18.302  0.00  0.00    +0.000 A 
ATOM     30  C   UNL     1       1.720   8.822  18.119  0.00  0.00    +0.000 A 
ATOM     31  C   UNL     1       1.017   9.359  19.188  0.00  0.00    +0.000 A 
ATOM     32  F   UNL     1       0.331  10.498  19.024  0.00  0.00    +0.000 F 
ATOM     33  C   UNL     1       1.030   8.740  20.428  0.00  0.00    +0.000 A 
ATOM     34  C   UNL     1       1.784   7.576  20.610  0.00  0.00    +0.000 A 
ENDBRANCH  27  28
ENDBRANCH   2  26
TORSDOF 7
ENDMDL
MODEL 2
REMARK VINA RESULT:      -9.6      1.182      1.668
REMARK  Name = 
REMARK  7 active torsions:
REMARK  status: ('A' for Active; 'I' for Inactive)
REMARK    1  A    between atoms: C_2  and  C_7
REMARK    2  A    between atoms: N_3  and  C_4
REMARK    3  A    between atoms: C_4  and  C_5
REMARK    4  A    between atoms: C_5  and  O_6
REMARK    5  A    between atoms: C_11  and  N_12
REMARK    6  A    between atoms: C_13  and  C_14
REMARK    7  A    between atoms: C_15  and  C_16
REMARK                            x       y       z     vdW  Elec       q    Type
REMARK                         _______ _______ _______ _____ _____    ______ ____
ROOT
ATOM      1  N   UNL     1       4.615   3.746  17.189  0.00  0.00    +0.000 N 
ATOM      2  C   UNL     1       4.907   4.196  18.470  0.00  0.00    +0.000 A 
ATOM      3  N   UNL     1       4.788   3.313  19.416  0.00  0.00    +0.000 NA
ATOM      4  C   UNL     1       3.423   2.973  19.542  0.00  0.00    +0.000 A 
ATOM      5  C   UNL     1       2.900   2.908  20.830  0.00  0.00    +0.000 A 
ATOM      6  C   UNL     1       1.595   3.333  21.039  0.00  0.00    +0.000 A 
ATOM      7  C   UNL     1       0.822   3.765  19.954  0.00  0.00    +0.000 A 
ATOM      8  C   UNL     1       1.292   3.631  18.636  0.00  0.00    +0.000 A 
ATOM      9  C   UNL     1       2.589   3.164  18.422  0.00  0.00    +0.000 A 
ATOM     10  C   UNL     1       3.297   3.274  17.084  0.00  0.00    +0.000 A 
ATOM     11  O   UNL     1       2.655   3.089  16.050  0.00  0.00    +0.000 OA
ENDROOT
BRANCH   1  16
ATOM     12  C   UNL     1       5.970   3.934  13.719  0.00  0.00    +0.000 A 
ATOM     13  C   UNL     1       7.162   4.631  13.886  0.00  0.00    +0.000 A 
ATOM     14  C   UNL     1       7.495   5.116  15.156  0.00  0.00    +0.000 A 
ATOM     15  C   UNL     1       6.675   4.852  16.270  0.00  0.00    +0.000 A 
ATOM     16  C   UNL     1       5.476   4.149  16.112  0.00  0.00    +0.000 A 
ATOM     17  C   UNL     1       5.111   3.776  14.804  0.00  0.00    +0.000 A 
BRANCH  12  19
ATOM     18  O   UNL     1       4.486   3.352  11.983  0.00  0.00    +0.000 OA
ATOM     19  C   UNL     1       5.606   3.230  12.460  0.00  0.00    +0.000 C 
ATOM     20  N   UNL     1       6.563   2.357  11.983  0.00  0.00    +0.000 N 
ATOM     21  H   UNL     1       7.326   2.133  12.609  0.00  0.00    +0.000 HD
BRANCH  20  22
ATOM     22  C   UNL     1       6.238   1.332  10.994  0.00  0.00    +0.000 C 
BRANCH  22  23
ATOM     23  C   UNL     1       5.719   0.028  11.601  0.00  0.00    +0.000 C 
BRANCH  23  24
ATOM     24  O   UNL     1       6.378  -1.082  10.995  0.00  0.00    +0.000 OA
ATOM     25  H   UNL     1       7.306  -1.018  11.287  0.00  0.00    +0.000 HD
ENDBRANCH  23  24
ENDBRANCH  22  23
ENDBRANCH  20  22
ENDBRANCH  12  19
ENDBRANCH   1  16
BRANCH   2  26
ATOM     26  C   UNL     1       4.413   5.637  18.576  0.00  0.00    +0.000 C 
ATOM     27  C   UNL     1       3.618   6.024  19.581  0.00  0.00    +0.000 C 
BRANCH  27  28
ATOM     28  C   UNL     1       2.588   7.074  19.425  0.00  0.00    +0.000 A 
ATOM     29  C   UNL     1       2.495   7.699  18.172  0.00  0.00    +0.000 A 
ATOM     30  C   UNL     1       1.712   8.842  17.996  0.00  0.00    +0.000 A 
ATOM     31  C   UNL     1       1.007   9.365  19.070  0.00  0.00    +0.000 A 
ATOM     32  F   UNL     1       0.296  10.489  18.912  0.00  0.00    +0.000 F 
ATOM     33  C   UNL     1       1.045   8.748  20.311  0.00  0.00    +0.000 A 
ATOM     34  C   UNL     1       1.825   7.600  20.487  0.00  0.00    +0.000 A 
ENDBRANCH  27  28
ENDBRANCH   2  26
TORSDOF 7
ENDMDL
MODEL 3
REMARK VINA RESULT:      -9.1      4.955      8.489
REMARK  Name = 
REMARK  7 active torsions:
REMARK  status: ('A' for Active; 'I' for Inactive)
REMARK    1  A    between atoms: C_2  and  C_7
REMARK    2  A    between atoms: N_3  and  C_4
REMARK    3  A    between atoms: C_4  and  C_5
REMARK    4  A    between atoms: C_5  and  O_6
REMARK    5  A    between atoms: C_11  and  N_12
REMARK    6  A    between atoms: C_13  and  C_14
REMARK    7  A    between atoms: C_15  and  C_16
REMARK                            x       y       z     vdW  Elec       q    Type
REMARK                         _______ _______ _______ _____ _____    ______ ____
ROOT
ATOM      1  N   UNL     1       1.068   9.949  20.341  0.00  0.00    +0.000 N 
ATOM      2  C   UNL     1       0.514  11.095  19.784  0.00  0.00    +0.000 A 
ATOM      3  N   UNL     1       0.807  12.209  20.384  0.00  0.00    +0.000 NA
ATOM      4  C   UNL     1       0.207  12.200  21.663  0.00  0.00    +0.000 A 
ATOM      5  C   UNL     1      -0.451  13.358  22.065  0.00  0.00    +0.000 A 
ATOM      6  C   UNL     1      -1.608  13.235  22.822  0.00  0.00    +0.000 A 
ATOM      7  C   UNL     1      -2.056  11.965  23.207  0.00  0.00    +0.000 A 
ATOM      8  C   UNL     1      -1.271  10.823  22.970  0.00  0.00    +0.000 A 
ATOM      9  C   UNL     1      -0.086  10.951  22.246  0.00  0.00    +0.000 A 
ATOM     10  C   UNL     1       0.666   9.763  21.673  0.00  0.00    +0.000 A 
ATOM     11  O   UNL     1       0.739   8.726  22.333  0.00  0.00    +0.000 OA
ENDROOT
BRANCH   1  16
ATOM     12  C   UNL     1       2.552   6.697  19.273  0.00  0.00    +0.000 A 
ATOM     13  C   UNL     1       2.908   6.936  17.950  0.00  0.00    +0.000 A 
ATOM     14  C   UNL     1       2.588   8.168  17.371  0.00  0.00    +0.000 A 
ATOM     15  C   UNL     1       1.972   9.186  18.125  0.00  0.00    +0.000 A 
ATOM     16  C   UNL     1       1.613   8.957  19.457  0.00  0.00    +0.000 A 
ATOM     17  C   UNL     1       1.842   7.668  19.977  0.00  0.00    +0.000 A 
BRANCH  12  19
ATOM     18  O   UNL     1       3.972   4.860  19.670  0.00  0.00    +0.000 OA
ATOM     19  C   UNL     1       2.995   5.499  20.035  0.00  0.00    +0.000 C 
ATOM     20  N   UNL     1       2.154   5.116  21.061  0.00  0.00    +0.000 N 
ATOM     21  H   UNL     1       1.242   5.553  21.087  0.00  0.00    +0.000 HD
BRANCH  20  22
ATOM     22  C   UNL     1       2.233   3.785  21.658  0.00  0.00    +0.000 C 
BRANCH  22  23
ATOM     23  C   UNL     1       1.443   2.718  20.900  0.00  0.00    +0.000 C 
BRANCH  23  24
ATOM     24  O   UNL     1       2.211   2.242  19.797  0.00  0.00    +0.000 OA
ATOM     25  H   UNL     1       2.324   1.287  19.958  0.00  0.00    +0.000 HD
ENDBRANCH  23  24
ENDBRANCH  22  23
ENDBRANCH  20  22
ENDBRANCH  12  19
ENDBRANCH   1  16
BRANCH   2  26
ATOM     26  C   UNL     1      -0.882  10.733  19.282  0.00  0.00    +0.000 C 
ATOM     27  C   UNL     1      -1.587  11.585  18.526  0.00  0.00    +0.000 C 
BRANCH  27  28
ATOM     28  C   UNL     1      -3.063  11.664  18.578  0.00  0.00    +0.000 A 
ATOM     29  C   UNL     1      -3.629  12.378  19.646  0.00  0.00    +0.000 A 
ATOM     30  C   UNL     1      -5.001  12.323  19.900  0.00  0.00    +0.000 A 
ATOM     31  C   UNL     1      -5.822  11.558  19.084  0.00  0.00    +0.000 A 
ATOM     32  F   UNL     1      -7.129  11.466  19.359  0.00  0.00    +0.000 F 
ATOM     33  C   UNL     1      -5.301  10.875  17.996  0.00  0.00    +0.000 A 
ATOM     34  C   UNL     1      -3.927  10.934  17.737  0.00  0.00    +0.000 A 
ENDBRANCH  27  28
ENDBRANCH   2  26
TORSDOF 7
ENDMDL
MODEL 4
REMARK VINA RESULT:      -9.1      1.420      1.974
REMARK  Name = 
REMARK  7 active torsions:
REMARK  status: ('A' for Active; 'I' for Inactive)
REMARK    1  A    between atoms: C_2  and  C_7
REMARK    2  A    between atoms: N_3  and  C_4
REMARK    3  A    between atoms: C_4  and  C_5
REMARK    4  A    between atoms: C_5  and  O_6
REMARK    5  A    between atoms: C_11  and  N_12
REMARK    6  A    between atoms: C_13  and  C_14
REMARK    7  A    between atoms: C_15  and  C_16
REMARK                            x       y       z     vdW  Elec       q    Type
REMARK                         _______ _______ _______ _____ _____    ______ ____
ROOT
ATOM      1  N   UNL     1       4.553   3.680  17.709  0.00  0.00    +0.000 N 
ATOM      2  C   UNL     1       4.355   4.533  18.788  0.00  0.00    +0.000 A 
ATOM      3  N   UNL     1       4.409   3.977  19.960  0.00  0.00    +0.000 NA
ATOM      4  C   UNL     1       3.311   3.098  20.091  0.00  0.00    +0.000 A 
ATOM      5  C   UNL     1       2.599   3.142  21.286  0.00  0.00    +0.000 A 
ATOM      6  C   UNL     1       1.223   2.964  21.246  0.00  0.00    +0.000 A 
ATOM      7  C   UNL     1       0.591   2.694  20.026  0.00  0.00    +0.000 A 
ATOM      8  C   UNL     1       1.344   2.448  18.864  0.00  0.00    +0.000 A 
ATOM      9  C   UNL     1       2.731   2.586  18.913  0.00  0.00    +0.000 A 
ATOM     10  C   UNL     1       3.599   2.650  17.669  0.00  0.00    +0.000 A 
ATOM     11  O   UNL     1       3.327   1.929  16.710  0.00  0.00    +0.000 OA
ENDROOT
BRANCH   1  16
ATOM     12  C   UNL     1       5.786   4.051  14.208  0.00  0.00    +0.000 A 
ATOM     13  C   UNL     1       6.993   4.720  14.371  0.00  0.00    +0.000 A 
ATOM     14  C   UNL     1       7.379   5.126  15.653  0.00  0.00    +0.000 A 
ATOM     15  C   UNL     1       6.596   4.809  16.780  0.00  0.00    +0.000 A 
ATOM     16  C   UNL     1       5.382   4.133  16.626  0.00  0.00    +0.000 A 
ATOM     17  C   UNL     1       4.963   3.842  15.313  0.00  0.00    +0.000 A 
BRANCH  12  19
ATOM     18  O   UNL     1       4.202   3.494  12.554  0.00  0.00    +0.000 OA
ATOM     19  C   UNL     1       5.366   3.426  12.925  0.00  0.00    +0.000 C 
ATOM     20  N   UNL     1       6.339   2.677  12.295  0.00  0.00    +0.000 N 
ATOM     21  H   UNL     1       7.169   2.466  12.834  0.00  0.00    +0.000 HD
BRANCH  20  22
ATOM     22  C   UNL     1       6.006   1.714  11.248  0.00  0.00    +0.000 C 
BRANCH  22  23
ATOM     23  C   UNL     1       6.719   0.370  11.393  0.00  0.00    +0.000 C 
BRANCH  23  24
ATOM     24  O   UNL     1       5.856  -0.683  10.967  0.00  0.00    +0.000 OA
ATOM     25  H   UNL     1       5.866  -0.642   9.993  0.00  0.00    +0.000 HD
ENDBRANCH  23  24
ENDBRANCH  22  23
ENDBRANCH  20  22
ENDBRANCH  12  19
ENDBRANCH   1  16
BRANCH   2  26
ATOM     26  C   UNL     1       3.304   5.561  18.375  0.00  0.00    +0.000 C 
ATOM     27  C   UNL     1       3.609   6.861  18.277  0.00  0.00    +0.000 C 
BRANCH  27  28
ATOM     28  C   UNL     1       2.633   7.934  18.572  0.00  0.00    +0.000 A 
ATOM     29  C   UNL     1       2.046   7.933  19.847  0.00  0.00    +0.000 A 
ATOM     30  C   UNL     1       0.963   8.765  20.139  0.00  0.00    +0.000 A 
ATOM     31  C   UNL     1       0.462   9.611  19.161  0.00  0.00    +0.000 A 
ATOM     32  F   UNL     1      -0.608  10.371  19.427  0.00  0.00    +0.000 F 
ATOM     33  C   UNL     1       1.045   9.666  17.904  0.00  0.00    +0.000 A 
ATOM     34  C   UNL     1       2.134   8.837  17.612  0.00  0.00    +0.000 A 
ENDBRANCH  27  28
ENDBRANCH   2  26
TORSDOF 7
ENDMDL
MODEL 5
REMARK VINA RESULT:      -9.1      5.045      8.572
REMARK  Name = 
REMARK  7 active torsions:
REMARK  status: ('A' for Active; 'I' for Inactive)
REMARK    1  A    between atoms: C_2  and  C_7
REMARK    2  A    between atoms: N_3  and  C_4
REMARK    3  A    between atoms: C_4  and  C_5
REMARK    4  A    between atoms: C_5  and  O_6
REMARK    5  A    between atoms: C_11  and  N_12
REMARK    6  A    between atoms: C_13  and  C_14
REMARK    7  A    between atoms: C_15  and  C_16
REMARK                            x       y       z     vdW  Elec       q    Type
REMARK                         _______ _______ _______ _____ _____    ______ ____
ROOT
ATOM      1  N   UNL     1       0.951  10.001  20.373  0.00  0.00    +0.000 N 
ATOM      2  C   UNL     1       0.332  11.109  19.808  0.00  0.00    +0.000 A 
ATOM      3  N   UNL     1       0.590  12.248  20.378  0.00  0.00    +0.000 NA
ATOM      4  C   UNL     1       0.025  12.240  21.672  0.00  0.00    +0.000 A 
ATOM      5  C   UNL     1      -0.674  13.376  22.068  0.00  0.00    +0.000 A 
ATOM      6  C   UNL     1      -1.805  13.217  22.859  0.00  0.00    +0.000 A 
ATOM      7  C   UNL     1      -2.184  11.938  23.281  0.00  0.00    +0.000 A 
ATOM      8  C   UNL     1      -1.356  10.826  23.047  0.00  0.00    +0.000 A 
ATOM      9  C   UNL     1      -0.197  10.992  22.288  0.00  0.00    +0.000 A 
ATOM     10  C   UNL     1       0.592   9.826  21.719  0.00  0.00    +0.000 A 
ATOM     11  O   UNL     1       0.729   8.808  22.397  0.00  0.00    +0.000 OA
ENDROOT
BRANCH   1  16
ATOM     12  C   UNL     1       2.534   6.789  19.329  0.00  0.00    +0.000 A 
ATOM     13  C   UNL     1       2.858   7.019  17.996  0.00  0.00    +0.000 A 
ATOM     14  C   UNL     1       2.483   8.230  17.404  0.00  0.00    +0.000 A 
ATOM     15  C   UNL     1       1.843   9.237  18.153  0.00  0.00    +0.000 A 
ATOM     16  C   UNL     1       1.517   9.016  19.495  0.00  0.00    +0.000 A 
ATOM     17  C   UNL     1       1.801   7.744  20.031  0.00  0.00    +0.000 A 
BRANCH  12  19
ATOM     18  O   UNL     1       4.067   5.055  19.769  0.00  0.00    +0.000 OA
ATOM     19  C   UNL     1       3.034   5.620  20.101  0.00  0.00    +0.000 C 
ATOM     20  N   UNL     1       2.187   5.171  21.094  0.00  0.00    +0.000 N 
ATOM     21  H   UNL     1       1.246   5.542  21.089  0.00  0.00    +0.000 HD
BRANCH  20  22
ATOM     22  C   UNL     1       2.340   3.845  21.688  0.00  0.00    +0.000 C 
BRANCH  22  23
ATOM     23  C   UNL     1       1.260   2.850  21.265  0.00  0.00    +0.000 C 
BRANCH  23  24
ATOM     24  O   UNL     1       0.533   3.369  20.154  0.00  0.00    +0.000 OA
ATOM     25  H   UNL     1       1.175   3.914  19.662  0.00  0.00    +0.000 HD
ENDBRANCH  23  24
ENDBRANCH  22  23
ENDBRANCH  20  22
ENDBRANCH  12  19
ENDBRANCH   1  16
BRANCH   2  26
ATOM     26  C   UNL     1      -1.060  10.676  19.351  0.00  0.00    +0.000 C 
ATOM     27  C   UNL     1      -1.630  11.214  18.266  0.00  0.00    +0.000 C 
BRANCH  27  28
ATOM     28  C   UNL     1      -3.092  11.406  18.144  0.00  0.00    +0.000 A 
ATOM     29  C   UNL     1      -3.652  11.267  16.865  0.00  0.00    +0.000 A 
ATOM     30  C   UNL     1      -4.974  11.642  16.615  0.00  0.00    +0.000 A 
ATOM     31  C   UNL     1      -5.750  12.153  17.645  0.00  0.00    +0.000 A 
ATOM     32  F   UNL     1      -7.001  12.559  17.393  0.00  0.00    +0.000 F 
ATOM     33  C   UNL     1      -5.240  12.265  18.929  0.00  0.00    +0.000 A 
ATOM     34  C   UNL     1      -3.917  11.884  19.182  0.00  0.00    +0.000 A 
ENDBRANCH  27  28
ENDBRANCH   2  26
TORSDOF 7
ENDMDL
MODEL 6
REMARK VINA RESULT:      -9.0      0.720      1.166
REMARK  Name = 
REMARK  7 active torsions:
REMARK  status: ('A' for Active; 'I' for Inactive)
REMARK    1  A    between atoms: C_2  and  C_7
REMARK    2  A    between atoms: N_3  and  C_4
REMARK    3  A    between atoms: C_4  and  C_5
REMARK    4  A    between atoms: C_5  and  O_6
REMARK    5  A    between atoms: C_11  and  N_12
REMARK    6  A    between atoms: C_13  and  C_14
REMARK    7  A    between atoms: C_15  and  C_16
REMARK                            x       y       z     vdW  Elec       q    Type
REMARK                         _______ _______ _______ _____ _____    ______ ____
ROOT
ATOM      1  N   UNL     1       4.468   3.925  17.540  0.00  0.00    +0.000 N 
ATOM      2  C   UNL     1       4.274   4.751  18.640  0.00  0.00    +0.000 A 
ATOM      3  N   UNL     1       4.349   4.169  19.799  0.00  0.00    +0.000 NA
ATOM      4  C   UNL     1       3.262   3.276  19.923  0.00  0.00    +0.000 A 
ATOM      5  C   UNL     1       2.565   3.286  21.127  0.00  0.00    +0.000 A 
ATOM      6  C   UNL     1       1.190   3.094  21.101  0.00  0.00    +0.000 A 
ATOM      7  C   UNL     1       0.546   2.843  19.882  0.00  0.00    +0.000 A 
ATOM      8  C   UNL     1       1.287   2.632  18.706  0.00  0.00    +0.000 A 
ATOM      9  C   UNL     1       2.674   2.784  18.741  0.00  0.00    +0.000 A 
ATOM     10  C   UNL     1       3.525   2.886  17.489  0.00  0.00    +0.000 A 
ATOM     11  O   UNL     1       3.249   2.183  16.517  0.00  0.00    +0.000 OA
ENDROOT
BRANCH   1  16
ATOM     12  C   UNL     1       5.827   4.193  14.077  0.00  0.00    +0.000 A 
ATOM     13  C   UNL     1       6.908   5.055  14.231  0.00  0.00    +0.000 A 
ATOM     14  C   UNL     1       7.154   5.620  15.487  0.00  0.00    +0.000 A 
ATOM     15  C   UNL     1       6.365   5.279  16.603  0.00  0.00    +0.000 A 
ATOM     16  C   UNL     1       5.278   4.411  16.458  0.00  0.00    +0.000 A 
ATOM     17  C   UNL     1       4.985   3.950  15.160  0.00  0.00    +0.000 A 
BRANCH  12  19
ATOM     18  O   UNL     1       6.486   2.769  12.320  0.00  0.00    +0.000 OA
ATOM     19  C   UNL     1       5.580   3.406  12.839  0.00  0.00    +0.000 C 
ATOM     20  N   UNL     1       4.328   3.571  12.283  0.00  0.00    +0.000 N 
ATOM     21  H   UNL     1       3.768   4.333  12.644  0.00  0.00    +0.000 HD
BRANCH  20  22
ATOM     22  C   UNL     1       4.045   3.179  10.904  0.00  0.00    +0.000 C 
BRANCH  22  23
ATOM     23  C   UNL     1       3.053   4.097  10.190  0.00  0.00    +0.000 C 
BRANCH  23  24
ATOM     24  O   UNL     1       3.085   3.843   8.787  0.00  0.00    +0.000 OA
ATOM     25  H   UNL     1       3.952   3.430   8.622  0.00  0.00    +0.000 HD
ENDBRANCH  23  24
ENDBRANCH  22  23
ENDBRANCH  20  22
ENDBRANCH  12  19
ENDBRANCH   1  16
BRANCH   2  26
ATOM     26  C   UNL     1       3.207   5.776  18.263  0.00  0.00    +0.000 C 
ATOM     27  C   UNL     1       3.470   7.089  18.288  0.00  0.00    +0.000 C 
BRANCH  27  28
ATOM     28  C   UNL     1       2.445   8.102  18.623  0.00  0.00    +0.000 A 
ATOM     29  C   UNL     1       1.947   8.100  19.935  0.00  0.00    +0.000 A 
ATOM     30  C   UNL     1       0.831   8.865  20.281  0.00  0.00    +0.000 A 
ATOM     31  C   UNL     1       0.208   9.646  19.319  0.00  0.00    +0.000 A 
ATOM     32  F   UNL     1      -0.892  10.340  19.639  0.00  0.00    +0.000 F 
ATOM     33  C   UNL     1       0.699   9.703  18.024  0.00  0.00    +0.000 A 
ATOM     34  C   UNL     1       1.821   8.940  17.678  0.00  0.00    +0.000 A 
ENDBRANCH  27  28
ENDBRANCH   2  26
TORSDOF 7
ENDMDL
MODEL 7
REMARK VINA RESULT:      -8.9      1.599      2.231
REMARK  Name = 
REMARK  7 active torsions:
REMARK  status: ('A' for Active; 'I' for Inactive)
REMARK    1  A    between atoms: C_2  and  C_7
REMARK    2  A    between atoms: N_3  and  C_4
REMARK    3  A    between atoms: C_4  and  C_5
REMARK    4  A    between atoms: C_5  and  O_6
REMARK    5  A    between atoms: C_11  and  N_12
REMARK    6  A    between atoms: C_13  and  C_14
REMARK    7  A    between atoms: C_15  and  C_16
REMARK                            x       y       z     vdW  Elec       q    Type
REMARK                         _______ _______ _______ _____ _____    ______ ____
ROOT
ATOM      1  N   UNL     1       4.623   4.452  18.497  0.00  0.00    +0.000 N 
ATOM      2  C   UNL     1       4.017   5.083  19.576  0.00  0.00    +0.000 A 
ATOM      3  N   UNL     1       3.900   4.365  20.652  0.00  0.00    +0.000 NA
ATOM      4  C   UNL     1       2.991   3.315  20.394  0.00  0.00    +0.000 A 
ATOM      5  C   UNL     1       2.024   3.058  21.360  0.00  0.00    +0.000 A 
ATOM      6  C   UNL     1       0.757   2.673  20.945  0.00  0.00    +0.000 A 
ATOM      7  C   UNL     1       0.494   2.500  19.580  0.00  0.00    +0.000 A 
ATOM      8  C   UNL     1       1.532   2.562  18.634  0.00  0.00    +0.000 A 
ATOM      9  C   UNL     1       2.815   2.908  19.056  0.00  0.00    +0.000 A 
ATOM     10  C   UNL     1       3.923   3.303  18.095  0.00  0.00    +0.000 A 
ATOM     11  O   UNL     1       4.027   2.707  17.024  0.00  0.00    +0.000 OA
ENDROOT
BRANCH   1  16
ATOM     12  C   UNL     1       6.650   5.462  15.532  0.00  0.00    +0.000 A 
ATOM     13  C   UNL     1       7.557   6.369  16.068  0.00  0.00    +0.000 A 
ATOM     14  C   UNL     1       7.456   6.715  17.420  0.00  0.00    +0.000 A 
ATOM     15  C   UNL     1       6.495   6.110  18.253  0.00  0.00    +0.000 A 
ATOM     16  C   UNL     1       5.580   5.194  17.724  0.00  0.00    +0.000 A 
ATOM     17  C   UNL     1       5.631   4.955  16.336  0.00  0.00    +0.000 A 
BRANCH  12  19
ATOM     18  O   UNL     1       7.592   5.352  13.375  0.00  0.00    +0.000 OA
ATOM     19  C   UNL     1       6.774   4.897  14.162  0.00  0.00    +0.000 C 
ATOM     20  N   UNL     1       5.826   3.948  13.834  0.00  0.00    +0.000 N 
ATOM     21  H   UNL     1       5.038   3.858  14.463  0.00  0.00    +0.000 HD
BRANCH  20  22
ATOM     22  C   UNL     1       5.572   3.567  12.447  0.00  0.00    +0.000 C 
BRANCH  22  23
ATOM     23  C   UNL     1       6.547   2.525  11.902  0.00  0.00    +0.000 C 
BRANCH  23  24
ATOM     24  O   UNL     1       5.836   1.345  11.533  0.00  0.00    +0.000 OA
ATOM     25  H   UNL     1       6.463   0.828  10.993  0.00  0.00    +0.000 HD
ENDBRANCH  23  24
ENDBRANCH  22  23
ENDBRANCH  20  22
ENDBRANCH  12  19
ENDBRANCH   1  16
BRANCH   2  26
ATOM     26  C   UNL     1       2.915   5.983  19.022  0.00  0.00    +0.000 C 
ATOM     27  C   UNL     1       3.149   7.272  18.745  0.00  0.00    +0.000 C 
BRANCH  27  28
ATOM     28  C   UNL     1       2.113   8.320  18.886  0.00  0.00    +0.000 A 
ATOM     29  C   UNL     1       1.538   8.484  20.155  0.00  0.00    +0.000 A 
ATOM     30  C   UNL     1       0.409   9.287  20.333  0.00  0.00    +0.000 A 
ATOM     31  C   UNL     1      -0.150   9.940  19.244  0.00  0.00    +0.000 A 
ATOM     32  F   UNL     1      -1.261  10.669  19.407  0.00  0.00    +0.000 F 
ATOM     33  C   UNL     1       0.420   9.831  17.984  0.00  0.00    +0.000 A 
ATOM     34  C   UNL     1       1.554   9.031  17.806  0.00  0.00    +0.000 A 
ENDBRANCH  27  28
ENDBRANCH   2  26
TORSDOF 7
ENDMDL
MODEL 8
REMARK VINA RESULT:      -8.9      4.224      7.664
REMARK  Name = 
REMARK  7 active torsions:
REMARK  status: ('A' for Active; 'I' for Inactive)
REMARK    1  A    between atoms: C_2  and  C_7
REMARK    2  A    between atoms: N_3  and  C_4
REMARK    3  A    between atoms: C_4  and  C_5
REMARK    4  A    between atoms: C_5  and  O_6
REMARK    5  A    between atoms: C_11  and  N_12
REMARK    6  A    between atoms: C_13  and  C_14
REMARK    7  A    between atoms: C_15  and  C_16
REMARK                            x       y       z     vdW  Elec       q    Type
REMARK                         _______ _______ _______ _____ _____    ______ ____
ROOT
ATOM      1  N   UNL     1       1.517   9.402  19.999  0.00  0.00    +0.000 N 
ATOM      2  C   UNL     1       1.186   9.973  18.776  0.00  0.00    +0.000 A 
ATOM      3  N   UNL     1       1.765  11.104  18.509  0.00  0.00    +0.000 NA
ATOM      4  C   UNL     1       1.284  12.078  19.412  0.00  0.00    +0.000 A 
ATOM      5  C   UNL     1       0.932  13.316  18.885  0.00  0.00    +0.000 A 
ATOM      6  C   UNL     1      -0.159  13.982  19.427  0.00  0.00    +0.000 A 
ATOM      7  C   UNL     1      -0.843  13.427  20.516  0.00  0.00    +0.000 A 
ATOM      8  C   UNL     1      -0.351  12.282  21.167  0.00  0.00    +0.000 A 
ATOM      9  C   UNL     1       0.770  11.635  20.648  0.00  0.00    +0.000 A 
ATOM     10  C   UNL     1       1.192  10.241  21.077  0.00  0.00    +0.000 A 
ATOM     11  O   UNL     1       1.088   9.922  22.261  0.00  0.00    +0.000 OA
ENDROOT
BRANCH   1  16
ATOM     12  C   UNL     1       2.764   6.058  18.915  0.00  0.00    +0.000 A 
ATOM     13  C   UNL     1       2.164   5.192  19.823  0.00  0.00    +0.000 A 
ATOM     14  C   UNL     1       1.390   5.722  20.860  0.00  0.00    +0.000 A 
ATOM     15  C   UNL     1       1.159   7.108  20.958  0.00  0.00    +0.000 A 
ATOM     16  C   UNL     1       1.756   7.987  20.048  0.00  0.00    +0.000 A 
ATOM     17  C   UNL     1       2.624   7.434  19.086  0.00  0.00    +0.000 A 
BRANCH  12  19
ATOM     18  O   UNL     1       3.315   4.449  17.284  0.00  0.00    +0.000 OA
ATOM     19  C   UNL     1       3.458   5.597  17.683  0.00  0.00    +0.000 C 
ATOM     20  N   UNL     1       4.344   6.504  17.138  0.00  0.00    +0.000 N 
ATOM     21  H   UNL     1       4.582   7.305  17.710  0.00  0.00    +0.000 HD
BRANCH  20  22
ATOM     22  C   UNL     1       5.360   6.096  16.171  0.00  0.00    +0.000 C 
BRANCH  22  23
ATOM     23  C   UNL     1       6.578   5.420  16.801  0.00  0.00    +0.000 C 
BRANCH  23  24
ATOM     24  O   UNL     1       6.404   4.005  16.791  0.00  0.00    +0.000 OA
ATOM     25  H   UNL     1       7.034   3.676  16.123  0.00  0.00    +0.000 HD
ENDBRANCH  23  24
ENDBRANCH  22  23
ENDBRANCH  20  22
ENDBRANCH  12  19
ENDBRANCH   1  16
BRANCH   2  26
ATOM     26  C   UNL     1      -0.292   9.684  18.518  0.00  0.00    +0.000 C 
ATOM     27  C   UNL     1      -0.905  10.143  17.420  0.00  0.00    +0.000 C 
BRANCH  27  28
ATOM     28  C   UNL     1      -2.334  10.525  17.404  0.00  0.00    +0.000 A 
ATOM     29  C   UNL     1      -3.014  10.408  16.182  0.00  0.00    +0.000 A 
ATOM     30  C   UNL     1      -4.292  10.947  16.017  0.00  0.00    +0.000 A 
ATOM     31  C   UNL     1      -4.905  11.601  17.076  0.00  0.00    +0.000 A 
ATOM     32  F   UNL     1      -6.109  12.160  16.902  0.00  0.00    +0.000 F 
ATOM     33  C   UNL     1      -4.277  11.697  18.308  0.00  0.00    +0.000 A 
ATOM     34  C   UNL     1      -2.998  11.153  18.476  0.00  0.00    +0.000 A 
ENDBRANCH  27  28
ENDBRANCH   2  26
TORSDOF 7
ENDMDL
MODEL 9
REMARK VINA RESULT:      -8.9      1.499      1.809
REMARK  Name = 
REMARK  7 active torsions:
REMARK  status: ('A' for Active; 'I' for Inactive)
REMARK    1  A    between atoms: C_2  and  C_7
REMARK    2  A    between atoms: N_3  and  C_4
REMARK    3  A    between atoms: C_4  and  C_5
REMARK    4  A    between atoms: C_5  and  O_6
REMARK    5  A    between atoms: C_11  and  N_12
REMARK    6  A    between atoms: C_13  and  C_14
REMARK    7  A    between atoms: C_15  and  C_16
REMARK                            x       y       z     vdW  Elec       q    Type
REMARK                         _______ _______ _______ _____ _____    ______ ____
ROOT
ATOM      1  N   UNL     1       4.598   4.250  18.218  0.00  0.00    +0.000 N 
ATOM      2  C   UNL     1       4.095   4.929  19.320  0.00  0.00    +0.000 A 
ATOM      3  N   UNL     1       4.042   4.247  20.424  0.00  0.00    +0.000 NA
ATOM      4  C   UNL     1       3.087   3.218  20.269  0.00  0.00    +0.000 A 
ATOM      5  C   UNL     1       2.191   3.018  21.314  0.00  0.00    +0.000 A 
ATOM      6  C   UNL     1       0.885   2.660  21.010  0.00  0.00    +0.000 A 
ATOM      7  C   UNL     1       0.513   2.456  19.675  0.00  0.00    +0.000 A 
ATOM      8  C   UNL     1       1.475   2.459  18.651  0.00  0.00    +0.000 A 
ATOM      9  C   UNL     1       2.797   2.778  18.962  0.00  0.00    +0.000 A 
ATOM     10  C   UNL     1       3.837   3.112  17.908  0.00  0.00    +0.000 A 
ATOM     11  O   UNL     1       3.842   2.482  16.850  0.00  0.00    +0.000 OA
ENDROOT
BRANCH   1  16
ATOM     12  C   UNL     1       6.444   5.088  15.086  0.00  0.00    +0.000 A 
ATOM     13  C   UNL     1       7.394   6.006  15.520  0.00  0.00    +0.000 A 
ATOM     14  C   UNL     1       7.384   6.416  16.857  0.00  0.00    +0.000 A 
ATOM     15  C   UNL     1       6.471   5.866  17.778  0.00  0.00    +0.000 A 
ATOM     16  C   UNL     1       5.513   4.940  17.352  0.00  0.00    +0.000 A 
ATOM     17  C   UNL     1       5.473   4.635  15.977  0.00  0.00    +0.000 A 
BRANCH  12  19
ATOM     18  O   UNL     1       7.374   4.715  12.954  0.00  0.00    +0.000 OA
ATOM     19  C   UNL     1       6.473   4.456  13.740  0.00  0.00    +0.000 C 
ATOM     20  N   UNL     1       5.365   3.694  13.429  0.00  0.00    +0.000 N 
ATOM     21  H   UNL     1       4.567   3.782  14.045  0.00  0.00    +0.000 HD
BRANCH  20  22
ATOM     22  C   UNL     1       5.059   3.316  12.051  0.00  0.00    +0.000 C 
BRANCH  22  23
ATOM     23  C   UNL     1       5.654   1.972  11.632  0.00  0.00    +0.000 C 
BRANCH  23  24
ATOM     24  O   UNL     1       7.074   2.077  11.547  0.00  0.00    +0.000 OA
ATOM     25  H   UNL     1       7.403   1.163  11.634  0.00  0.00    +0.000 HD
ENDBRANCH  23  24
ENDBRANCH  22  23
ENDBRANCH  20  22
ENDBRANCH  12  19
ENDBRANCH   1  16
BRANCH   2  26
ATOM     26  C   UNL     1       2.979   5.847  18.825  0.00  0.00    +0.000 C 
ATOM     27  C   UNL     1       3.136   7.176  18.801  0.00  0.00    +0.000 C 
BRANCH  27  28
ATOM     28  C   UNL     1       2.014   8.116  19.018  0.00  0.00    +0.000 A 
ATOM     29  C   UNL     1       1.646   8.934  17.939  0.00  0.00    +0.000 A 
ATOM     30  C   UNL     1       0.755   9.996  18.114  0.00  0.00    +0.000 A 
ATOM     31  C   UNL     1       0.218  10.243  19.369  0.00  0.00    +0.000 A 
ATOM     32  F   UNL     1      -0.597  11.291  19.546  0.00  0.00    +0.000 F 
ATOM     33  C   UNL     1       0.529   9.429  20.447  0.00  0.00    +0.000 A 
ATOM     34  C   UNL     1       1.418   8.362  20.271  0.00  0.00    +0.000 A 
ENDBRANCH  27  28
ENDBRANCH   2  26
TORSDOF 7
ENDMDL
