MODEL 1
REMARK VINA RESULT:      -7.9      0.000      0.000
REMARK  Name = 
REMARK  5 active torsions:
REMARK  status: ('A' for Active; 'I' for Inactive)
REMARK    1  A    between atoms: C_1  and  C_2
REMARK    2  A    between atoms: C_4  and  C_5
REMARK    3  A    between atoms: C_7  and  C_8
REMARK    4  A    between atoms: C_9  and  C_10
REMARK    5  A    between atoms: C_13  and  C_14
REMARK                            x       y       z     vdW  Elec       q    Type
REMARK                         _______ _______ _______ _____ _____    ______ ____
ROOT
ATOM      1  C   UNL     1       2.905   6.409  18.420  0.00  0.00    +0.000 A 
ATOM      2  N   UNL     1       4.149   6.368  17.998  0.00  0.00    +0.000 NA
ATOM      3  C   UNL     1       4.496   5.078  17.658  0.00  0.00    +0.000 A 
ATOM      4  C   UNL     1       3.504   4.142  17.823  0.00  0.00    +0.000 A 
ATOM      5  S   UNL     1       2.087   4.886  18.413  0.00  0.00    +0.000 S 
ENDROOT
BRANCH   1   9
ATOM      6  C   UNL     1       0.619   9.058  22.016  0.00  0.00    +0.000 C 
ATOM      7  C   UNL     1       1.083   8.904  20.600  0.00  0.00    +0.000 A 
ATOM      8  C   UNL     1       1.769   7.757  20.175  0.00  0.00    +0.000 A 
ATOM      9  C   UNL     1       2.206   7.629  18.843  0.00  0.00    +0.000 A 
ATOM     10  C   UNL     1       1.936   8.668  17.938  0.00  0.00    +0.000 A 
ATOM     11  C   UNL     1       1.246   9.803  18.351  0.00  0.00    +0.000 A 
ATOM     12  C   UNL     1       0.824   9.915  19.671  0.00  0.00    +0.000 A 
ATOM     13  F   UNL     1       0.153  11.009  20.045  0.00  0.00    +0.000 F 
ENDBRANCH   1   9
BRANCH   3  14
ATOM     14  C   UNL     1       5.840   4.819  17.168  0.00  0.00    +0.000 A 
ATOM     15  C   UNL     1       7.046   4.913  17.904  0.00  0.00    +0.000 A 
ATOM     16  C   UNL     1       7.268   5.279  19.322  0.00  0.00    +0.000 C 
ATOM     17  N   UNL     1       8.102   4.629  17.128  0.00  0.00    +0.000 NA
ATOM     18  O   UNL     1       7.588   4.325  15.881  0.00  0.00    +0.000 OA
ATOM     19  C   UNL     1       6.233   4.448  15.906  0.00  0.00    +0.000 A 
ATOM     20  C   UNL     1       5.529   4.173  14.639  0.00  0.00    +0.000 C 
ENDBRANCH   3  14
TORSDOF 2
ENDMDL
MODEL 2
REMARK VINA RESULT:      -7.9      0.456      1.818
REMARK  Name = 
REMARK  5 active torsions:
REMARK  status: ('A' for Active; 'I' for Inactive)
REMARK    1  A    between atoms: C_1  and  C_2
REMARK    2  A    between atoms: C_4  and  C_5
REMARK    3  A    between atoms: C_7  and  C_8
REMARK    4  A    between atoms: C_9  and  C_10
REMARK    5  A    between atoms: C_13  and  C_14
REMARK                            x       y       z     vdW  Elec       q    Type
REMARK                         _______ _______ _______ _____ _____    ______ ____
ROOT
ATOM      1  C   UNL     1       2.961   6.474  18.392  0.00  0.00    +0.000 A 
ATOM      2  N   UNL     1       4.201   6.452  17.958  0.00  0.00    +0.000 NA
ATOM      3  C   UNL     1       4.574   5.163  17.642  0.00  0.00    +0.000 A 
ATOM      4  C   UNL     1       3.605   4.209  17.836  0.00  0.00    +0.000 A 
ATOM      5  S   UNL     1       2.177   4.934  18.425  0.00  0.00    +0.000 S 
ENDROOT
BRANCH   1   9
ATOM      6  C   UNL     1       0.581   9.112  21.936  0.00  0.00    +0.000 C 
ATOM      7  C   UNL     1       1.071   8.956  20.529  0.00  0.00    +0.000 A 
ATOM      8  C   UNL     1       1.778   7.817  20.121  0.00  0.00    +0.000 A 
ATOM      9  C   UNL     1       2.239   7.687  18.797  0.00  0.00    +0.000 A 
ATOM     10  C   UNL     1       1.971   8.718  17.883  0.00  0.00    +0.000 A 
ATOM     11  C   UNL     1       1.259   9.846  18.278  0.00  0.00    +0.000 A 
ATOM     12  C   UNL     1       0.814   9.959  19.590  0.00  0.00    +0.000 A 
ATOM     13  F   UNL     1       0.122  11.046  19.947  0.00  0.00    +0.000 F 
ENDBRANCH   1   9
BRANCH   3  14
ATOM     14  C   UNL     1       5.919   4.924  17.143  0.00  0.00    +0.000 A 
ATOM     15  C   UNL     1       6.283   4.554  15.826  0.00  0.00    +0.000 A 
ATOM     16  C   UNL     1       5.435   4.325  14.634  0.00  0.00    +0.000 C 
ATOM     17  N   UNL     1       7.610   4.391  15.726  0.00  0.00    +0.000 NA
ATOM     18  O   UNL     1       8.124   4.675  16.979  0.00  0.00    +0.000 OA
ATOM     19  C   UNL     1       7.107   4.987  17.827  0.00  0.00    +0.000 A 
ATOM     20  C   UNL     1       7.490   5.300  19.217  0.00  0.00    +0.000 C 
ENDBRANCH   3  14
TORSDOF 2
ENDMDL
MODEL 3
REMARK VINA RESULT:      -7.7      4.158      7.475
REMARK  Name = 
REMARK  5 active torsions:
REMARK  status: ('A' for Active; 'I' for Inactive)
REMARK    1  A    between atoms: C_1  and  C_2
REMARK    2  A    between atoms: C_4  and  C_5
REMARK    3  A    between atoms: C_7  and  C_8
REMARK    4  A    between atoms: C_9  and  C_10
REMARK    5  A    between atoms: C_13  and  C_14
REMARK                            x       y       z     vdW  Elec       q    Type
REMARK                         _______ _______ _______ _____ _____    ______ ____
ROOT
ATOM      1  C   UNL     1       5.770   4.543  16.497  0.00  0.00    +0.000 A 
ATOM      2  N   UNL     1       4.537   4.348  16.910  0.00  0.00    +0.000 NA
ATOM      3  C   UNL     1       4.469   4.462  18.282  0.00  0.00    +0.000 A 
ATOM      4  C   UNL     1       5.659   4.749  18.906  0.00  0.00    +0.000 A 
ATOM      5  S   UNL     1       6.908   4.891  17.750  0.00  0.00    +0.000 S 
ENDROOT
BRANCH   1   9
ATOM      6  C   UNL     1       5.001   3.022  11.777  0.00  0.00    +0.000 C 
ATOM      7  C   UNL     1       5.815   3.756  12.799  0.00  0.00    +0.000 A 
ATOM      8  C   UNL     1       5.423   3.815  14.144  0.00  0.00    +0.000 A 
ATOM      9  C   UNL     1       6.194   4.514  15.092  0.00  0.00    +0.000 A 
ATOM     10  C   UNL     1       7.373   5.149  14.670  0.00  0.00    +0.000 A 
ATOM     11  C   UNL     1       7.774   5.084  13.340  0.00  0.00    +0.000 A 
ATOM     12  C   UNL     1       6.999   4.392  12.417  0.00  0.00    +0.000 A 
ATOM     13  F   UNL     1       7.407   4.332  11.144  0.00  0.00    +0.000 F 
ENDBRANCH   1   9
BRANCH   3  14
ATOM     14  C   UNL     1       3.186   4.276  18.939  0.00  0.00    +0.000 A 
ATOM     15  C   UNL     1       2.490   3.056  19.114  0.00  0.00    +0.000 A 
ATOM     16  C   UNL     1       2.860   1.682  18.702  0.00  0.00    +0.000 C 
ATOM     17  N   UNL     1       1.322   3.259  19.741  0.00  0.00    +0.000 NA
ATOM     18  O   UNL     1       1.259   4.616  19.999  0.00  0.00    +0.000 OA
ATOM     19  C   UNL     1       2.373   5.224  19.510  0.00  0.00    +0.000 A 
ATOM     20  C   UNL     1       2.452   6.686  19.691  0.00  0.00    +0.000 C 
ENDBRANCH   3  14
TORSDOF 2
ENDMDL
MODEL 4
REMARK VINA RESULT:      -7.6      1.286      2.031
REMARK  Name = 
REMARK  5 active torsions:
REMARK  status: ('A' for Active; 'I' for Inactive)
REMARK    1  A    between atoms: C_1  and  C_2
REMARK    2  A    between atoms: C_4  and  C_5
REMARK    3  A    between atoms: C_7  and  C_8
REMARK    4  A    between atoms: C_9  and  C_10
REMARK    5  A    between atoms: C_13  and  C_14
REMARK                            x       y       z     vdW  Elec       q    Type
REMARK                         _______ _______ _______ _____ _____    ______ ____
ROOT
ATOM      1  C   UNL     1       3.005   7.047  18.735  0.00  0.00    +0.000 A 
ATOM      2  N   UNL     1       3.977   7.164  17.858  0.00  0.00    +0.000 NA
ATOM      3  C   UNL     1       4.728   6.009  17.820  0.00  0.00    +0.000 A 
ATOM      4  C   UNL     1       4.316   5.014  18.673  0.00  0.00    +0.000 A 
ATOM      5  S   UNL     1       2.943   5.524  19.549  0.00  0.00    +0.000 S 
ENDROOT
BRANCH   1   9
ATOM      6  C   UNL     1      -0.052   9.342  21.986  0.00  0.00    +0.000 C 
ATOM      7  C   UNL     1       0.510   9.185  20.606  0.00  0.00    +0.000 A 
ATOM      8  C   UNL     1       1.480   8.216  20.315  0.00  0.00    +0.000 A 
ATOM      9  C   UNL     1       2.004   8.084  19.015  0.00  0.00    +0.000 A 
ATOM     10  C   UNL     1       1.532   8.937  18.005  0.00  0.00    +0.000 A 
ATOM     11  C   UNL     1       0.561   9.893  18.284  0.00  0.00    +0.000 A 
ATOM     12  C   UNL     1       0.056  10.011  19.574  0.00  0.00    +0.000 A 
ATOM     13  F   UNL     1      -0.885  10.930  19.819  0.00  0.00    +0.000 F 
ENDBRANCH   1   9
BRANCH   3  14
ATOM     14  C   UNL     1       5.860   5.937  16.910  0.00  0.00    +0.000 A 
ATOM     15  C   UNL     1       6.004   5.070  15.801  0.00  0.00    +0.000 A 
ATOM     16  C   UNL     1       5.080   4.040  15.272  0.00  0.00    +0.000 C 
ATOM     17  N   UNL     1       7.188   5.258  15.199  0.00  0.00    +0.000 NA
ATOM     18  O   UNL     1       7.817   6.269  15.903  0.00  0.00    +0.000 OA
ATOM     19  C   UNL     1       7.022   6.668  16.932  0.00  0.00    +0.000 A 
ATOM     20  C   UNL     1       7.560   7.736  17.795  0.00  0.00    +0.000 C 
ENDBRANCH   3  14
TORSDOF 2
ENDMDL
MODEL 5
REMARK VINA RESULT:      -7.6      4.172      7.409
REMARK  Name = 
REMARK  5 active torsions:
REMARK  status: ('A' for Active; 'I' for Inactive)
REMARK    1  A    between atoms: C_1  and  C_2
REMARK    2  A    between atoms: C_4  and  C_5
REMARK    3  A    between atoms: C_7  and  C_8
REMARK    4  A    between atoms: C_9  and  C_10
REMARK    5  A    between atoms: C_13  and  C_14
REMARK                            x       y       z     vdW  Elec       q    Type
REMARK                         _______ _______ _______ _____ _____    ______ ____
ROOT
ATOM      1  C   UNL     1       5.735   4.526  16.499  0.00  0.00    +0.000 A 
ATOM      2  N   UNL     1       4.506   4.286  16.896  0.00  0.00    +0.000 NA
ATOM      3  C   UNL     1       4.414   4.409  18.266  0.00  0.00    +0.000 A 
ATOM      4  C   UNL     1       5.583   4.747  18.903  0.00  0.00    +0.000 A 
ATOM      5  S   UNL     1       6.841   4.928  17.764  0.00  0.00    +0.000 S 
ENDROOT
BRANCH   1   9
ATOM      6  C   UNL     1       5.125   2.894  11.793  0.00  0.00    +0.000 C 
ATOM      7  C   UNL     1       5.879   3.690  12.814  0.00  0.00    +0.000 A 
ATOM      8  C   UNL     1       5.466   3.744  14.152  0.00  0.00    +0.000 A 
ATOM      9  C   UNL     1       6.180   4.502  15.100  0.00  0.00    +0.000 A 
ATOM     10  C   UNL     1       7.326   5.199  14.684  0.00  0.00    +0.000 A 
ATOM     11  C   UNL     1       7.748   5.140  13.360  0.00  0.00    +0.000 A 
ATOM     12  C   UNL     1       7.029   4.389  12.438  0.00  0.00    +0.000 A 
ATOM     13  F   UNL     1       7.458   4.336  11.172  0.00  0.00    +0.000 F 
ENDBRANCH   1   9
BRANCH   3  14
ATOM     14  C   UNL     1       3.129   4.178  18.907  0.00  0.00    +0.000 A 
ATOM     15  C   UNL     1       2.306   5.146  19.531  0.00  0.00    +0.000 A 
ATOM     16  C   UNL     1       2.507   6.604  19.693  0.00  0.00    +0.000 C 
ATOM     17  N   UNL     1       1.203   4.577  20.041  0.00  0.00    +0.000 NA
ATOM     18  O   UNL     1       1.292   3.232  19.732  0.00  0.00    +0.000 OA
ATOM     19  C   UNL     1       2.451   2.995  19.060  0.00  0.00    +0.000 A 
ATOM     20  C   UNL     1       2.705   1.595  18.671  0.00  0.00    +0.000 C 
ENDBRANCH   3  14
TORSDOF 2
ENDMDL
MODEL 6
REMARK VINA RESULT:      -7.5      4.820      7.537
REMARK  Name = 
REMARK  5 active torsions:
REMARK  status: ('A' for Active; 'I' for Inactive)
REMARK    1  A    between atoms: C_1  and  C_2
REMARK    2  A    between atoms: C_4  and  C_5
REMARK    3  A    between atoms: C_7  and  C_8
REMARK    4  A    between atoms: C_9  and  C_10
REMARK    5  A    between atoms: C_13  and  C_14
REMARK                            x       y       z     vdW  Elec       q    Type
REMARK                         _______ _______ _______ _____ _____    ______ ____
ROOT
ATOM      1  C   UNL     1       5.772   4.414  16.457  0.00  0.00    +0.000 A 
ATOM      2  N   UNL     1       4.689   3.817  16.902  0.00  0.00    +0.000 NA
ATOM      3  C   UNL     1       4.560   4.014  18.260  0.00  0.00    +0.000 A 
ATOM      4  C   UNL     1       5.551   4.768  18.840  0.00  0.00    +0.000 A 
ATOM      5  S   UNL     1       6.682   5.258  17.659  0.00  0.00    +0.000 S 
ENDROOT
BRANCH   1   9
ATOM      6  C   UNL     1       5.118   2.888  11.721  0.00  0.00    +0.000 C 
ATOM      7  C   UNL     1       5.881   3.662  12.752  0.00  0.00    +0.000 A 
ATOM      8  C   UNL     1       5.481   3.685  14.096  0.00  0.00    +0.000 A 
ATOM      9  C   UNL     1       6.203   4.423  15.053  0.00  0.00    +0.000 A 
ATOM     10  C   UNL     1       7.342   5.134  14.641  0.00  0.00    +0.000 A 
ATOM     11  C   UNL     1       7.751   5.105  13.313  0.00  0.00    +0.000 A 
ATOM     12  C   UNL     1       7.024   4.374  12.380  0.00  0.00    +0.000 A 
ATOM     13  F   UNL     1       7.440   4.351  11.109  0.00  0.00    +0.000 F 
ENDBRANCH   1   9
BRANCH   3  14
ATOM     14  C   UNL     1       3.422   3.428  18.949  0.00  0.00    +0.000 A 
ATOM     15  C   UNL     1       2.052   3.673  18.688  0.00  0.00    +0.000 A 
ATOM     16  C   UNL     1       1.419   4.551  17.677  0.00  0.00    +0.000 C 
ATOM     17  N   UNL     1       1.274   2.982  19.533  0.00  0.00    +0.000 NA
ATOM     18  O   UNL     1       2.135   2.262  20.342  0.00  0.00    +0.000 OA
ATOM     19  C   UNL     1       3.421   2.538  19.995  0.00  0.00    +0.000 A 
ATOM     20  C   UNL     1       4.469   1.858  20.779  0.00  0.00    +0.000 C 
ENDBRANCH   3  14
TORSDOF 2
ENDMDL
MODEL 7
REMARK VINA RESULT:      -7.5      1.215      2.491
REMARK  Name = 
REMARK  5 active torsions:
REMARK  status: ('A' for Active; 'I' for Inactive)
REMARK    1  A    between atoms: C_1  and  C_2
REMARK    2  A    between atoms: C_4  and  C_5
REMARK    3  A    between atoms: C_7  and  C_8
REMARK    4  A    between atoms: C_9  and  C_10
REMARK    5  A    between atoms: C_13  and  C_14
REMARK                            x       y       z     vdW  Elec       q    Type
REMARK                         _______ _______ _______ _____ _____    ______ ____
ROOT
ATOM      1  C   UNL     1       3.031   6.400  18.382  0.00  0.00    +0.000 A 
ATOM      2  N   UNL     1       4.133   6.674  17.720  0.00  0.00    +0.000 NA
ATOM      3  C   UNL     1       4.627   5.535  17.122  0.00  0.00    +0.000 A 
ATOM      4  C   UNL     1       3.889   4.395  17.333  0.00  0.00    +0.000 A 
ATOM      5  S   UNL     1       2.529   4.749  18.302  0.00  0.00    +0.000 S 
ENDROOT
BRANCH   1   9
ATOM      6  C   UNL     1       0.749  10.866  18.546  0.00  0.00    +0.000 C 
ATOM      7  C   UNL     1       1.136   9.571  19.192  0.00  0.00    +0.000 A 
ATOM      8  C   UNL     1       1.882   8.603  18.504  0.00  0.00    +0.000 A 
ATOM      9  C   UNL     1       2.233   7.387  19.120  0.00  0.00    +0.000 A 
ATOM     10  C   UNL     1       1.831   7.160  20.446  0.00  0.00    +0.000 A 
ATOM     11  C   UNL     1       1.101   8.120  21.138  0.00  0.00    +0.000 A 
ATOM     12  C   UNL     1       0.761   9.314  20.513  0.00  0.00    +0.000 A 
ATOM     13  F   UNL     1       0.068  10.229  21.199  0.00  0.00    +0.000 F 
ENDBRANCH   1   9
BRANCH   3  14
ATOM     14  C   UNL     1       5.849   5.626  16.339  0.00  0.00    +0.000 A 
ATOM     15  C   UNL     1       6.085   5.060  15.064  0.00  0.00    +0.000 A 
ATOM     16  C   UNL     1       5.190   4.257  14.199  0.00  0.00    +0.000 C 
ATOM     17  N   UNL     1       7.334   5.320  14.650  0.00  0.00    +0.000 NA
ATOM     18  O   UNL     1       7.915   6.079  15.649  0.00  0.00    +0.000 OA
ATOM     19  C   UNL     1       7.026   6.254  16.664  0.00  0.00    +0.000 A 
ATOM     20  C   UNL     1       7.501   7.033  17.822  0.00  0.00    +0.000 C 
ENDBRANCH   3  14
TORSDOF 2
ENDMDL
MODEL 8
REMARK VINA RESULT:      -7.5      4.788      7.414
REMARK  Name = 
REMARK  5 active torsions:
REMARK  status: ('A' for Active; 'I' for Inactive)
REMARK    1  A    between atoms: C_1  and  C_2
REMARK    2  A    between atoms: C_4  and  C_5
REMARK    3  A    between atoms: C_7  and  C_8
REMARK    4  A    between atoms: C_9  and  C_10
REMARK    5  A    between atoms: C_13  and  C_14
REMARK                            x       y       z     vdW  Elec       q    Type
REMARK                         _______ _______ _______ _____ _____    ______ ____
ROOT
ATOM      1  C   UNL     1       5.855   4.391  16.429  0.00  0.00    +0.000 A 
ATOM      2  N   UNL     1       4.734   3.864  16.867  0.00  0.00    +0.000 NA
ATOM      3  C   UNL     1       4.634   4.020  18.232  0.00  0.00    +0.000 A 
ATOM      4  C   UNL     1       5.687   4.673  18.826  0.00  0.00    +0.000 A 
ATOM      5  S   UNL     1       6.841   5.117  17.650  0.00  0.00    +0.000 S 
ENDROOT
BRANCH   1   9
ATOM      6  C   UNL     1       5.246   2.809  11.706  0.00  0.00    +0.000 C 
ATOM      7  C   UNL     1       5.972   3.631  12.727  0.00  0.00    +0.000 A 
ATOM      8  C   UNL     1       5.585   3.636  14.074  0.00  0.00    +0.000 A 
ATOM      9  C   UNL     1       6.271   4.419  15.021  0.00  0.00    +0.000 A 
ATOM     10  C   UNL     1       7.363   5.193  14.596  0.00  0.00    +0.000 A 
ATOM     11  C   UNL     1       7.760   5.183  13.263  0.00  0.00    +0.000 A 
ATOM     12  C   UNL     1       7.069   4.406  12.341  0.00  0.00    +0.000 A 
ATOM     13  F   UNL     1       7.473   4.402  11.066  0.00  0.00    +0.000 F 
ENDBRANCH   1   9
BRANCH   3  14
ATOM     14  C   UNL     1       3.460   3.499  18.914  0.00  0.00    +0.000 A 
ATOM     15  C   UNL     1       3.440   2.568  19.980  0.00  0.00    +0.000 A 
ATOM     16  C   UNL     1       4.561   1.897  20.678  0.00  0.00    +0.000 C 
ATOM     17  N   UNL     1       2.180   2.292  20.349  0.00  0.00    +0.000 NA
ATOM     18  O   UNL     1       1.368   3.060  19.535  0.00  0.00    +0.000 OA
ATOM     19  C   UNL     1       2.137   3.777  18.671  0.00  0.00    +0.000 A 
ATOM     20  C   UNL     1       1.417   4.640  17.717  0.00  0.00    +0.000 C 
ENDBRANCH   3  14
TORSDOF 2
ENDMDL
MODEL 9
REMARK VINA RESULT:      -7.4      0.589      1.502
REMARK  Name = 
REMARK  5 active torsions:
REMARK  status: ('A' for Active; 'I' for Inactive)
REMARK    1  A    between atoms: C_1  and  C_2
REMARK    2  A    between atoms: C_4  and  C_5
REMARK    3  A    between atoms: C_7  and  C_8
REMARK    4  A    between atoms: C_9  and  C_10
REMARK    5  A    between atoms: C_13  and  C_14
REMARK                            x       y       z     vdW  Elec       q    Type
REMARK                         _______ _______ _______ _____ _____    ______ ____
ROOT
ATOM      1  C   UNL     1       2.843   6.100  18.545  0.00  0.00    +0.000 A 
ATOM      2  N   UNL     1       4.110   6.115  18.195  0.00  0.00    +0.000 NA
ATOM      3  C   UNL     1       4.445   4.936  17.564  0.00  0.00    +0.000 A 
ATOM      4  C   UNL     1       3.422   4.029  17.435  0.00  0.00    +0.000 A 
ATOM      5  S   UNL     1       1.989   4.661  18.113  0.00  0.00    +0.000 S 
ENDROOT
BRANCH   1   9
ATOM      6  C   UNL     1       1.056  10.788  18.449  0.00  0.00    +0.000 C 
ATOM      7  C   UNL     1       1.295   9.494  19.164  0.00  0.00    +0.000 A 
ATOM      8  C   UNL     1       1.938   8.417  18.538  0.00  0.00    +0.000 A 
ATOM      9  C   UNL     1       2.149   7.204  19.220  0.00  0.00    +0.000 A 
ATOM     10  C   UNL     1       1.712   7.090  20.549  0.00  0.00    +0.000 A 
ATOM     11  C   UNL     1       1.084   8.158  21.181  0.00  0.00    +0.000 A 
ATOM     12  C   UNL     1       0.881   9.347  20.491  0.00  0.00    +0.000 A 
ATOM     13  F   UNL     1       0.285  10.367  21.120  0.00  0.00    +0.000 F 
ENDBRANCH   1   9
BRANCH   3  14
ATOM     14  C   UNL     1       5.811   4.753  17.099  0.00  0.00    +0.000 A 
ATOM     15  C   UNL     1       6.992   4.868  17.870  0.00  0.00    +0.000 A 
ATOM     16  C   UNL     1       7.165   5.186  19.306  0.00  0.00    +0.000 C 
ATOM     17  N   UNL     1       8.079   4.659  17.111  0.00  0.00    +0.000 NA
ATOM     18  O   UNL     1       7.608   4.384  15.840  0.00  0.00    +0.000 OA
ATOM     19  C   UNL     1       6.249   4.449  15.834  0.00  0.00    +0.000 A 
ATOM     20  C   UNL     1       5.589   4.197  14.540  0.00  0.00    +0.000 C 
ENDBRANCH   3  14
TORSDOF 2
ENDMDL
