MODEL 1
REMARK VINA RESULT:      -9.0      0.000      0.000
REMARK  Name = 
REMARK  6 active torsions:
REMARK  status: ('A' for Active; 'I' for Inactive)
REMARK    1  A    between atoms: C_1  and  C_2
REMARK    2  A    between atoms: C_5  and  C_6
REMARK    3  A    between atoms: C_10  and  N_11
REMARK    4  A    between atoms: C_16  and  C_17
REMARK    5  A    between atoms: N_19  and  C_20
REMARK    6  A    between atoms: C_25  and  C_26
REMARK                            x       y       z     vdW  Elec       q    Type
REMARK                         _______ _______ _______ _____ _____    ______ ____
ROOT
ATOM      1  C   UNL     1       4.490   5.655  16.838  0.00  0.00    +0.000 A 
ATOM      2  C   UNL     1       4.374   6.867  17.485  0.00  0.00    +0.000 A 
ATOM      3  C   UNL     1       3.419   6.714  18.527  0.00  0.00    +0.000 A 
ATOM      4  C   UNL     1       2.900   7.584  19.507  0.00  0.00    +0.000 A 
ATOM      5  C   UNL     1       1.942   7.124  20.418  0.00  0.00    +0.000 A 
ATOM      6  C   UNL     1       1.589   5.769  20.373  0.00  0.00    +0.000 A 
ATOM      7  C   UNL     1       2.061   4.866  19.406  0.00  0.00    +0.000 A 
ATOM      8  C   UNL     1       1.599   3.441  19.419  0.00  0.00    +0.000 C 
ATOM      9  C   UNL     1       2.977   5.392  18.490  0.00  0.00    +0.000 A 
ATOM     10  N   UNL     1       3.618   4.784  17.435  0.00  0.00    +0.000 N 
ATOM     11  H   UNL     1       3.488   3.820  17.157  0.00  0.00    +0.000 HD
ENDROOT
BRANCH   5  12
ATOM     12  N   UNL     1       1.413   8.019  21.373  0.00  0.00    +0.000 N 
ATOM     13  C   UNL     1       0.588   9.125  21.136  0.00  0.00    +0.000 A 
ATOM     14  N   UNL     1       0.681  10.137  22.010  0.00  0.00    +0.000 NA
ATOM     15  C   UNL     1       0.032  11.275  21.690  0.00  0.00    +0.000 A 
ATOM     16  C   UNL     1      -0.701  11.442  20.541  0.00  0.00    +0.000 A 
ATOM     17  C   UNL     1      -0.787  10.333  19.739  0.00  0.00    +0.000 A 
ATOM     18  N   UNL     1      -0.164   9.181  20.036  0.00  0.00    +0.000 NA
ATOM     19  H   UNL     1       2.044   8.275  22.119  0.00  0.00    +0.000 HD
BRANCH  17  20
ATOM     20  C   UNL     1      -1.570  10.339  18.514  0.00  0.00    +0.000 A 
ATOM     21  C   UNL     1      -2.774  10.995  18.340  0.00  0.00    +0.000 A 
ATOM     22  N   UNL     1      -3.100  10.799  17.033  0.00  0.00    +0.000 N 
ATOM     23  C   UNL     1      -4.226  11.370  16.340  0.00  0.00    +0.000 C 
ATOM     24  C   UNL     1      -2.142  10.005  16.477  0.00  0.00    +0.000 A 
ATOM     25  N   UNL     1      -1.195   9.706  17.345  0.00  0.00    +0.000 NA
ENDBRANCH  17  20
ENDBRANCH   5  12
BRANCH   1  30
ATOM     26  C   UNL     1       6.007   3.463  12.808  0.00  0.00    +0.000 C 
ATOM     27  C   UNL     1       6.063   4.333  13.994  0.00  0.00    +0.000 A 
ATOM     28  N   UNL     1       6.998   5.170  14.382  0.00  0.00    +0.000 NA
ATOM     29  N   UNL     1       6.523   5.768  15.530  0.00  0.00    +0.000 NA
ATOM     30  C   UNL     1       5.331   5.257  15.762  0.00  0.00    +0.000 A 
ATOM     31  O   UNL     1       4.977   4.321  14.822  0.00  0.00    +0.000 OA
ENDBRANCH   1  30
TORSDOF 3
ENDMDL
MODEL 2
REMARK VINA RESULT:      -8.6      4.138      5.936
REMARK  Name = 
REMARK  6 active torsions:
REMARK  status: ('A' for Active; 'I' for Inactive)
REMARK    1  A    between atoms: C_1  and  C_2
REMARK    2  A    between atoms: C_5  and  C_6
REMARK    3  A    between atoms: C_10  and  N_11
REMARK    4  A    between atoms: C_16  and  C_17
REMARK    5  A    between atoms: N_19  and  C_20
REMARK    6  A    between atoms: C_25  and  C_26
REMARK                            x       y       z     vdW  Elec       q    Type
REMARK                         _______ _______ _______ _____ _____    ______ ____
ROOT
ATOM      1  C   UNL     1       2.848   6.588  19.221  0.00  0.00    +0.000 A 
ATOM      2  C   UNL     1       2.571   7.463  18.194  0.00  0.00    +0.000 A 
ATOM      3  C   UNL     1       1.831   8.550  18.736  0.00  0.00    +0.000 A 
ATOM      4  C   UNL     1       1.286   9.728  18.184  0.00  0.00    +0.000 A 
ATOM      5  C   UNL     1       0.591  10.628  19.000  0.00  0.00    +0.000 A 
ATOM      6  C   UNL     1       0.532  10.360  20.374  0.00  0.00    +0.000 A 
ATOM      7  C   UNL     1       1.042   9.195  20.969  0.00  0.00    +0.000 A 
ATOM      8  C   UNL     1       0.901   8.982  22.446  0.00  0.00    +0.000 C 
ATOM      9  C   UNL     1       1.681   8.307  20.100  0.00  0.00    +0.000 A 
ATOM     10  N   UNL     1       2.277   7.093  20.359  0.00  0.00    +0.000 N 
ATOM     11  H   UNL     1       2.318   6.651  21.268  0.00  0.00    +0.000 HD
ENDROOT
BRANCH   5  12
ATOM     12  N   UNL     1       0.026  11.786  18.423  0.00  0.00    +0.000 N 
ATOM     13  C   UNL     1       0.538  13.088  18.455  0.00  0.00    +0.000 A 
ATOM     14  N   UNL     1      -0.358  14.083  18.398  0.00  0.00    +0.000 NA
ATOM     15  C   UNL     1       0.108  15.330  18.613  0.00  0.00    +0.000 A 
ATOM     16  C   UNL     1       1.423  15.622  18.882  0.00  0.00    +0.000 A 
ATOM     17  C   UNL     1       2.274  14.547  18.860  0.00  0.00    +0.000 A 
ATOM     18  N   UNL     1       1.844  13.295  18.635  0.00  0.00    +0.000 NA
ATOM     19  H   UNL     1      -0.978  11.861  18.502  0.00  0.00    +0.000 HD
BRANCH  17  20
ATOM     20  C   UNL     1       3.702  14.704  19.075  0.00  0.00    +0.000 A 
ATOM     21  C   UNL     1       4.666  14.674  18.085  0.00  0.00    +0.000 A 
ATOM     22  N   UNL     1       5.839  14.943  18.722  0.00  0.00    +0.000 N 
ATOM     23  C   UNL     1       7.127  15.118  18.100  0.00  0.00    +0.000 C 
ATOM     24  C   UNL     1       5.573  15.070  20.053  0.00  0.00    +0.000 A 
ATOM     25  N   UNL     1       4.286  14.933  20.306  0.00  0.00    +0.000 NA
ENDBRANCH  17  20
ENDBRANCH   5  12
BRANCH   1  30
ATOM     26  C   UNL     1       3.874   1.871  19.003  0.00  0.00    +0.000 C 
ATOM     27  C   UNL     1       4.115   3.317  19.137  0.00  0.00    +0.000 A 
ATOM     28  N   UNL     1       5.247   3.979  19.212  0.00  0.00    +0.000 NA
ATOM     29  N   UNL     1       4.905   5.314  19.272  0.00  0.00    +0.000 NA
ATOM     30  C   UNL     1       3.589   5.374  19.229  0.00  0.00    +0.000 A 
ATOM     31  O   UNL     1       3.016   4.128  19.153  0.00  0.00    +0.000 OA
ENDBRANCH   1  30
TORSDOF 3
ENDMDL
MODEL 3
REMARK VINA RESULT:      -8.4      3.822      5.935
REMARK  Name = 
REMARK  6 active torsions:
REMARK  status: ('A' for Active; 'I' for Inactive)
REMARK    1  A    between atoms: C_1  and  C_2
REMARK    2  A    between atoms: C_5  and  C_6
REMARK    3  A    between atoms: C_10  and  N_11
REMARK    4  A    between atoms: C_16  and  C_17
REMARK    5  A    between atoms: N_19  and  C_20
REMARK    6  A    between atoms: C_25  and  C_26
REMARK                            x       y       z     vdW  Elec       q    Type
REMARK                         _______ _______ _______ _____ _____    ______ ____
ROOT
ATOM      1  C   UNL     1       2.939   6.298  19.048  0.00  0.00    +0.000 A 
ATOM      2  C   UNL     1       2.865   7.252  18.056  0.00  0.00    +0.000 A 
ATOM      3  C   UNL     1       2.117   8.350  18.564  0.00  0.00    +0.000 A 
ATOM      4  C   UNL     1       1.726   9.594  18.026  0.00  0.00    +0.000 A 
ATOM      5  C   UNL     1       0.971  10.486  18.797  0.00  0.00    +0.000 A 
ATOM      6  C   UNL     1       0.698  10.137  20.126  0.00  0.00    +0.000 A 
ATOM      7  C   UNL     1       1.048   8.906  20.703  0.00  0.00    +0.000 A 
ATOM      8  C   UNL     1       0.681   8.611  22.126  0.00  0.00    +0.000 C 
ATOM      9  C   UNL     1       1.755   8.033  19.873  0.00  0.00    +0.000 A 
ATOM     10  N   UNL     1       2.237   6.769  20.127  0.00  0.00    +0.000 N 
ATOM     11  H   UNL     1       2.119   6.269  20.998  0.00  0.00    +0.000 HD
ENDROOT
BRANCH   5  12
ATOM     12  N   UNL     1       0.564  11.712  18.230  0.00  0.00    +0.000 N 
ATOM     13  C   UNL     1       0.927  13.001  18.638  0.00  0.00    +0.000 A 
ATOM     14  N   UNL     1       0.037  13.975  18.403  0.00  0.00    +0.000 NA
ATOM     15  C   UNL     1       0.296  15.178  18.955  0.00  0.00    +0.000 A 
ATOM     16  C   UNL     1       1.400  15.445  19.727  0.00  0.00    +0.000 A 
ATOM     17  C   UNL     1       2.282  14.405  19.862  0.00  0.00    +0.000 A 
ATOM     18  N   UNL     1       2.060  13.199  19.314  0.00  0.00    +0.000 NA
ATOM     19  H   UNL     1      -0.405  11.755  17.945  0.00  0.00    +0.000 HD
BRANCH  17  20
ATOM     20  C   UNL     1       3.522  14.551  20.607  0.00  0.00    +0.000 A 
ATOM     21  C   UNL     1       4.702  15.060  20.101  0.00  0.00    +0.000 A 
ATOM     22  N   UNL     1       5.561  15.088  21.157  0.00  0.00    +0.000 N 
ATOM     23  C   UNL     1       6.895  15.629  21.157  0.00  0.00    +0.000 C 
ATOM     24  C   UNL     1       4.915  14.557  22.234  0.00  0.00    +0.000 A 
ATOM     25  N   UNL     1       3.674  14.221  21.940  0.00  0.00    +0.000 NA
ENDBRANCH  17  20
ENDBRANCH   5  12
BRANCH   1  30
ATOM     26  C   UNL     1       3.726   1.551  18.606  0.00  0.00    +0.000 C 
ATOM     27  C   UNL     1       4.020   2.964  18.897  0.00  0.00    +0.000 A 
ATOM     28  N   UNL     1       5.158   3.541  19.210  0.00  0.00    +0.000 NA
ATOM     29  N   UNL     1       4.885   4.887  19.325  0.00  0.00    +0.000 NA
ATOM     30  C   UNL     1       3.600   5.040  19.074  0.00  0.00    +0.000 A 
ATOM     31  O   UNL     1       2.981   3.845  18.802  0.00  0.00    +0.000 OA
ENDBRANCH   1  30
TORSDOF 3
ENDMDL
MODEL 4
REMARK VINA RESULT:      -8.2      1.036      1.335
REMARK  Name = 
REMARK  6 active torsions:
REMARK  status: ('A' for Active; 'I' for Inactive)
REMARK    1  A    between atoms: C_1  and  C_2
REMARK    2  A    between atoms: C_5  and  C_6
REMARK    3  A    between atoms: C_10  and  N_11
REMARK    4  A    between atoms: C_16  and  C_17
REMARK    5  A    between atoms: N_19  and  C_20
REMARK    6  A    between atoms: C_25  and  C_26
REMARK                            x       y       z     vdW  Elec       q    Type
REMARK                         _______ _______ _______ _____ _____    ______ ____
ROOT
ATOM      1  C   UNL     1       3.873   6.263  17.474  0.00  0.00    +0.000 A 
ATOM      2  C   UNL     1       3.602   7.523  17.964  0.00  0.00    +0.000 A 
ATOM      3  C   UNL     1       2.718   7.378  19.069  0.00  0.00    +0.000 A 
ATOM      4  C   UNL     1       2.111   8.291  19.956  0.00  0.00    +0.000 A 
ATOM      5  C   UNL     1       1.266   7.826  20.971  0.00  0.00    +0.000 A 
ATOM      6  C   UNL     1       1.118   6.442  21.121  0.00  0.00    +0.000 A 
ATOM      7  C   UNL     1       1.684   5.493  20.254  0.00  0.00    +0.000 A 
ATOM      8  C   UNL     1       1.441   4.031  20.477  0.00  0.00    +0.000 C 
ATOM      9  C   UNL     1       2.477   6.014  19.228  0.00  0.00    +0.000 A 
ATOM     10  N   UNL     1       3.163   5.366  18.226  0.00  0.00    +0.000 N 
ATOM     11  H   UNL     1       3.168   4.365  18.083  0.00  0.00    +0.000 HD
ENDROOT
BRANCH   5  12
ATOM     12  N   UNL     1       0.644   8.758  21.830  0.00  0.00    +0.000 N 
ATOM     13  C   UNL     1      -0.142   9.858  21.465  0.00  0.00    +0.000 A 
ATOM     14  N   UNL     1      -0.136  10.901  22.307  0.00  0.00    +0.000 NA
ATOM     15  C   UNL     1      -0.738  12.028  21.878  0.00  0.00    +0.000 A 
ATOM     16  C   UNL     1      -1.341  12.156  20.651  0.00  0.00    +0.000 A 
ATOM     17  C   UNL     1      -1.349  11.019  19.885  0.00  0.00    +0.000 A 
ATOM     18  N   UNL     1      -0.771   9.876  20.289  0.00  0.00    +0.000 NA
ATOM     19  H   UNL     1       1.193   9.040  22.630  0.00  0.00    +0.000 HD
BRANCH  17  20
ATOM     20  C   UNL     1      -1.996  10.982  18.584  0.00  0.00    +0.000 A 
ATOM     21  C   UNL     1      -1.607  10.192  17.520  0.00  0.00    +0.000 A 
ATOM     22  N   UNL     1      -2.534  10.418  16.549  0.00  0.00    +0.000 N 
ATOM     23  C   UNL     1      -2.617   9.749  15.276  0.00  0.00    +0.000 C 
ATOM     24  C   UNL     1      -3.406  11.356  17.015  0.00  0.00    +0.000 A 
ATOM     25  N   UNL     1      -3.114  11.722  18.248  0.00  0.00    +0.000 NA
ENDBRANCH  17  20
ENDBRANCH   5  12
BRANCH   1  30
ATOM     26  C   UNL     1       5.985   3.454  14.158  0.00  0.00    +0.000 C 
ATOM     27  C   UNL     1       5.690   4.672  14.929  0.00  0.00    +0.000 A 
ATOM     28  N   UNL     1       6.122   5.902  14.759  0.00  0.00    +0.000 NA
ATOM     29  N   UNL     1       5.495   6.663  15.723  0.00  0.00    +0.000 NA
ATOM     30  C   UNL     1       4.724   5.847  16.414  0.00  0.00    +0.000 A 
ATOM     31  O   UNL     1       4.809   4.552  15.965  0.00  0.00    +0.000 OA
ENDBRANCH   1  30
TORSDOF 3
ENDMDL
MODEL 5
REMARK VINA RESULT:      -8.1      1.103      1.334
REMARK  Name = 
REMARK  6 active torsions:
REMARK  status: ('A' for Active; 'I' for Inactive)
REMARK    1  A    between atoms: C_1  and  C_2
REMARK    2  A    between atoms: C_5  and  C_6
REMARK    3  A    between atoms: C_10  and  N_11
REMARK    4  A    between atoms: C_16  and  C_17
REMARK    5  A    between atoms: N_19  and  C_20
REMARK    6  A    between atoms: C_25  and  C_26
REMARK                            x       y       z     vdW  Elec       q    Type
REMARK                         _______ _______ _______ _____ _____    ______ ____
ROOT
ATOM      1  C   UNL     1       3.973   5.480  17.408  0.00  0.00    +0.000 A 
ATOM      2  C   UNL     1       3.935   6.777  17.874  0.00  0.00    +0.000 A 
ATOM      3  C   UNL     1       2.982   6.831  18.929  0.00  0.00    +0.000 A 
ATOM      4  C   UNL     1       2.524   7.862  19.775  0.00  0.00    +0.000 A 
ATOM      5  C   UNL     1       1.550   7.594  20.744  0.00  0.00    +0.000 A 
ATOM      6  C   UNL     1       1.118   6.270  20.893  0.00  0.00    +0.000 A 
ATOM      7  C   UNL     1       1.528   5.212  20.066  0.00  0.00    +0.000 A 
ATOM      8  C   UNL     1       0.984   3.833  20.283  0.00  0.00    +0.000 C 
ATOM      9  C   UNL     1       2.463   5.546  19.083  0.00  0.00    +0.000 A 
ATOM     10  N   UNL     1       3.057   4.756  18.124  0.00  0.00    +0.000 N 
ATOM     11  H   UNL     1       2.869   3.772  17.988  0.00  0.00    +0.000 HD
ENDROOT
BRANCH   5  12
ATOM     12  N   UNL     1       1.083   8.647  21.560  0.00  0.00    +0.000 N 
ATOM     13  C   UNL     1       0.303   9.742  21.173  0.00  0.00    +0.000 A 
ATOM     14  N   UNL     1       0.460  10.868  21.883  0.00  0.00    +0.000 NA
ATOM     15  C   UNL     1      -0.144  11.974  21.405  0.00  0.00    +0.000 A 
ATOM     16  C   UNL     1      -0.895  12.002  20.256  0.00  0.00    +0.000 A 
ATOM     17  C   UNL     1      -1.049  10.791  19.631  0.00  0.00    +0.000 A 
ATOM     18  N   UNL     1      -0.471   9.669  20.089  0.00  0.00    +0.000 NA
ATOM     19  H   UNL     1       1.741   8.982  22.249  0.00  0.00    +0.000 HD
BRANCH  17  20
ATOM     20  C   UNL     1      -1.859  10.651  18.433  0.00  0.00    +0.000 A 
ATOM     21  C   UNL     1      -1.422  10.132  17.229  0.00  0.00    +0.000 A 
ATOM     22  N   UNL     1      -2.522  10.115  16.427  0.00  0.00    +0.000 N 
ATOM     23  C   UNL     1      -2.598   9.570  15.096  0.00  0.00    +0.000 C 
ATOM     24  C   UNL     1      -3.557  10.660  17.126  0.00  0.00    +0.000 A 
ATOM     25  N   UNL     1      -3.194  10.996  18.350  0.00  0.00    +0.000 NA
ENDBRANCH  17  20
ENDBRANCH   5  12
BRANCH   1  30
ATOM     26  C   UNL     1       6.882   5.017  13.578  0.00  0.00    +0.000 C 
ATOM     27  C   UNL     1       6.062   4.605  14.728  0.00  0.00    +0.000 A 
ATOM     28  N   UNL     1       5.908   3.419  15.272  0.00  0.00    +0.000 NA
ATOM     29  N   UNL     1       5.075   3.601  16.355  0.00  0.00    +0.000 NA
ATOM     30  C   UNL     1       4.779   4.884  16.399  0.00  0.00    +0.000 A 
ATOM     31  O   UNL     1       5.370   5.587  15.378  0.00  0.00    +0.000 OA
ENDBRANCH   1  30
TORSDOF 3
ENDMDL
MODEL 6
REMARK VINA RESULT:      -8.0      3.506      5.764
REMARK  Name = 
REMARK  6 active torsions:
REMARK  status: ('A' for Active; 'I' for Inactive)
REMARK    1  A    between atoms: C_1  and  C_2
REMARK    2  A    between atoms: C_5  and  C_6
REMARK    3  A    between atoms: C_10  and  N_11
REMARK    4  A    between atoms: C_16  and  C_17
REMARK    5  A    between atoms: N_19  and  C_20
REMARK    6  A    between atoms: C_25  and  C_26
REMARK                            x       y       z     vdW  Elec       q    Type
REMARK                         _______ _______ _______ _____ _____    ______ ____
ROOT
ATOM      1  C   UNL     1       1.496   8.151  20.297  0.00  0.00    +0.000 A 
ATOM      2  C   UNL     1       0.952   8.270  21.558  0.00  0.00    +0.000 A 
ATOM      3  C   UNL     1       0.285   9.524  21.628  0.00  0.00    +0.000 A 
ATOM      4  C   UNL     1      -0.446  10.183  22.637  0.00  0.00    +0.000 A 
ATOM      5  C   UNL     1      -0.996  11.447  22.394  0.00  0.00    +0.000 A 
ATOM      6  C   UNL     1      -0.866  11.984  21.107  0.00  0.00    +0.000 A 
ATOM      7  C   UNL     1      -0.133  11.378  20.073  0.00  0.00    +0.000 A 
ATOM      8  C   UNL     1      -0.023  12.047  18.737  0.00  0.00    +0.000 C 
ATOM      9  C   UNL     1       0.437  10.142  20.387  0.00  0.00    +0.000 A 
ATOM     10  N   UNL     1       1.204   9.301  19.612  0.00  0.00    +0.000 N 
ATOM     11  H   UNL     1       1.488   9.490  18.660  0.00  0.00    +0.000 HD
ENDROOT
BRANCH   5  12
ATOM     12  N   UNL     1      -1.699  12.103  23.427  0.00  0.00    +0.000 N 
ATOM     13  C   UNL     1      -2.967  12.690  23.354  0.00  0.00    +0.000 A 
ATOM     14  N   UNL     1      -3.197  13.720  24.181  0.00  0.00    +0.000 NA
ATOM     15  C   UNL     1      -4.342  14.406  23.989  0.00  0.00    +0.000 A 
ATOM     16  C   UNL     1      -5.261  14.108  23.013  0.00  0.00    +0.000 A 
ATOM     17  C   UNL     1      -4.968  13.002  22.257  0.00  0.00    +0.000 A 
ATOM     18  N   UNL     1      -3.843  12.290  22.431  0.00  0.00    +0.000 NA
ATOM     19  H   UNL     1      -1.136  12.690  24.026  0.00  0.00    +0.000 HD
BRANCH  17  20
ATOM     20  C   UNL     1      -5.869  12.531  21.219  0.00  0.00    +0.000 A 
ATOM     21  C   UNL     1      -5.937  13.029  19.932  0.00  0.00    +0.000 A 
ATOM     22  N   UNL     1      -6.848  12.245  19.293  0.00  0.00    +0.000 N 
ATOM     23  C   UNL     1      -7.197  12.307  17.897  0.00  0.00    +0.000 C 
ATOM     24  C   UNL     1      -7.339  11.352  20.198  0.00  0.00    +0.000 A 
ATOM     25  N   UNL     1      -6.767  11.492  21.379  0.00  0.00    +0.000 NA
ENDBRANCH  17  20
ENDBRANCH   5  12
BRANCH   1  30
ATOM     26  C   UNL     1       4.373   5.733  17.261  0.00  0.00    +0.000 C 
ATOM     27  C   UNL     1       3.479   5.959  18.407  0.00  0.00    +0.000 A 
ATOM     28  N   UNL     1       3.137   5.147  19.382  0.00  0.00    +0.000 NA
ATOM     29  N   UNL     1       2.320   5.878  20.219  0.00  0.00    +0.000 NA
ATOM     30  C   UNL     1       2.221   7.084  19.699  0.00  0.00    +0.000 A 
ATOM     31  O   UNL     1       2.930   7.204  18.529  0.00  0.00    +0.000 OA
ENDBRANCH   1  30
TORSDOF 3
ENDMDL
MODEL 7
REMARK VINA RESULT:      -7.9      4.085      5.658
REMARK  Name = 
REMARK  6 active torsions:
REMARK  status: ('A' for Active; 'I' for Inactive)
REMARK    1  A    between atoms: C_1  and  C_2
REMARK    2  A    between atoms: C_5  and  C_6
REMARK    3  A    between atoms: C_10  and  N_11
REMARK    4  A    between atoms: C_16  and  C_17
REMARK    5  A    between atoms: N_19  and  C_20
REMARK    6  A    between atoms: C_25  and  C_26
REMARK                            x       y       z     vdW  Elec       q    Type
REMARK                         _______ _______ _______ _____ _____    ______ ____
ROOT
ATOM      1  C   UNL     1       3.056   6.984  18.311  0.00  0.00    +0.000 A 
ATOM      2  C   UNL     1       2.738   8.026  17.466  0.00  0.00    +0.000 A 
ATOM      3  C   UNL     1       1.913   8.933  18.186  0.00  0.00    +0.000 A 
ATOM      4  C   UNL     1       1.296  10.158  17.858  0.00  0.00    +0.000 A 
ATOM      5  C   UNL     1       0.524  10.832  18.811  0.00  0.00    +0.000 A 
ATOM      6  C   UNL     1       0.458  10.295  20.103  0.00  0.00    +0.000 A 
ATOM      7  C   UNL     1       1.037   9.071  20.475  0.00  0.00    +0.000 A 
ATOM      8  C   UNL     1       0.884   8.561  21.876  0.00  0.00    +0.000 C 
ATOM      9  C   UNL     1       1.754   8.416  19.471  0.00  0.00    +0.000 A 
ATOM     10  N   UNL     1       2.430   7.217  19.507  0.00  0.00    +0.000 N 
ATOM     11  H   UNL     1       2.483   6.607  20.312  0.00  0.00    +0.000 HD
ENDROOT
BRANCH   5  12
ATOM     12  N   UNL     1      -0.110  12.042  18.454  0.00  0.00    +0.000 N 
ATOM     13  C   UNL     1       0.418  13.335  18.538  0.00  0.00    +0.000 A 
ATOM     14  N   UNL     1      -0.462  14.328  18.727  0.00  0.00    +0.000 NA
ATOM     15  C   UNL     1       0.048  15.548  18.992  0.00  0.00    +0.000 A 
ATOM     16  C   UNL     1       1.393  15.814  19.076  0.00  0.00    +0.000 A 
ATOM     17  C   UNL     1       2.215  14.750  18.809  0.00  0.00    +0.000 A 
ATOM     18  N   UNL     1       1.738  13.527  18.528  0.00  0.00    +0.000 NA
ATOM     19  H   UNL     1      -1.088  12.105  18.700  0.00  0.00    +0.000 HD
BRANCH  17  20
ATOM     20  C   UNL     1       3.662  14.888  18.807  0.00  0.00    +0.000 A 
ATOM     21  C   UNL     1       4.459  14.954  19.933  0.00  0.00    +0.000 A 
ATOM     22  N   UNL     1       5.737  14.996  19.464  0.00  0.00    +0.000 N 
ATOM     23  C   UNL     1       6.938  14.974  20.258  0.00  0.00    +0.000 C 
ATOM     24  C   UNL     1       5.681  15.011  18.102  0.00  0.00    +0.000 A 
ATOM     25  N   UNL     1       4.438  14.945  17.665  0.00  0.00    +0.000 NA
ENDBRANCH  17  20
ENDBRANCH   5  12
BRANCH   1  30
ATOM     26  C   UNL     1       5.799   3.683  16.091  0.00  0.00    +0.000 C 
ATOM     27  C   UNL     1       5.102   4.361  17.196  0.00  0.00    +0.000 A 
ATOM     28  N   UNL     1       5.137   4.121  18.487  0.00  0.00    +0.000 NA
ATOM     29  N   UNL     1       4.344   5.083  19.076  0.00  0.00    +0.000 NA
ATOM     30  C   UNL     1       3.881   5.844  18.105  0.00  0.00    +0.000 A 
ATOM     31  O   UNL     1       4.319   5.432  16.870  0.00  0.00    +0.000 OA
ENDBRANCH   1  30
TORSDOF 3
ENDMDL
MODEL 8
REMARK VINA RESULT:      -7.9      3.331      8.967
REMARK  Name = 
REMARK  6 active torsions:
REMARK  status: ('A' for Active; 'I' for Inactive)
REMARK    1  A    between atoms: C_1  and  C_2
REMARK    2  A    between atoms: C_5  and  C_6
REMARK    3  A    between atoms: C_10  and  N_11
REMARK    4  A    between atoms: C_16  and  C_17
REMARK    5  A    between atoms: N_19  and  C_20
REMARK    6  A    between atoms: C_25  and  C_26
REMARK                            x       y       z     vdW  Elec       q    Type
REMARK                         _______ _______ _______ _____ _____    ______ ____
ROOT
ATOM      1  C   UNL     1       0.457  11.269  20.548  0.00  0.00    +0.000 A 
ATOM      2  C   UNL     1       0.379  10.270  21.495  0.00  0.00    +0.000 A 
ATOM      3  C   UNL     1       0.932   9.089  20.928  0.00  0.00    +0.000 A 
ATOM      4  C   UNL     1       1.129   7.778  21.409  0.00  0.00    +0.000 A 
ATOM      5  C   UNL     1       1.717   6.810  20.587  0.00  0.00    +0.000 A 
ATOM      6  C   UNL     1       2.170   7.208  19.323  0.00  0.00    +0.000 A 
ATOM      7  C   UNL     1       1.981   8.493  18.790  0.00  0.00    +0.000 A 
ATOM      8  C   UNL     1       2.473   8.816  17.411  0.00  0.00    +0.000 C 
ATOM      9  C   UNL     1       1.344   9.406  19.634  0.00  0.00    +0.000 A 
ATOM     10  N   UNL     1       1.012  10.725  19.419  0.00  0.00    +0.000 N 
ATOM     11  H   UNL     1       1.181  11.232  18.561  0.00  0.00    +0.000 HD
ENDROOT
BRANCH   5  12
ATOM     12  N   UNL     1       1.877   5.496  21.077  0.00  0.00    +0.000 N 
ATOM     13  C   UNL     1       2.653   4.471  20.524  0.00  0.00    +0.000 A 
ATOM     14  N   UNL     1       2.236   3.217  20.751  0.00  0.00    +0.000 NA
ATOM     15  C   UNL     1       2.866   2.237  20.073  0.00  0.00    +0.000 A 
ATOM     16  C   UNL     1       3.889   2.456  19.184  0.00  0.00    +0.000 A 
ATOM     17  C   UNL     1       4.286   3.763  19.063  0.00  0.00    +0.000 A 
ATOM     18  N   UNL     1       3.688   4.760  19.734  0.00  0.00    +0.000 NA
ATOM     19  H   UNL     1       1.039   5.067  21.443  0.00  0.00    +0.000 HD
BRANCH  17  20
ATOM     20  C   UNL     1       5.391   4.145  18.199  0.00  0.00    +0.000 A 
ATOM     21  C   UNL     1       5.364   4.138  16.818  0.00  0.00    +0.000 A 
ATOM     22  N   UNL     1       6.569   4.643  16.435  0.00  0.00    +0.000 N 
ATOM     23  C   UNL     1       6.986   4.925  15.086  0.00  0.00    +0.000 C 
ATOM     24  C   UNL     1       7.298   4.884  17.562  0.00  0.00    +0.000 A 
ATOM     25  N   UNL     1       6.615   4.596  18.653  0.00  0.00    +0.000 NA
ENDBRANCH  17  20
ENDBRANCH   5  12
BRANCH   1  30
ATOM     26  C   UNL     1      -0.494  15.807  19.190  0.00  0.00    +0.000 C 
ATOM     27  C   UNL     1      -0.355  14.651  20.090  0.00  0.00    +0.000 A 
ATOM     28  N   UNL     1      -0.673  14.528  21.358  0.00  0.00    +0.000 NA
ATOM     29  N   UNL     1      -0.386  13.223  21.699  0.00  0.00    +0.000 NA
ATOM     30  C   UNL     1       0.087  12.640  20.616  0.00  0.00    +0.000 A 
ATOM     31  O   UNL     1       0.144  13.501  19.548  0.00  0.00    +0.000 OA
ENDBRANCH   1  30
TORSDOF 3
ENDMDL
MODEL 9
REMARK VINA RESULT:      -7.9      3.268      9.107
REMARK  Name = 
REMARK  6 active torsions:
REMARK  status: ('A' for Active; 'I' for Inactive)
REMARK    1  A    between atoms: C_1  and  C_2
REMARK    2  A    between atoms: C_5  and  C_6
REMARK    3  A    between atoms: C_10  and  N_11
REMARK    4  A    between atoms: C_16  and  C_17
REMARK    5  A    between atoms: N_19  and  C_20
REMARK    6  A    between atoms: C_25  and  C_26
REMARK                            x       y       z     vdW  Elec       q    Type
REMARK                         _______ _______ _______ _____ _____    ______ ____
ROOT
ATOM      1  C   UNL     1      -0.555  11.061  20.788  0.00  0.00    +0.000 A 
ATOM      2  C   UNL     1      -0.427   9.998  21.657  0.00  0.00    +0.000 A 
ATOM      3  C   UNL     1       0.423   9.037  21.045  0.00  0.00    +0.000 A 
ATOM      4  C   UNL     1       0.915   7.777  21.446  0.00  0.00    +0.000 A 
ATOM      5  C   UNL     1       1.758   7.051  20.597  0.00  0.00    +0.000 A 
ATOM      6  C   UNL     1       2.155   7.649  19.395  0.00  0.00    +0.000 A 
ATOM      7  C   UNL     1       1.680   8.891  18.941  0.00  0.00    +0.000 A 
ATOM      8  C   UNL     1       2.137   9.435  17.622  0.00  0.00    +0.000 C 
ATOM      9  C   UNL     1       0.801   9.549  19.805  0.00  0.00    +0.000 A 
ATOM     10  N   UNL     1       0.165  10.762  19.662  0.00  0.00    +0.000 N 
ATOM     11  H   UNL     1       0.243  11.364  18.853  0.00  0.00    +0.000 HD
ENDROOT
BRANCH   5  12
ATOM     12  N   UNL     1       2.215   5.778  21.004  0.00  0.00    +0.000 N 
ATOM     13  C   UNL     1       2.858   4.815  20.219  0.00  0.00    +0.000 A 
ATOM     14  N   UNL     1       2.679   3.536  20.579  0.00  0.00    +0.000 NA
ATOM     15  C   UNL     1       3.139   2.598  19.726  0.00  0.00    +0.000 A 
ATOM     16  C   UNL     1       3.766   2.882  18.538  0.00  0.00    +0.000 A 
ATOM     17  C   UNL     1       3.957   4.216  18.286  0.00  0.00    +0.000 A 
ATOM     18  N   UNL     1       3.523   5.174  19.120  0.00  0.00    +0.000 NA
ATOM     19  H   UNL     1       1.603   5.283  21.638  0.00  0.00    +0.000 HD
BRANCH  17  20
ATOM     20  C   UNL     1       4.652   4.673  17.094  0.00  0.00    +0.000 A 
ATOM     21  C   UNL     1       5.315   3.859  16.195  0.00  0.00    +0.000 A 
ATOM     22  N   UNL     1       5.738   4.692  15.205  0.00  0.00    +0.000 N 
ATOM     23  C   UNL     1       6.399   4.301  13.986  0.00  0.00    +0.000 C 
ATOM     24  C   UNL     1       5.380   5.962  15.546  0.00  0.00    +0.000 A 
ATOM     25  N   UNL     1       4.717   5.991  16.686  0.00  0.00    +0.000 NA
ENDBRANCH  17  20
ENDBRANCH   5  12
BRANCH   1  30
ATOM     26  C   UNL     1      -3.446  14.481  22.602  0.00  0.00    +0.000 C 
ATOM     27  C   UNL     1      -2.503  13.842  21.670  0.00  0.00    +0.000 A 
ATOM     28  N   UNL     1      -1.889  14.340  20.620  0.00  0.00    +0.000 NA
ATOM     29  N   UNL     1      -1.080  13.332  20.139  0.00  0.00    +0.000 NA
ATOM     30  C   UNL     1      -1.254  12.291  20.928  0.00  0.00    +0.000 A 
ATOM     31  O   UNL     1      -2.163  12.545  21.925  0.00  0.00    +0.000 OA
ENDBRANCH   1  30
TORSDOF 3
ENDMDL
