MODEL 1
REMARK VINA RESULT:      -8.6      0.000      0.000
REMARK  Name = 
REMARK  14 active torsions:
REMARK  status: ('A' for Active; 'I' for Inactive)
REMARK    1  A    between atoms: C_1  and  C_2
REMARK    2  A    between atoms: C_2  and  C_3
REMARK    3  A    between atoms: C_2  and  C_4
REMARK    4  A    between atoms: C_4  and  C_5
REMARK    5  A    between atoms: C_5  and  N_6
REMARK    6  A    between atoms: C_5  and  C_27
REMARK    7  A    between atoms: C_7  and  C_9
REMARK    8  A    between atoms: C_9  and  C_10
REMARK    9  A    between atoms: C_9  and  N_14
REMARK   10  A    between atoms: C_10  and  C_11
REMARK   11  A    between atoms: C_11  and  C_12
REMARK   12  A    between atoms: C_11  and  C_13
REMARK   13  A    between atoms: C_15  and  C_17
REMARK   14  A    between atoms: N_29  and  O_30
REMARK                            x       y       z     vdW  Elec       q    Type
REMARK                         _______ _______ _______ _____ _____    ______ ____
ROOT
ATOM      1  C   UNL     1       3.511   4.902  19.806  0.00  0.00    +0.000 C 
ENDROOT
BRANCH   1   3
ATOM      2  N   UNL     1       4.841   5.521  17.800  0.00  0.00    +0.000 N 
ATOM      3  C   UNL     1       4.880   5.045  19.089  0.00  0.00    +0.000 C 
ATOM      4  O   UNL     1       5.950   4.842  19.663  0.00  0.00    +0.000 OA
ATOM      5  H   UNL     1       3.967   5.899  17.443  0.00  0.00    +0.000 HD
BRANCH   2   6
ATOM      6  C   UNL     1       6.042   5.674  16.987  0.00  0.00    +0.000 C 
BRANCH   6   7
ATOM      7  C   UNL     1       6.846   6.865  17.528  0.00  0.00    +0.000 C 
ATOM      8  O   UNL     1       6.643   8.033  17.188  0.00  0.00    +0.000 OA
ATOM      9  N   UNL     1       7.865   6.521  18.386  0.00  0.00    +0.000 N 
ATOM     10  H   UNL     1       7.850   5.663  18.928  0.00  0.00    +0.000 HD
BRANCH   9  11
ATOM     11  O   UNL     1       8.587   7.597  18.952  0.00  0.00    +0.000 OA
ATOM     12  H   UNL     1       9.007   7.183  19.737  0.00  0.00    +0.000 HD
ENDBRANCH   9  11
ENDBRANCH   6   7
BRANCH   6  13
ATOM     13  C   UNL     1       5.648   5.890  15.514  0.00  0.00    +0.000 C 
BRANCH  13  15
ATOM     14  C   UNL     1       7.179   4.866  13.745  0.00  0.00    +0.000 C 
ATOM     15  C   UNL     1       5.900   4.700  14.567  0.00  0.00    +0.000 C 
ATOM     16  C   UNL     1       5.975   3.398  15.370  0.00  0.00    +0.000 C 
ENDBRANCH  13  15
ENDBRANCH   6  13
ENDBRANCH   2   6
ENDBRANCH   1   3
BRANCH   1  17
ATOM     17  N   UNL     1       2.902   6.178  20.187  0.00  0.00    +0.000 N 
ATOM     18  C   UNL     1       2.419   7.099  19.280  0.00  0.00    +0.000 C 
ATOM     19  O   UNL     1       2.367   6.883  18.073  0.00  0.00    +0.000 OA
ATOM     20  H   UNL     1       3.071   6.570  21.111  0.00  0.00    +0.000 HD
BRANCH  18  21
ATOM     21  C   UNL     1       1.783   8.337  19.951  0.00  0.00    +0.000 C 
ATOM     22  C   UNL     1       0.666   7.948  20.938  0.00  0.00    +0.000 C 
ATOM     23  C   UNL     1       0.047   9.213  21.481  0.00  0.00    +0.000 A 
ATOM     24  C   UNL     1      -0.294   9.381  22.825  0.00  0.00    +0.000 A 
ATOM     25  C   UNL     1      -0.819  10.599  23.257  0.00  0.00    +0.000 A 
ATOM     26  C   UNL     1      -1.012  11.645  22.351  0.00  0.00    +0.000 A 
ATOM     27  C   UNL     1      -0.701  11.470  21.002  0.00  0.00    +0.000 A 
ATOM     28  C   UNL     1      -0.173  10.254  20.561  0.00  0.00    +0.000 A 
ATOM     29  C   UNL     1       0.123   9.976  19.113  0.00  0.00    +0.000 C 
ATOM     30  N   UNL     1       1.441   9.359  18.901  0.00  0.00    +0.000 NA
ATOM     31  H   UNL     1       2.136  10.104  18.988  0.00  0.00    +0.000 HD
ENDBRANCH  18  21
ENDBRANCH   1  17
BRANCH   1  32
ATOM     32  C   UNL     1       2.535   4.007  19.011  0.00  0.00    +0.000 C 
BRANCH  32  33
ATOM     33  C   UNL     1       1.912   2.776  19.719  0.00  0.00    +0.000 C 
ATOM     34  C   UNL     1       1.362   3.053  21.119  0.00  0.00    +0.000 C 
ATOM     35  C   UNL     1       0.768   2.225  18.855  0.00  0.00    +0.000 C 
ENDBRANCH  32  33
ENDBRANCH   1  32
TORSDOF 10
ENDMDL
MODEL 2
REMARK VINA RESULT:      -8.5      0.776      1.067
REMARK  Name = 
REMARK  14 active torsions:
REMARK  status: ('A' for Active; 'I' for Inactive)
REMARK    1  A    between atoms: C_1  and  C_2
REMARK    2  A    between atoms: C_2  and  C_3
REMARK    3  A    between atoms: C_2  and  C_4
REMARK    4  A    between atoms: C_4  and  C_5
REMARK    5  A    between atoms: C_5  and  N_6
REMARK    6  A    between atoms: C_5  and  C_27
REMARK    7  A    between atoms: C_7  and  C_9
REMARK    8  A    between atoms: C_9  and  C_10
REMARK    9  A    between atoms: C_9  and  N_14
REMARK   10  A    between atoms: C_10  and  C_11
REMARK   11  A    between atoms: C_11  and  C_12
REMARK   12  A    between atoms: C_11  and  C_13
REMARK   13  A    between atoms: C_15  and  C_17
REMARK   14  A    between atoms: N_29  and  O_30
REMARK                            x       y       z     vdW  Elec       q    Type
REMARK                         _______ _______ _______ _____ _____    ______ ____
ROOT
ATOM      1  C   UNL     1       3.626   4.921  19.352  0.00  0.00    +0.000 C 
ENDROOT
BRANCH   1   3
ATOM      2  N   UNL     1       5.580   5.230  17.847  0.00  0.00    +0.000 N 
ATOM      3  C   UNL     1       5.160   5.036  19.142  0.00  0.00    +0.000 C 
ATOM      4  O   UNL     1       5.955   5.054  20.081  0.00  0.00    +0.000 OA
ATOM      5  H   UNL     1       4.888   5.446  17.134  0.00  0.00    +0.000 HD
BRANCH   2   6
ATOM      6  C   UNL     1       6.991   5.320  17.489  0.00  0.00    +0.000 C 
BRANCH   6   7
ATOM      7  C   UNL     1       7.456   6.767  17.711  0.00  0.00    +0.000 C 
ATOM      8  O   UNL     1       7.162   7.698  16.959  0.00  0.00    +0.000 OA
ATOM      9  N   UNL     1       8.292   6.937  18.792  0.00  0.00    +0.000 N 
ATOM     10  H   UNL     1       8.284   6.305  19.585  0.00  0.00    +0.000 HD
BRANCH   9  11
ATOM     11  O   UNL     1       8.690   8.266  19.062  0.00  0.00    +0.000 OA
ATOM     12  H   UNL     1       7.973   8.587  19.652  0.00  0.00    +0.000 HD
ENDBRANCH   9  11
ENDBRANCH   6   7
BRANCH   6  13
ATOM     13  C   UNL     1       7.184   4.890  16.023  0.00  0.00    +0.000 C 
BRANCH  13  15
ATOM     14  C   UNL     1       5.186   5.948  14.836  0.00  0.00    +0.000 C 
ATOM     15  C   UNL     1       5.893   4.647  15.217  0.00  0.00    +0.000 C 
ATOM     16  C   UNL     1       6.209   3.847  13.949  0.00  0.00    +0.000 C 
ENDBRANCH  13  15
ENDBRANCH   6  13
ENDBRANCH   2   6
ENDBRANCH   1   3
BRANCH   1  17
ATOM     17  N   UNL     1       2.994   6.158  19.815  0.00  0.00    +0.000 N 
ATOM     18  C   UNL     1       2.746   7.245  19.001  0.00  0.00    +0.000 C 
ATOM     19  O   UNL     1       2.945   7.230  17.790  0.00  0.00    +0.000 OA
ATOM     20  H   UNL     1       2.976   6.383  20.807  0.00  0.00    +0.000 HD
BRANCH  18  21
ATOM     21  C   UNL     1       2.025   8.399  19.732  0.00  0.00    +0.000 C 
ATOM     22  C   UNL     1       0.992   7.880  20.751  0.00  0.00    +0.000 C 
ATOM     23  C   UNL     1       0.279   9.067  21.354  0.00  0.00    +0.000 A 
ATOM     24  C   UNL     1      -0.018   9.168  22.715  0.00  0.00    +0.000 A 
ATOM     25  C   UNL     1      -0.638  10.319  23.202  0.00  0.00    +0.000 A 
ATOM     26  C   UNL     1      -0.968  11.364  22.335  0.00  0.00    +0.000 A 
ATOM     27  C   UNL     1      -0.698  11.253  20.971  0.00  0.00    +0.000 A 
ATOM     28  C   UNL     1      -0.076  10.105  20.474  0.00  0.00    +0.000 A 
ATOM     29  C   UNL     1       0.183   9.892  19.008  0.00  0.00    +0.000 C 
ATOM     30  N   UNL     1       1.543   9.410  18.727  0.00  0.00    +0.000 NA
ATOM     31  H   UNL     1       2.168  10.215  18.808  0.00  0.00    +0.000 HD
ENDBRANCH  18  21
ENDBRANCH   1  17
BRANCH   1  32
ATOM     32  C   UNL     1       2.918   4.336  18.110  0.00  0.00    +0.000 C 
BRANCH  32  33
ATOM     33  C   UNL     1       2.004   3.096  18.292  0.00  0.00    +0.000 C 
ATOM     34  C   UNL     1       2.747   1.772  18.466  0.00  0.00    +0.000 C 
ATOM     35  C   UNL     1       1.109   3.309  19.521  0.00  0.00    +0.000 C 
ENDBRANCH  32  33
ENDBRANCH   1  32
TORSDOF 10
ENDMDL
MODEL 3
REMARK VINA RESULT:      -8.3      0.858      1.217
REMARK  Name = 
REMARK  14 active torsions:
REMARK  status: ('A' for Active; 'I' for Inactive)
REMARK    1  A    between atoms: C_1  and  C_2
REMARK    2  A    between atoms: C_2  and  C_3
REMARK    3  A    between atoms: C_2  and  C_4
REMARK    4  A    between atoms: C_4  and  C_5
REMARK    5  A    between atoms: C_5  and  N_6
REMARK    6  A    between atoms: C_5  and  C_27
REMARK    7  A    between atoms: C_7  and  C_9
REMARK    8  A    between atoms: C_9  and  C_10
REMARK    9  A    between atoms: C_9  and  N_14
REMARK   10  A    between atoms: C_10  and  C_11
REMARK   11  A    between atoms: C_11  and  C_12
REMARK   12  A    between atoms: C_11  and  C_13
REMARK   13  A    between atoms: C_15  and  C_17
REMARK   14  A    between atoms: N_29  and  O_30
REMARK                            x       y       z     vdW  Elec       q    Type
REMARK                         _______ _______ _______ _____ _____    ______ ____
ROOT
ATOM      1  C   UNL     1       3.808   4.499  19.931  0.00  0.00    +0.000 C 
ENDROOT
BRANCH   1   3
ATOM      2  N   UNL     1       4.765   4.596  17.640  0.00  0.00    +0.000 N 
ATOM      3  C   UNL     1       5.033   4.629  18.988  0.00  0.00    +0.000 C 
ATOM      4  O   UNL     1       6.169   4.849  19.408  0.00  0.00    +0.000 OA
ATOM      5  H   UNL     1       3.797   4.651  17.330  0.00  0.00    +0.000 HD
BRANCH   2   6
ATOM      6  C   UNL     1       5.816   4.670  16.632  0.00  0.00    +0.000 C 
BRANCH   6   7
ATOM      7  C   UNL     1       6.182   6.147  16.420  0.00  0.00    +0.000 C 
ATOM      8  O   UNL     1       5.485   6.934  15.776  0.00  0.00    +0.000 OA
ATOM      9  N   UNL     1       7.394   6.516  16.957  0.00  0.00    +0.000 N 
ATOM     10  H   UNL     1       7.812   6.022  17.739  0.00  0.00    +0.000 HD
BRANCH   9  11
ATOM     11  O   UNL     1       7.734   7.882  16.835  0.00  0.00    +0.000 OA
ATOM     12  H   UNL     1       6.936   8.333  17.187  0.00  0.00    +0.000 HD
ENDBRANCH   9  11
ENDBRANCH   6   7
BRANCH   6  13
ATOM     13  C   UNL     1       5.328   4.023  15.322  0.00  0.00    +0.000 C 
BRANCH  13  15
ATOM     14  C   UNL     1       7.520   4.571  14.134  0.00  0.00    +0.000 C 
ATOM     15  C   UNL     1       5.995   4.532  14.029  0.00  0.00    +0.000 C 
ATOM     16  C   UNL     1       5.587   3.649  12.847  0.00  0.00    +0.000 C 
ENDBRANCH  13  15
ENDBRANCH   6  13
ENDBRANCH   2   6
ENDBRANCH   1   3
BRANCH   1  17
ATOM     17  N   UNL     1       3.176   5.775  20.267  0.00  0.00    +0.000 N 
ATOM     18  C   UNL     1       2.637   6.635  19.332  0.00  0.00    +0.000 C 
ATOM     19  O   UNL     1       2.552   6.356  18.140  0.00  0.00    +0.000 OA
ATOM     20  H   UNL     1       3.364   6.219  21.164  0.00  0.00    +0.000 HD
BRANCH  18  21
ATOM     21  C   UNL     1       1.989   7.889  19.961  0.00  0.00    +0.000 C 
ATOM     22  C   UNL     1       0.811   7.527  20.885  0.00  0.00    +0.000 C 
ATOM     23  C   UNL     1       0.187   8.807  21.386  0.00  0.00    +0.000 A 
ATOM     24  C   UNL     1      -0.225   8.989  22.708  0.00  0.00    +0.000 A 
ATOM     25  C   UNL     1      -0.751  10.219  23.104  0.00  0.00    +0.000 A 
ATOM     26  C   UNL     1      -0.872  11.263  22.185  0.00  0.00    +0.000 A 
ATOM     27  C   UNL     1      -0.488  11.076  20.857  0.00  0.00    +0.000 A 
ATOM     28  C   UNL     1       0.040   9.847  20.451  0.00  0.00    +0.000 A 
ATOM     29  C   UNL     1       0.411   9.555  19.023  0.00  0.00    +0.000 C 
ATOM     30  N   UNL     1       1.726   8.912  18.889  0.00  0.00    +0.000 NA
ATOM     31  H   UNL     1       2.430   9.644  19.012  0.00  0.00    +0.000 HD
ENDBRANCH  18  21
ENDBRANCH   1  17
BRANCH   1  32
ATOM     32  C   UNL     1       2.786   3.464  19.408  0.00  0.00    +0.000 C 
BRANCH  32  33
ATOM     33  C   UNL     1       1.361   3.455  20.018  0.00  0.00    +0.000 C 
ATOM     34  C   UNL     1       0.317   2.698  19.197  0.00  0.00    +0.000 C 
ATOM     35  C   UNL     1       1.417   2.827  21.418  0.00  0.00    +0.000 C 
ENDBRANCH  32  33
ENDBRANCH   1  32
TORSDOF 10
ENDMDL
MODEL 4
REMARK VINA RESULT:      -8.3      1.558      2.078
REMARK  Name = 
REMARK  14 active torsions:
REMARK  status: ('A' for Active; 'I' for Inactive)
REMARK    1  A    between atoms: C_1  and  C_2
REMARK    2  A    between atoms: C_2  and  C_3
REMARK    3  A    between atoms: C_2  and  C_4
REMARK    4  A    between atoms: C_4  and  C_5
REMARK    5  A    between atoms: C_5  and  N_6
REMARK    6  A    between atoms: C_5  and  C_27
REMARK    7  A    between atoms: C_7  and  C_9
REMARK    8  A    between atoms: C_9  and  C_10
REMARK    9  A    between atoms: C_9  and  N_14
REMARK   10  A    between atoms: C_10  and  C_11
REMARK   11  A    between atoms: C_11  and  C_12
REMARK   12  A    between atoms: C_11  and  C_13
REMARK   13  A    between atoms: C_15  and  C_17
REMARK   14  A    between atoms: N_29  and  O_30
REMARK                            x       y       z     vdW  Elec       q    Type
REMARK                         _______ _______ _______ _____ _____    ______ ____
ROOT
ATOM      1  C   UNL     1       2.845   4.839  18.883  0.00  0.00    +0.000 C 
ENDROOT
BRANCH   1   3
ATOM      2  N   UNL     1       4.480   4.953  17.014  0.00  0.00    +0.000 N 
ATOM      3  C   UNL     1       4.202   4.426  18.253  0.00  0.00    +0.000 C 
ATOM      4  O   UNL     1       5.032   3.748  18.859  0.00  0.00    +0.000 OA
ATOM      5  H   UNL     1       3.883   5.692  16.650  0.00  0.00    +0.000 HD
BRANCH   2   6
ATOM      6  C   UNL     1       5.698   4.627  16.282  0.00  0.00    +0.000 C 
BRANCH   6   7
ATOM      7  C   UNL     1       6.834   5.516  16.809  0.00  0.00    +0.000 C 
ATOM      8  O   UNL     1       7.807   5.080  17.427  0.00  0.00    +0.000 OA
ATOM      9  N   UNL     1       6.649   6.863  16.593  0.00  0.00    +0.000 N 
ATOM     10  H   UNL     1       6.072   7.215  15.837  0.00  0.00    +0.000 HD
BRANCH   9  11
ATOM     11  O   UNL     1       7.705   7.706  17.011  0.00  0.00    +0.000 OA
ATOM     12  H   UNL     1       8.284   7.731  16.218  0.00  0.00    +0.000 HD
ENDBRANCH   9  11
ENDBRANCH   6   7
BRANCH   6  13
ATOM     13  C   UNL     1       5.472   4.846  14.774  0.00  0.00    +0.000 C 
BRANCH  13  15
ATOM     14  C   UNL     1       5.675   3.450  12.646  0.00  0.00    +0.000 C 
ATOM     15  C   UNL     1       6.414   4.070  13.832  0.00  0.00    +0.000 C 
ATOM     16  C   UNL     1       7.520   4.996  13.318  0.00  0.00    +0.000 C 
ENDBRANCH  13  15
ENDBRANCH   6  13
ENDBRANCH   2   6
ENDBRANCH   1   3
BRANCH   1  17
ATOM     17  N   UNL     1       2.633   6.286  18.944  0.00  0.00    +0.000 N 
ATOM     18  C   UNL     1       1.922   6.917  19.944  0.00  0.00    +0.000 C 
ATOM     19  O   UNL     1       1.488   6.326  20.928  0.00  0.00    +0.000 OA
ATOM     20  H   UNL     1       2.746   6.856  18.107  0.00  0.00    +0.000 HD
BRANCH  18  21
ATOM     21  C   UNL     1       1.893   8.454  19.793  0.00  0.00    +0.000 C 
ATOM     22  C   UNL     1       0.703   9.085  20.542  0.00  0.00    +0.000 C 
ATOM     23  C   UNL     1       0.703  10.571  20.272  0.00  0.00    +0.000 A 
ATOM     24  C   UNL     1       0.451  11.526  21.259  0.00  0.00    +0.000 A 
ATOM     25  C   UNL     1       0.515  12.882  20.939  0.00  0.00    +0.000 A 
ATOM     26  C   UNL     1       0.824  13.287  19.638  0.00  0.00    +0.000 A 
ATOM     27  C   UNL     1       1.048  12.335  18.643  0.00  0.00    +0.000 A 
ATOM     28  C   UNL     1       0.986  10.974  18.955  0.00  0.00    +0.000 A 
ATOM     29  C   UNL     1       1.151   9.896  17.918  0.00  0.00    +0.000 C 
ATOM     30  N   UNL     1       2.059   8.822  18.343  0.00  0.00    +0.000 NA
ATOM     31  H   UNL     1       3.012   9.180  18.245  0.00  0.00    +0.000 HD
ENDBRANCH  18  21
ENDBRANCH   1  17
BRANCH   1  32
ATOM     32  C   UNL     1       1.657   4.105  18.223  0.00  0.00    +0.000 C 
BRANCH  32  33
ATOM     33  C   UNL     1       1.124   2.809  18.887  0.00  0.00    +0.000 C 
ATOM     34  C   UNL     1       1.994   1.572  18.670  0.00  0.00    +0.000 C 
ATOM     35  C   UNL     1       0.987   3.040  20.399  0.00  0.00    +0.000 C 
ENDBRANCH  32  33
ENDBRANCH   1  32
TORSDOF 10
ENDMDL
MODEL 5
REMARK VINA RESULT:      -8.3      1.015      1.226
REMARK  Name = 
REMARK  14 active torsions:
REMARK  status: ('A' for Active; 'I' for Inactive)
REMARK    1  A    between atoms: C_1  and  C_2
REMARK    2  A    between atoms: C_2  and  C_3
REMARK    3  A    between atoms: C_2  and  C_4
REMARK    4  A    between atoms: C_4  and  C_5
REMARK    5  A    between atoms: C_5  and  N_6
REMARK    6  A    between atoms: C_5  and  C_27
REMARK    7  A    between atoms: C_7  and  C_9
REMARK    8  A    between atoms: C_9  and  C_10
REMARK    9  A    between atoms: C_9  and  N_14
REMARK   10  A    between atoms: C_10  and  C_11
REMARK   11  A    between atoms: C_11  and  C_12
REMARK   12  A    between atoms: C_11  and  C_13
REMARK   13  A    between atoms: C_15  and  C_17
REMARK   14  A    between atoms: N_29  and  O_30
REMARK                            x       y       z     vdW  Elec       q    Type
REMARK                         _______ _______ _______ _____ _____    ______ ____
ROOT
ATOM      1  C   UNL     1       3.568   4.780  19.223  0.00  0.00    +0.000 C 
ENDROOT
BRANCH   1   3
ATOM      2  N   UNL     1       5.197   5.520  17.498  0.00  0.00    +0.000 N 
ATOM      3  C   UNL     1       5.000   4.758  18.626  0.00  0.00    +0.000 C 
ATOM      4  O   UNL     1       5.936   4.178  19.176  0.00  0.00    +0.000 OA
ATOM      5  H   UNL     1       4.468   6.168  17.210  0.00  0.00    +0.000 HD
BRANCH   2   6
ATOM      6  C   UNL     1       6.478   5.571  16.804  0.00  0.00    +0.000 C 
BRANCH   6   7
ATOM      7  C   UNL     1       7.293   6.742  17.373  0.00  0.00    +0.000 C 
ATOM      8  O   UNL     1       7.397   7.834  16.811  0.00  0.00    +0.000 OA
ATOM      9  N   UNL     1       7.959   6.455  18.543  0.00  0.00    +0.000 N 
ATOM     10  H   UNL     1       7.647   5.729  19.180  0.00  0.00    +0.000 HD
BRANCH   9  11
ATOM     11  O   UNL     1       8.669   7.528  19.128  0.00  0.00    +0.000 OA
ATOM     12  H   UNL     1       9.072   7.111  19.920  0.00  0.00    +0.000 HD
ENDBRANCH   9  11
ENDBRANCH   6   7
BRANCH   6  13
ATOM     13  C   UNL     1       6.244   5.738  15.291  0.00  0.00    +0.000 C 
BRANCH  13  15
ATOM     14  C   UNL     1       5.753   3.792  13.714  0.00  0.00    +0.000 C 
ATOM     15  C   UNL     1       6.834   4.635  14.391  0.00  0.00    +0.000 C 
ATOM     16  C   UNL     1       7.740   5.257  13.324  0.00  0.00    +0.000 C 
ENDBRANCH  13  15
ENDBRANCH   6  13
ENDBRANCH   2   6
ENDBRANCH   1   3
BRANCH   1  17
ATOM     17  N   UNL     1       3.058   6.124  19.500  0.00  0.00    +0.000 N 
ATOM     18  C   UNL     1       1.957   6.379  20.292  0.00  0.00    +0.000 C 
ATOM     19  O   UNL     1       1.366   5.502  20.915  0.00  0.00    +0.000 OA
ATOM     20  H   UNL     1       3.310   6.902  18.894  0.00  0.00    +0.000 HD
BRANCH  18  21
ATOM     21  C   UNL     1       1.665   7.887  20.459  0.00  0.00    +0.000 C 
ATOM     22  C   UNL     1       0.354   8.139  21.228  0.00  0.00    +0.000 C 
ATOM     23  C   UNL     1       0.105   9.628  21.271  0.00  0.00    +0.000 A 
ATOM     24  C   UNL     1      -0.350  10.292  22.412  0.00  0.00    +0.000 A 
ATOM     25  C   UNL     1      -0.511  11.678  22.385  0.00  0.00    +0.000 A 
ATOM     26  C   UNL     1      -0.226  12.399  21.223  0.00  0.00    +0.000 A 
ATOM     27  C   UNL     1       0.201  11.734  20.073  0.00  0.00    +0.000 A 
ATOM     28  C   UNL     1       0.366  10.347  20.092  0.00  0.00    +0.000 A 
ATOM     29  C   UNL     1       0.759   9.561  18.871  0.00  0.00    +0.000 C 
ATOM     30  N   UNL     1       1.824   8.581  19.133  0.00  0.00    +0.000 NA
ATOM     31  H   UNL     1       2.702   9.102  19.185  0.00  0.00    +0.000 HD
ENDBRANCH  18  21
ENDBRANCH   1  17
BRANCH   1  32
ATOM     32  C   UNL     1       2.579   3.947  18.377  0.00  0.00    +0.000 C 
BRANCH  32  33
ATOM     33  C   UNL     1       2.066   2.599  18.947  0.00  0.00    +0.000 C 
ATOM     34  C   UNL     1       2.495   2.307  20.385  0.00  0.00    +0.000 C 
ATOM     35  C   UNL     1       0.532   2.581  18.891  0.00  0.00    +0.000 C 
ENDBRANCH  32  33
ENDBRANCH   1  32
TORSDOF 10
ENDMDL
MODEL 6
REMARK VINA RESULT:      -8.3      1.417      1.746
REMARK  Name = 
REMARK  14 active torsions:
REMARK  status: ('A' for Active; 'I' for Inactive)
REMARK    1  A    between atoms: C_1  and  C_2
REMARK    2  A    between atoms: C_2  and  C_3
REMARK    3  A    between atoms: C_2  and  C_4
REMARK    4  A    between atoms: C_4  and  C_5
REMARK    5  A    between atoms: C_5  and  N_6
REMARK    6  A    between atoms: C_5  and  C_27
REMARK    7  A    between atoms: C_7  and  C_9
REMARK    8  A    between atoms: C_9  and  C_10
REMARK    9  A    between atoms: C_9  and  N_14
REMARK   10  A    between atoms: C_10  and  C_11
REMARK   11  A    between atoms: C_11  and  C_12
REMARK   12  A    between atoms: C_11  and  C_13
REMARK   13  A    between atoms: C_15  and  C_17
REMARK   14  A    between atoms: N_29  and  O_30
REMARK                            x       y       z     vdW  Elec       q    Type
REMARK                         _______ _______ _______ _____ _____    ______ ____
ROOT
ATOM      1  C   UNL     1       2.804   5.454  18.452  0.00  0.00    +0.000 C 
ENDROOT
BRANCH   1   3
ATOM      2  N   UNL     1       4.885   4.471  17.514  0.00  0.00    +0.000 N 
ATOM      3  C   UNL     1       4.110   5.600  17.625  0.00  0.00    +0.000 C 
ATOM      4  O   UNL     1       4.394   6.633  17.018  0.00  0.00    +0.000 OA
ATOM      5  H   UNL     1       4.505   3.581  17.826  0.00  0.00    +0.000 HD
BRANCH   2   6
ATOM      6  C   UNL     1       6.157   4.463  16.800  0.00  0.00    +0.000 C 
BRANCH   6   7
ATOM      7  C   UNL     1       7.176   5.274  17.615  0.00  0.00    +0.000 C 
ATOM      8  O   UNL     1       7.751   6.274  17.182  0.00  0.00    +0.000 OA
ATOM      9  N   UNL     1       7.449   4.755  18.861  0.00  0.00    +0.000 N 
ATOM     10  H   UNL     1       6.788   4.169  19.359  0.00  0.00    +0.000 HD
BRANCH   9  11
ATOM     11  O   UNL     1       8.336   5.509  19.663  0.00  0.00    +0.000 OA
ATOM     12  H   UNL     1       7.779   5.738  20.439  0.00  0.00    +0.000 HD
ENDBRANCH   9  11
ENDBRANCH   6   7
BRANCH   6  13
ATOM     13  C   UNL     1       5.967   5.060  15.393  0.00  0.00    +0.000 C 
BRANCH  13  15
ATOM     14  C   UNL     1       5.530   3.726  13.261  0.00  0.00    +0.000 C 
ATOM     15  C   UNL     1       6.585   4.257  14.231  0.00  0.00    +0.000 C 
ATOM     16  C   UNL     1       7.589   5.127  13.469  0.00  0.00    +0.000 C 
ENDBRANCH  13  15
ENDBRANCH   6  13
ENDBRANCH   2   6
ENDBRANCH   1   3
BRANCH   1  17
ATOM     17  N   UNL     1       2.287   6.718  18.978  0.00  0.00    +0.000 N 
ATOM     18  C   UNL     1       1.823   6.880  20.267  0.00  0.00    +0.000 C 
ATOM     19  O   UNL     1       1.898   6.000  21.119  0.00  0.00    +0.000 OA
ATOM     20  H   UNL     1       1.974   7.447  18.340  0.00  0.00    +0.000 HD
BRANCH  18  21
ATOM     21  C   UNL     1       1.380   8.328  20.576  0.00  0.00    +0.000 C 
ATOM     22  C   UNL     1       0.109   8.370  21.445  0.00  0.00    +0.000 C 
ATOM     23  C   UNL     1      -0.299   9.812  21.625  0.00  0.00    +0.000 A 
ATOM     24  C   UNL     1      -0.741  10.333  22.842  0.00  0.00    +0.000 A 
ATOM     25  C   UNL     1      -1.055  11.690  22.939  0.00  0.00    +0.000 A 
ATOM     26  C   UNL     1      -0.937  12.522  21.824  0.00  0.00    +0.000 A 
ATOM     27  C   UNL     1      -0.523  11.998  20.599  0.00  0.00    +0.000 A 
ATOM     28  C   UNL     1      -0.205  10.642  20.493  0.00  0.00    +0.000 A 
ATOM     29  C   UNL     1       0.183   9.999  19.190  0.00  0.00    +0.000 C 
ATOM     30  N   UNL     1       1.365   9.132  19.304  0.00  0.00    +0.000 NA
ATOM     31  H   UNL     1       2.181   9.746  19.342  0.00  0.00    +0.000 HD
ENDBRANCH  18  21
ENDBRANCH   1  17
BRANCH   1  32
ATOM     32  C   UNL     1       1.725   4.657  17.685  0.00  0.00    +0.000 C 
BRANCH  32  33
ATOM     33  C   UNL     1       1.385   3.221  18.161  0.00  0.00    +0.000 C 
ATOM     34  C   UNL     1       2.465   2.178  17.873  0.00  0.00    +0.000 C 
ATOM     35  C   UNL     1       1.128   3.240  19.674  0.00  0.00    +0.000 C 
ENDBRANCH  32  33
ENDBRANCH   1  32
TORSDOF 10
ENDMDL
MODEL 7
REMARK VINA RESULT:      -8.1      2.036      3.004
REMARK  Name = 
REMARK  14 active torsions:
REMARK  status: ('A' for Active; 'I' for Inactive)
REMARK    1  A    between atoms: C_1  and  C_2
REMARK    2  A    between atoms: C_2  and  C_3
REMARK    3  A    between atoms: C_2  and  C_4
REMARK    4  A    between atoms: C_4  and  C_5
REMARK    5  A    between atoms: C_5  and  N_6
REMARK    6  A    between atoms: C_5  and  C_27
REMARK    7  A    between atoms: C_7  and  C_9
REMARK    8  A    between atoms: C_9  and  C_10
REMARK    9  A    between atoms: C_9  and  N_14
REMARK   10  A    between atoms: C_10  and  C_11
REMARK   11  A    between atoms: C_11  and  C_12
REMARK   12  A    between atoms: C_11  and  C_13
REMARK   13  A    between atoms: C_15  and  C_17
REMARK   14  A    between atoms: N_29  and  O_30
REMARK                            x       y       z     vdW  Elec       q    Type
REMARK                         _______ _______ _______ _____ _____    ______ ____
ROOT
ATOM      1  C   UNL     1       3.067   6.085  18.540  0.00  0.00    +0.000 C 
ENDROOT
BRANCH   1   3
ATOM      2  N   UNL     1       4.947   5.365  17.083  0.00  0.00    +0.000 N 
ATOM      3  C   UNL     1       4.063   6.373  17.385  0.00  0.00    +0.000 C 
ATOM      4  O   UNL     1       4.008   7.399  16.707  0.00  0.00    +0.000 OA
ATOM      5  H   UNL     1       4.809   4.448  17.502  0.00  0.00    +0.000 HD
BRANCH   2   6
ATOM      6  C   UNL     1       5.965   5.502  16.047  0.00  0.00    +0.000 C 
BRANCH   6   7
ATOM      7  C   UNL     1       6.002   4.204  15.227  0.00  0.00    +0.000 C 
ATOM      8  O   UNL     1       5.767   3.093  15.705  0.00  0.00    +0.000 OA
ATOM      9  N   UNL     1       6.384   4.370  13.916  0.00  0.00    +0.000 N 
ATOM     10  H   UNL     1       6.261   5.249  13.424  0.00  0.00    +0.000 HD
BRANCH   9  11
ATOM     11  O   UNL     1       6.370   3.205  13.116  0.00  0.00    +0.000 OA
ATOM     12  H   UNL     1       5.427   3.144  12.845  0.00  0.00    +0.000 HD
ENDBRANCH   9  11
ENDBRANCH   6   7
BRANCH   6  13
ATOM     13  C   UNL     1       7.331   5.791  16.697  0.00  0.00    +0.000 C 
BRANCH  13  15
ATOM     14  C   UNL     1       8.053   5.949  19.141  0.00  0.00    +0.000 C 
ATOM     15  C   UNL     1       7.299   6.623  17.994  0.00  0.00    +0.000 C 
ATOM     16  C   UNL     1       7.889   8.013  17.740  0.00  0.00    +0.000 C 
ENDBRANCH  13  15
ENDBRANCH   6  13
ENDBRANCH   2   6
ENDBRANCH   1   3
BRANCH   1  17
ATOM     17  N   UNL     1       2.417   7.280  19.079  0.00  0.00    +0.000 N 
ATOM     18  C   UNL     1       1.719   7.304  20.269  0.00  0.00    +0.000 C 
ATOM     19  O   UNL     1       1.667   6.344  21.032  0.00  0.00    +0.000 OA
ATOM     20  H   UNL     1       2.202   8.065  18.468  0.00  0.00    +0.000 HD
BRANCH  18  21
ATOM     21  C   UNL     1       1.176   8.706  20.627  0.00  0.00    +0.000 C 
ATOM     22  C   UNL     1      -0.039   8.630  21.572  0.00  0.00    +0.000 C 
ATOM     23  C   UNL     1      -0.554  10.031  21.799  0.00  0.00    +0.000 A 
ATOM     24  C   UNL     1      -0.963  10.500  23.050  0.00  0.00    +0.000 A 
ATOM     25  C   UNL     1      -1.383  11.823  23.187  0.00  0.00    +0.000 A 
ATOM     26  C   UNL     1      -1.403  12.675  22.080  0.00  0.00    +0.000 A 
ATOM     27  C   UNL     1      -1.024  12.201  20.824  0.00  0.00    +0.000 A 
ATOM     28  C   UNL     1      -0.600  10.878  20.678  0.00  0.00    +0.000 A 
ATOM     29  C   UNL     1      -0.241  10.284  19.343  0.00  0.00    +0.000 C 
ATOM     30  N   UNL     1       1.015   9.520  19.371  0.00  0.00    +0.000 NA
ATOM     31  H   UNL     1       1.778  10.200  19.369  0.00  0.00    +0.000 HD
ENDBRANCH  18  21
ENDBRANCH   1  17
BRANCH   1  32
ATOM     32  C   UNL     1       2.046   4.989  18.160  0.00  0.00    +0.000 C 
BRANCH  32  33
ATOM     33  C   UNL     1       2.342   3.524  18.570  0.00  0.00    +0.000 C 
ATOM     34  C   UNL     1       3.085   3.367  19.897  0.00  0.00    +0.000 C 
ATOM     35  C   UNL     1       1.018   2.752  18.668  0.00  0.00    +0.000 C 
ENDBRANCH  32  33
ENDBRANCH   1  32
TORSDOF 10
ENDMDL
MODEL 8
REMARK VINA RESULT:      -8.1      1.522      2.084
REMARK  Name = 
REMARK  14 active torsions:
REMARK  status: ('A' for Active; 'I' for Inactive)
REMARK    1  A    between atoms: C_1  and  C_2
REMARK    2  A    between atoms: C_2  and  C_3
REMARK    3  A    between atoms: C_2  and  C_4
REMARK    4  A    between atoms: C_4  and  C_5
REMARK    5  A    between atoms: C_5  and  N_6
REMARK    6  A    between atoms: C_5  and  C_27
REMARK    7  A    between atoms: C_7  and  C_9
REMARK    8  A    between atoms: C_9  and  C_10
REMARK    9  A    between atoms: C_9  and  N_14
REMARK   10  A    between atoms: C_10  and  C_11
REMARK   11  A    between atoms: C_11  and  C_12
REMARK   12  A    between atoms: C_11  and  C_13
REMARK   13  A    between atoms: C_15  and  C_17
REMARK   14  A    between atoms: N_29  and  O_30
REMARK                            x       y       z     vdW  Elec       q    Type
REMARK                         _______ _______ _______ _____ _____    ______ ____
ROOT
ATOM      1  C   UNL     1       2.796   5.946  19.438  0.00  0.00    +0.000 C 
ENDROOT
BRANCH   1   3
ATOM      2  N   UNL     1       4.500   6.159  17.642  0.00  0.00    +0.000 N 
ATOM      3  C   UNL     1       4.200   5.611  18.866  0.00  0.00    +0.000 C 
ATOM      4  O   UNL     1       5.038   4.976  19.505  0.00  0.00    +0.000 OA
ATOM      5  H   UNL     1       3.880   6.866  17.255  0.00  0.00    +0.000 HD
BRANCH   2   6
ATOM      6  C   UNL     1       5.765   5.905  16.961  0.00  0.00    +0.000 C 
BRANCH   6   7
ATOM      7  C   UNL     1       6.805   6.910  17.477  0.00  0.00    +0.000 C 
ATOM      8  O   UNL     1       6.935   8.047  17.021  0.00  0.00    +0.000 OA
ATOM      9  N   UNL     1       7.635   6.416  18.458  0.00  0.00    +0.000 N 
ATOM     10  H   UNL     1       7.359   5.652  19.065  0.00  0.00    +0.000 HD
BRANCH   9  11
ATOM     11  O   UNL     1       8.564   7.334  19.000  0.00  0.00    +0.000 OA
ATOM     12  H   UNL     1       8.959   7.737  18.196  0.00  0.00    +0.000 HD
ENDBRANCH   9  11
ENDBRANCH   6   7
BRANCH   6  13
ATOM     13  C   UNL     1       5.571   6.035  15.439  0.00  0.00    +0.000 C 
BRANCH  13  15
ATOM     14  C   UNL     1       7.030   4.810  13.739  0.00  0.00    +0.000 C 
ATOM     15  C   UNL     1       5.782   4.746  14.620  0.00  0.00    +0.000 C 
ATOM     16  C   UNL     1       5.879   3.539  15.557  0.00  0.00    +0.000 C 
ENDBRANCH  13  15
ENDBRANCH   6  13
ENDBRANCH   2   6
ENDBRANCH   1   3
BRANCH   1  17
ATOM     17  N   UNL     1       2.374   7.329  19.209  0.00  0.00    +0.000 N 
ATOM     18  C   UNL     1       1.606   8.054  20.097  0.00  0.00    +0.000 C 
ATOM     19  O   UNL     1       1.291   7.633  21.206  0.00  0.00    +0.000 OA
ATOM     20  H   UNL     1       2.379   7.716  18.268  0.00  0.00    +0.000 HD
BRANCH  18  21
ATOM     21  C   UNL     1       1.346   9.504  19.632  0.00  0.00    +0.000 C 
ATOM     22  C   UNL     1       0.765  10.377  20.761  0.00  0.00    +0.000 C 
ATOM     23  C   UNL     1       0.464  11.745  20.199  0.00  0.00    +0.000 A 
ATOM     24  C   UNL     1       0.747  12.930  20.883  0.00  0.00    +0.000 A 
ATOM     25  C   UNL     1       0.481  14.158  20.276  0.00  0.00    +0.000 A 
ATOM     26  C   UNL     1      -0.071  14.205  18.994  0.00  0.00    +0.000 A 
ATOM     27  C   UNL     1      -0.382  13.024  18.320  0.00  0.00    +0.000 A 
ATOM     28  C   UNL     1      -0.118  11.790  18.920  0.00  0.00    +0.000 A 
ATOM     29  C   UNL     1      -0.488  10.480  18.279  0.00  0.00    +0.000 C 
ATOM     30  N   UNL     1       0.596   9.488  18.327  0.00  0.00    +0.000 NA
ATOM     31  H   UNL     1       1.270   9.749  17.605  0.00  0.00    +0.000 HD
ENDBRANCH  18  21
ENDBRANCH   1  17
BRANCH   1  32
ATOM     32  C   UNL     1       1.729   4.928  18.977  0.00  0.00    +0.000 C 
BRANCH  32  33
ATOM     33  C   UNL     1       1.134   3.951  20.023  0.00  0.00    +0.000 C 
ATOM     34  C   UNL     1       1.054   2.494  19.566  0.00  0.00    +0.000 C 
ATOM     35  C   UNL     1       1.983   4.006  21.301  0.00  0.00    +0.000 C 
ENDBRANCH  32  33
ENDBRANCH   1  32
TORSDOF 10
ENDMDL
MODEL 9
REMARK VINA RESULT:      -8.1      1.255      1.579
REMARK  Name = 
REMARK  14 active torsions:
REMARK  status: ('A' for Active; 'I' for Inactive)
REMARK    1  A    between atoms: C_1  and  C_2
REMARK    2  A    between atoms: C_2  and  C_3
REMARK    3  A    between atoms: C_2  and  C_4
REMARK    4  A    between atoms: C_4  and  C_5
REMARK    5  A    between atoms: C_5  and  N_6
REMARK    6  A    between atoms: C_5  and  C_27
REMARK    7  A    between atoms: C_7  and  C_9
REMARK    8  A    between atoms: C_9  and  C_10
REMARK    9  A    between atoms: C_9  and  N_14
REMARK   10  A    between atoms: C_10  and  C_11
REMARK   11  A    between atoms: C_11  and  C_12
REMARK   12  A    between atoms: C_11  and  C_13
REMARK   13  A    between atoms: C_15  and  C_17
REMARK   14  A    between atoms: N_29  and  O_30
REMARK                            x       y       z     vdW  Elec       q    Type
REMARK                         _______ _______ _______ _____ _____    ______ ____
ROOT
ATOM      1  C   UNL     1       3.632   4.897  19.486  0.00  0.00    +0.000 C 
ENDROOT
BRANCH   1   3
ATOM      2  N   UNL     1       5.748   5.756  18.505  0.00  0.00    +0.000 N 
ATOM      3  C   UNL     1       5.154   4.743  19.221  0.00  0.00    +0.000 C 
ATOM      4  O   UNL     1       5.818   3.826  19.703  0.00  0.00    +0.000 OA
ATOM      5  H   UNL     1       5.221   6.607  18.328  0.00  0.00    +0.000 HD
BRANCH   2   6
ATOM      6  C   UNL     1       7.162   5.733  18.146  0.00  0.00    +0.000 C 
BRANCH   6   7
ATOM      7  C   UNL     1       7.606   7.170  17.835  0.00  0.00    +0.000 C 
ATOM      8  O   UNL     1       7.305   7.764  16.798  0.00  0.00    +0.000 OA
ATOM      9  N   UNL     1       8.430   7.729  18.785  0.00  0.00    +0.000 N 
ATOM     10  H   UNL     1       8.423   7.425  19.753  0.00  0.00    +0.000 HD
BRANCH   9  11
ATOM     11  O   UNL     1       8.808   9.073  18.561  0.00  0.00    +0.000 OA
ATOM     12  H   UNL     1       9.772   9.056  18.747  0.00  0.00    +0.000 HD
ENDBRANCH   9  11
ENDBRANCH   6   7
BRANCH   6  13
ATOM     13  C   UNL     1       7.376   4.807  16.934  0.00  0.00    +0.000 C 
BRANCH  13  15
ATOM     14  C   UNL     1       6.911   5.023  14.433  0.00  0.00    +0.000 C 
ATOM     15  C   UNL     1       6.304   4.885  15.829  0.00  0.00    +0.000 C 
ATOM     16  C   UNL     1       5.411   3.642  15.878  0.00  0.00    +0.000 C 
ENDBRANCH  13  15
ENDBRANCH   6  13
ENDBRANCH   2   6
ENDBRANCH   1   3
BRANCH   1  17
ATOM     17  N   UNL     1       3.173   6.286  19.536  0.00  0.00    +0.000 N 
ATOM     18  C   UNL     1       2.031   6.694  20.193  0.00  0.00    +0.000 C 
ATOM     19  O   UNL     1       1.350   5.939  20.879  0.00  0.00    +0.000 OA
ATOM     20  H   UNL     1       3.510   6.961  18.852  0.00  0.00    +0.000 HD
BRANCH  18  21
ATOM     21  C   UNL     1       1.806   8.222  20.129  0.00  0.00    +0.000 C 
ATOM     22  C   UNL     1       0.540   8.651  20.896  0.00  0.00    +0.000 C 
ATOM     23  C   UNL     1       0.351  10.138  20.711  0.00  0.00    +0.000 A 
ATOM     24  C   UNL     1      -0.028  10.993  21.748  0.00  0.00    +0.000 A 
ATOM     25  C   UNL     1      -0.135  12.363  21.507  0.00  0.00    +0.000 A 
ATOM     26  C   UNL     1       0.127  12.879  20.236  0.00  0.00    +0.000 A 
ATOM     27  C   UNL     1       0.478  12.024  19.192  0.00  0.00    +0.000 A 
ATOM     28  C   UNL     1       0.589  10.650  19.424  0.00  0.00    +0.000 A 
ATOM     29  C   UNL     1       0.898   9.665  18.330  0.00  0.00    +0.000 C 
ATOM     30  N   UNL     1       1.934   8.692  18.706  0.00  0.00    +0.000 NA
ATOM     31  H   UNL     1       2.833   9.174  18.642  0.00  0.00    +0.000 HD
ENDBRANCH  18  21
ENDBRANCH   1  17
BRANCH   1  32
ATOM     32  C   UNL     1       2.789   4.041  18.514  0.00  0.00    +0.000 C 
BRANCH  32  33
ATOM     33  C   UNL     1       2.341   2.628  18.968  0.00  0.00    +0.000 C 
ATOM     34  C   UNL     1       0.863   2.318  18.732  0.00  0.00    +0.000 C 
ATOM     35  C   UNL     1       3.176   1.574  18.227  0.00  0.00    +0.000 C 
ENDBRANCH  32  33
ENDBRANCH   1  32
TORSDOF 10
ENDMDL
