MODEL 1
REMARK VINA RESULT:      -7.1      0.000      0.000
REMARK  Name = 
REMARK  8 active torsions:
REMARK  status: ('A' for Active; 'I' for Inactive)
REMARK    1  A    between atoms: O_1  and  C_2
REMARK    2  A    between atoms: C_2  and  C_3
REMARK    3  A    between atoms: N_5  and  C_6
REMARK    4  A    between atoms: C_6  and  C_7
REMARK    5  A    between atoms: C_7  and  O_8
REMARK    6  A    between atoms: C_7  and  C_17
REMARK    7  A    between atoms: O_8  and  C_9
REMARK    8  A    between atoms: C_9  and  C_10
REMARK                            x       y       z     vdW  Elec       q    Type
REMARK                         _______ _______ _______ _____ _____    ______ ____
ROOT
ATOM      1  C   UNL     1       3.663   5.268  17.977  0.00  0.00    +0.000 C 
ENDROOT
BRANCH   1   2
ATOM      2  C   UNL     1       2.975   4.360  19.003  0.00  0.00    +0.000 A 
ATOM      3  C   UNL     1       1.609   4.572  19.293  0.00  0.00    +0.000 A 
ATOM      4  C   UNL     1       0.975   3.883  20.328  0.00  0.00    +0.000 A 
ATOM      5  C   UNL     1       1.700   2.979  21.096  0.00  0.00    +0.000 A 
ATOM      6 CL   UNL     1       0.936   2.173  22.409  0.00  0.00    +0.000 Cl
ATOM      7  C   UNL     1       3.045   2.743  20.827  0.00  0.00    +0.000 A 
ATOM      8  C   UNL     1       3.679   3.424  19.783  0.00  0.00    +0.000 A 
ATOM      9 CL   UNL     1       5.364   3.121  19.558  0.00  0.00    +0.000 Cl
ENDBRANCH   1   2
BRANCH   1  10
ATOM     10  C   UNL     1       4.158   4.419  16.792  0.00  0.00    +0.000 C 
BRANCH  10  13
ATOM     11  C   UNL     1       6.802   5.093  14.518  0.00  0.00    +0.000 A 
ATOM     12  C   UNL     1       5.482   4.732  14.684  0.00  0.00    +0.000 A 
ATOM     13  N   UNL     1       5.221   4.997  15.998  0.00  0.00    +0.000 N 
ATOM     14  N   UNL     1       6.285   5.567  16.592  0.00  0.00    +0.000 NA
ATOM     15  N   UNL     1       7.259   5.638  15.692  0.00  0.00    +0.000 NA
BRANCH  11  16
ATOM     16  C   UNL     1       7.706   4.905  13.355  0.00  0.00    +0.000 C 
BRANCH  16  17
ATOM     17  O   UNL     1       8.688   5.938  13.255  0.00  0.00    +0.000 OA
ATOM     18  H   UNL     1       9.446   5.549  12.787  0.00  0.00    +0.000 HD
ENDBRANCH  16  17
ENDBRANCH  11  16
ENDBRANCH  10  13
ENDBRANCH   1  10
BRANCH   1  19
ATOM     19  O   UNL     1       2.689   6.240  17.535  0.00  0.00    +0.000 OA
BRANCH  19  20
ATOM     20  C   UNL     1       3.165   7.587  17.696  0.00  0.00    +0.000 C 
BRANCH  20  21
ATOM     21  C   UNL     1       2.195   8.436  18.476  0.00  0.00    +0.000 A 
ATOM     22  C   UNL     1       1.880   8.082  19.800  0.00  0.00    +0.000 A 
ATOM     23  C   UNL     1       0.992   8.857  20.553  0.00  0.00    +0.000 A 
ATOM     24  C   UNL     1       0.426   9.996  19.987  0.00  0.00    +0.000 A 
ATOM     25 CL   UNL     1      -0.683  10.939  20.904  0.00  0.00    +0.000 Cl
ATOM     26  C   UNL     1       0.747  10.375  18.684  0.00  0.00    +0.000 A 
ATOM     27  C   UNL     1       1.637   9.600  17.933  0.00  0.00    +0.000 A 
ENDBRANCH  20  21
ENDBRANCH  19  20
ENDBRANCH   1  19
TORSDOF 8
ENDMDL
MODEL 2
REMARK VINA RESULT:      -7.0      2.901      5.899
REMARK  Name = 
REMARK  8 active torsions:
REMARK  status: ('A' for Active; 'I' for Inactive)
REMARK    1  A    between atoms: O_1  and  C_2
REMARK    2  A    between atoms: C_2  and  C_3
REMARK    3  A    between atoms: N_5  and  C_6
REMARK    4  A    between atoms: C_6  and  C_7
REMARK    5  A    between atoms: C_7  and  O_8
REMARK    6  A    between atoms: C_7  and  C_17
REMARK    7  A    between atoms: O_8  and  C_9
REMARK    8  A    between atoms: C_9  and  C_10
REMARK                            x       y       z     vdW  Elec       q    Type
REMARK                         _______ _______ _______ _____ _____    ______ ____
ROOT
ATOM      1  C   UNL     1       4.554   4.967  17.417  0.00  0.00    +0.000 C 
ENDROOT
BRANCH   1   2
ATOM      2  C   UNL     1       5.314   4.954  16.085  0.00  0.00    +0.000 A 
ATOM      3  C   UNL     1       4.750   4.270  14.986  0.00  0.00    +0.000 A 
ATOM      4  C   UNL     1       5.467   4.092  13.802  0.00  0.00    +0.000 A 
ATOM      5  C   UNL     1       6.762   4.587  13.701  0.00  0.00    +0.000 A 
ATOM      6 CL   UNL     1       7.668   4.317  12.265  0.00  0.00    +0.000 Cl
ATOM      7  C   UNL     1       7.339   5.274  14.765  0.00  0.00    +0.000 A 
ATOM      8  C   UNL     1       6.618   5.463  15.949  0.00  0.00    +0.000 A 
ATOM      9 CL   UNL     1       7.431   6.269  17.242  0.00  0.00    +0.000 Cl
ENDBRANCH   1   2
BRANCH   1  10
ATOM     10  C   UNL     1       5.219   3.981  18.395  0.00  0.00    +0.000 C 
BRANCH  10  13
ATOM     11  C   UNL     1       2.591   2.733  20.432  0.00  0.00    +0.000 A 
ATOM     12  C   UNL     1       2.957   3.274  19.219  0.00  0.00    +0.000 A 
ATOM     13  N   UNL     1       4.320   3.189  19.207  0.00  0.00    +0.000 N 
ATOM     14  N   UNL     1       4.770   2.557  20.306  0.00  0.00    +0.000 NA
ATOM     15  N   UNL     1       3.718   2.264  21.061  0.00  0.00    +0.000 NA
BRANCH  11  16
ATOM     16  C   UNL     1       1.263   2.676  21.094  0.00  0.00    +0.000 C 
BRANCH  16  17
ATOM     17  O   UNL     1       1.362   2.421  22.496  0.00  0.00    +0.000 OA
ATOM     18  H   UNL     1       1.895   1.613  22.589  0.00  0.00    +0.000 HD
ENDBRANCH  16  17
ENDBRANCH  11  16
ENDBRANCH  10  13
ENDBRANCH   1  10
BRANCH   1  19
ATOM     19  O   UNL     1       4.608   6.314  17.936  0.00  0.00    +0.000 OA
BRANCH  19  20
ATOM     20  C   UNL     1       3.683   7.185  17.262  0.00  0.00    +0.000 C 
BRANCH  20  21
ATOM     21  C   UNL     1       2.720   7.833  18.223  0.00  0.00    +0.000 A 
ATOM     22  C   UNL     1       2.500   7.243  19.480  0.00  0.00    +0.000 A 
ATOM     23  C   UNL     1       1.621   7.828  20.398  0.00  0.00    +0.000 A 
ATOM     24  C   UNL     1       0.970   9.012  20.064  0.00  0.00    +0.000 A 
ATOM     25 CL   UNL     1      -0.128   9.721  21.183  0.00  0.00    +0.000 Cl
ATOM     26  C   UNL     1       1.196   9.624  18.832  0.00  0.00    +0.000 A 
ATOM     27  C   UNL     1       2.076   9.038  17.916  0.00  0.00    +0.000 A 
ENDBRANCH  20  21
ENDBRANCH  19  20
ENDBRANCH   1  19
TORSDOF 8
ENDMDL
MODEL 3
REMARK VINA RESULT:      -7.0      3.282      6.868
REMARK  Name = 
REMARK  8 active torsions:
REMARK  status: ('A' for Active; 'I' for Inactive)
REMARK    1  A    between atoms: O_1  and  C_2
REMARK    2  A    between atoms: C_2  and  C_3
REMARK    3  A    between atoms: N_5  and  C_6
REMARK    4  A    between atoms: C_6  and  C_7
REMARK    5  A    between atoms: C_7  and  O_8
REMARK    6  A    between atoms: C_7  and  C_17
REMARK    7  A    between atoms: O_8  and  C_9
REMARK    8  A    between atoms: C_9  and  C_10
REMARK                            x       y       z     vdW  Elec       q    Type
REMARK                         _______ _______ _______ _____ _____    ______ ____
ROOT
ATOM      1  C   UNL     1       2.562   6.740  19.692  0.00  0.00    +0.000 C 
ENDROOT
BRANCH   1   2
ATOM      2  C   UNL     1       1.819   8.052  19.417  0.00  0.00    +0.000 A 
ATOM      3  C   UNL     1       1.802   8.562  18.099  0.00  0.00    +0.000 A 
ATOM      4  C   UNL     1       1.280   9.826  17.821  0.00  0.00    +0.000 A 
ATOM      5  C   UNL     1       0.776  10.604  18.856  0.00  0.00    +0.000 A 
ATOM      6 CL   UNL     1       0.186  12.185  18.524  0.00  0.00    +0.000 Cl
ATOM      7  C   UNL     1       0.771  10.124  20.163  0.00  0.00    +0.000 A 
ATOM      8  C   UNL     1       1.283   8.853  20.442  0.00  0.00    +0.000 A 
ATOM      9 CL   UNL     1       1.299   8.360  22.097  0.00  0.00    +0.000 Cl
ENDBRANCH   1   2
BRANCH   1  10
ATOM     10  C   UNL     1       1.598   5.733  20.344  0.00  0.00    +0.000 C 
BRANCH  10  13
ATOM     11  C   UNL     1       2.868   2.555  19.391  0.00  0.00    +0.000 A 
ATOM     12  C   UNL     1       2.889   3.582  20.310  0.00  0.00    +0.000 A 
ATOM     13  N   UNL     1       1.800   4.343  19.995  0.00  0.00    +0.000 N 
ATOM     14  N   UNL     1       1.095   3.779  18.997  0.00  0.00    +0.000 NA
ATOM     15  N   UNL     1       1.736   2.678  18.624  0.00  0.00    +0.000 NA
BRANCH  11  16
ATOM     16  C   UNL     1       3.867   1.491  19.122  0.00  0.00    +0.000 C 
BRANCH  16  17
ATOM     17  O   UNL     1       5.039   1.626  19.928  0.00  0.00    +0.000 OA
ATOM     18  H   UNL     1       5.644   2.207  19.436  0.00  0.00    +0.000 HD
ENDBRANCH  16  17
ENDBRANCH  11  16
ENDBRANCH  10  13
ENDBRANCH   1  10
BRANCH   1  19
ATOM     19  O   UNL     1       3.043   6.238  18.425  0.00  0.00    +0.000 OA
BRANCH  19  20
ATOM     20  C   UNL     1       4.472   6.084  18.417  0.00  0.00    +0.000 C 
BRANCH  20  21
ATOM     21  C   UNL     1       4.971   5.537  17.104  0.00  0.00    +0.000 A 
ATOM     22  C   UNL     1       5.247   4.164  16.990  0.00  0.00    +0.000 A 
ATOM     23  C   UNL     1       5.699   3.626  15.781  0.00  0.00    +0.000 A 
ATOM     24  C   UNL     1       5.865   4.460  14.678  0.00  0.00    +0.000 A 
ATOM     25 CL   UNL     1       6.442   3.804  13.196  0.00  0.00    +0.000 Cl
ATOM     26  C   UNL     1       5.571   5.820  14.768  0.00  0.00    +0.000 A 
ATOM     27  C   UNL     1       5.117   6.356  15.978  0.00  0.00    +0.000 A 
ENDBRANCH  20  21
ENDBRANCH  19  20
ENDBRANCH   1  19
TORSDOF 8
ENDMDL
MODEL 4
REMARK VINA RESULT:      -7.0      2.970      7.271
REMARK  Name = 
REMARK  8 active torsions:
REMARK  status: ('A' for Active; 'I' for Inactive)
REMARK    1  A    between atoms: O_1  and  C_2
REMARK    2  A    between atoms: C_2  and  C_3
REMARK    3  A    between atoms: N_5  and  C_6
REMARK    4  A    between atoms: C_6  and  C_7
REMARK    5  A    between atoms: C_7  and  O_8
REMARK    6  A    between atoms: C_7  and  C_17
REMARK    7  A    between atoms: O_8  and  C_9
REMARK    8  A    between atoms: C_9  and  C_10
REMARK                            x       y       z     vdW  Elec       q    Type
REMARK                         _______ _______ _______ _____ _____    ______ ____
ROOT
ATOM      1  C   UNL     1       2.853   6.772  18.723  0.00  0.00    +0.000 C 
ENDROOT
BRANCH   1   2
ATOM      2  C   UNL     1       2.098   8.105  18.802  0.00  0.00    +0.000 A 
ATOM      3  C   UNL     1       2.235   9.027  17.741  0.00  0.00    +0.000 A 
ATOM      4  C   UNL     1       1.701  10.314  17.831  0.00  0.00    +0.000 A 
ATOM      5  C   UNL     1       1.031  10.701  18.986  0.00  0.00    +0.000 A 
ATOM      6 CL   UNL     1       0.425  12.304  19.122  0.00  0.00    +0.000 Cl
ATOM      7  C   UNL     1       0.873   9.809  20.043  0.00  0.00    +0.000 A 
ATOM      8  C   UNL     1       1.398   8.515  19.950  0.00  0.00    +0.000 A 
ATOM      9 CL   UNL     1       1.214   7.494  21.331  0.00  0.00    +0.000 Cl
ENDBRANCH   1   2
BRANCH   1  10
ATOM     10  C   UNL     1       2.020   5.758  17.918  0.00  0.00    +0.000 C 
BRANCH  10  13
ATOM     11  C   UNL     1       1.597   3.079  20.211  0.00  0.00    +0.000 A 
ATOM     12  C   UNL     1       1.295   4.385  19.888  0.00  0.00    +0.000 A 
ATOM     13  N   UNL     1       1.706   4.517  18.593  0.00  0.00    +0.000 N 
ATOM     14  N   UNL     1       2.157   3.345  18.111  0.00  0.00    +0.000 NA
ATOM     15  N   UNL     1       2.088   2.453  19.093  0.00  0.00    +0.000 NA
BRANCH  11  16
ATOM     16  C   UNL     1       1.527   2.376  21.518  0.00  0.00    +0.000 C 
BRANCH  16  17
ATOM     17  O   UNL     1       2.755   2.454  22.245  0.00  0.00    +0.000 OA
ATOM     18  H   UNL     1       3.001   1.540  22.464  0.00  0.00    +0.000 HD
ENDBRANCH  16  17
ENDBRANCH  11  16
ENDBRANCH  10  13
ENDBRANCH   1  10
BRANCH   1  19
ATOM     19  O   UNL     1       4.117   7.026  18.070  0.00  0.00    +0.000 OA
BRANCH  19  20
ATOM     20  C   UNL     1       5.013   5.908  18.184  0.00  0.00    +0.000 C 
BRANCH  20  21
ATOM     21  C   UNL     1       5.322   5.297  16.841  0.00  0.00    +0.000 A 
ATOM     22  C   UNL     1       5.307   6.111  15.695  0.00  0.00    +0.000 A 
ATOM     23  C   UNL     1       5.601   5.575  14.437  0.00  0.00    +0.000 A 
ATOM     24  C   UNL     1       5.923   4.225  14.324  0.00  0.00    +0.000 A 
ATOM     25 CL   UNL     1       6.264   3.560  12.775  0.00  0.00    +0.000 Cl
ATOM     26  C   UNL     1       5.967   3.410  15.455  0.00  0.00    +0.000 A 
ATOM     27  C   UNL     1       5.673   3.948  16.713  0.00  0.00    +0.000 A 
ENDBRANCH  20  21
ENDBRANCH  19  20
ENDBRANCH   1  19
TORSDOF 8
ENDMDL
MODEL 5
REMARK VINA RESULT:      -7.0      2.763      6.908
REMARK  Name = 
REMARK  8 active torsions:
REMARK  status: ('A' for Active; 'I' for Inactive)
REMARK    1  A    between atoms: O_1  and  C_2
REMARK    2  A    between atoms: C_2  and  C_3
REMARK    3  A    between atoms: N_5  and  C_6
REMARK    4  A    between atoms: C_6  and  C_7
REMARK    5  A    between atoms: C_7  and  O_8
REMARK    6  A    between atoms: C_7  and  C_17
REMARK    7  A    between atoms: O_8  and  C_9
REMARK    8  A    between atoms: C_9  and  C_10
REMARK                            x       y       z     vdW  Elec       q    Type
REMARK                         _______ _______ _______ _____ _____    ______ ____
ROOT
ATOM      1  C   UNL     1       3.253   6.476  18.428  0.00  0.00    +0.000 C 
ENDROOT
BRANCH   1   2
ATOM      2  C   UNL     1       2.353   7.702  18.624  0.00  0.00    +0.000 A 
ATOM      3  C   UNL     1       2.364   8.718  17.642  0.00  0.00    +0.000 A 
ATOM      4  C   UNL     1       1.689   9.923  17.843  0.00  0.00    +0.000 A 
ATOM      5  C   UNL     1       1.001  10.135  19.032  0.00  0.00    +0.000 A 
ATOM      6 CL   UNL     1       0.219  11.642  19.306  0.00  0.00    +0.000 Cl
ATOM      7  C   UNL     1       0.966   9.148  20.013  0.00  0.00    +0.000 A 
ATOM      8  C   UNL     1       1.632   7.936  19.809  0.00  0.00    +0.000 A 
ATOM      9 CL   UNL     1       1.592   6.792  21.102  0.00  0.00    +0.000 Cl
ENDBRANCH   1   2
BRANCH   1  10
ATOM     10  C   UNL     1       2.409   5.299  17.910  0.00  0.00    +0.000 C 
BRANCH  10  13
ATOM     11  C   UNL     1       3.700   2.514  19.696  0.00  0.00    +0.000 A 
ATOM     12  C   UNL     1       3.239   3.811  19.751  0.00  0.00    +0.000 A 
ATOM     13  N   UNL     1       2.657   4.017  18.534  0.00  0.00    +0.000 N 
ATOM     14  N   UNL     1       2.677   2.891  17.797  0.00  0.00    +0.000 NA
ATOM     15  N   UNL     1       3.308   1.959  18.503  0.00  0.00    +0.000 NA
BRANCH  11  16
ATOM     16  C   UNL     1       4.549   1.758  20.652  0.00  0.00    +0.000 C 
BRANCH  16  17
ATOM     17  O   UNL     1       5.306   0.728  20.013  0.00  0.00    +0.000 OA
ATOM     18  H   UNL     1       6.075   1.166  19.610  0.00  0.00    +0.000 HD
ENDBRANCH  16  17
ENDBRANCH  11  16
ENDBRANCH  10  13
ENDBRANCH   1  10
BRANCH   1  19
ATOM     19  O   UNL     1       4.273   6.834  17.469  0.00  0.00    +0.000 OA
BRANCH  19  20
ATOM     20  C   UNL     1       5.407   5.953  17.539  0.00  0.00    +0.000 C 
BRANCH  20  21
ATOM     21  C   UNL     1       5.744   5.363  16.193  0.00  0.00    +0.000 A 
ATOM     22  C   UNL     1       7.000   5.628  15.622  0.00  0.00    +0.000 A 
ATOM     23  C   UNL     1       7.346   5.085  14.379  0.00  0.00    +0.000 A 
ATOM     24  C   UNL     1       6.439   4.267  13.712  0.00  0.00    +0.000 A 
ATOM     25 CL   UNL     1       6.853   3.616  12.174  0.00  0.00    +0.000 Cl
ATOM     26  C   UNL     1       5.198   3.974  14.278  0.00  0.00    +0.000 A 
ATOM     27  C   UNL     1       4.855   4.517  15.521  0.00  0.00    +0.000 A 
ENDBRANCH  20  21
ENDBRANCH  19  20
ENDBRANCH   1  19
TORSDOF 8
ENDMDL
MODEL 6
REMARK VINA RESULT:      -6.9      2.752      3.203
REMARK  Name = 
REMARK  8 active torsions:
REMARK  status: ('A' for Active; 'I' for Inactive)
REMARK    1  A    between atoms: O_1  and  C_2
REMARK    2  A    between atoms: C_2  and  C_3
REMARK    3  A    between atoms: N_5  and  C_6
REMARK    4  A    between atoms: C_6  and  C_7
REMARK    5  A    between atoms: C_7  and  O_8
REMARK    6  A    between atoms: C_7  and  C_17
REMARK    7  A    between atoms: O_8  and  C_9
REMARK    8  A    between atoms: C_9  and  C_10
REMARK                            x       y       z     vdW  Elec       q    Type
REMARK                         _______ _______ _______ _____ _____    ______ ____
ROOT
ATOM      1  C   UNL     1       3.160   7.089  18.070  0.00  0.00    +0.000 C 
ENDROOT
BRANCH   1   2
ATOM      2  C   UNL     1       2.630   5.702  18.451  0.00  0.00    +0.000 A 
ATOM      3  C   UNL     1       2.712   4.658  17.502  0.00  0.00    +0.000 A 
ATOM      4  C   UNL     1       2.105   3.423  17.734  0.00  0.00    +0.000 A 
ATOM      5  C   UNL     1       1.400   3.214  18.913  0.00  0.00    +0.000 A 
ATOM      6 CL   UNL     1       0.602   1.713  19.175  0.00  0.00    +0.000 Cl
ATOM      7  C   UNL     1       1.311   4.222  19.870  0.00  0.00    +0.000 A 
ATOM      8  C   UNL     1       1.928   5.457  19.644  0.00  0.00    +0.000 A 
ATOM      9 CL   UNL     1       1.714   6.672  20.853  0.00  0.00    +0.000 Cl
ENDBRANCH   1   2
BRANCH   1  10
ATOM     10  C   UNL     1       4.075   6.968  16.838  0.00  0.00    +0.000 C 
BRANCH  10  13
ATOM     11  C   UNL     1       7.247   6.146  18.209  0.00  0.00    +0.000 A 
ATOM     12  C   UNL     1       5.883   5.955  18.253  0.00  0.00    +0.000 A 
ATOM     13  N   UNL     1       5.425   6.512  17.093  0.00  0.00    +0.000 N 
ATOM     14  N   UNL     1       6.448   6.947  16.335  0.00  0.00    +0.000 NA
ATOM     15  N   UNL     1       7.571   6.720  17.005  0.00  0.00    +0.000 NA
BRANCH  11  16
ATOM     16  C   UNL     1       8.283   5.895  19.243  0.00  0.00    +0.000 C 
BRANCH  16  17
ATOM     17  O   UNL     1       7.722   5.447  20.479  0.00  0.00    +0.000 OA
ATOM     18  H   UNL     1       7.451   6.246  20.962  0.00  0.00    +0.000 HD
ENDBRANCH  16  17
ENDBRANCH  11  16
ENDBRANCH  10  13
ENDBRANCH   1  10
BRANCH   1  19
ATOM     19  O   UNL     1       2.019   7.925  17.777  0.00  0.00    +0.000 OA
BRANCH  19  20
ATOM     20  C   UNL     1       2.278   9.308  18.070  0.00  0.00    +0.000 C 
BRANCH  20  21
ATOM     21  C   UNL     1       1.021  10.045  18.455  0.00  0.00    +0.000 A 
ATOM     22  C   UNL     1      -0.185   9.736  17.804  0.00  0.00    +0.000 A 
ATOM     23  C   UNL     1      -1.370  10.395  18.148  0.00  0.00    +0.000 A 
ATOM     24  C   UNL     1      -1.353  11.357  19.154  0.00  0.00    +0.000 A 
ATOM     25 CL   UNL     1      -2.805  12.184  19.565  0.00  0.00    +0.000 Cl
ATOM     26  C   UNL     1      -0.169  11.657  19.828  0.00  0.00    +0.000 A 
ATOM     27  C   UNL     1       1.015  10.996  19.483  0.00  0.00    +0.000 A 
ENDBRANCH  20  21
ENDBRANCH  19  20
ENDBRANCH   1  19
TORSDOF 8
ENDMDL
MODEL 7
REMARK VINA RESULT:      -6.9      2.808      6.903
REMARK  Name = 
REMARK  8 active torsions:
REMARK  status: ('A' for Active; 'I' for Inactive)
REMARK    1  A    between atoms: O_1  and  C_2
REMARK    2  A    between atoms: C_2  and  C_3
REMARK    3  A    between atoms: N_5  and  C_6
REMARK    4  A    between atoms: C_6  and  C_7
REMARK    5  A    between atoms: C_7  and  O_8
REMARK    6  A    between atoms: C_7  and  C_17
REMARK    7  A    between atoms: O_8  and  C_9
REMARK    8  A    between atoms: C_9  and  C_10
REMARK                            x       y       z     vdW  Elec       q    Type
REMARK                         _______ _______ _______ _____ _____    ______ ____
ROOT
ATOM      1  C   UNL     1       3.260   6.326  18.322  0.00  0.00    +0.000 C 
ENDROOT
BRANCH   1   2
ATOM      2  C   UNL     1       2.397   7.555  18.630  0.00  0.00    +0.000 A 
ATOM      3  C   UNL     1       2.407   8.638  17.722  0.00  0.00    +0.000 A 
ATOM      4  C   UNL     1       1.769   9.841  18.028  0.00  0.00    +0.000 A 
ATOM      5  C   UNL     1       1.120   9.984  19.249  0.00  0.00    +0.000 A 
ATOM      6 CL   UNL     1       0.384  11.485  19.651  0.00  0.00    +0.000 Cl
ATOM      7  C   UNL     1       1.086   8.931  20.158  0.00  0.00    +0.000 A 
ATOM      8  C   UNL     1       1.715   7.720  19.849  0.00  0.00    +0.000 A 
ATOM      9 CL   UNL     1       1.682   6.488  21.059  0.00  0.00    +0.000 Cl
ENDBRANCH   1   2
BRANCH   1  10
ATOM     10  C   UNL     1       2.353   5.161  17.884  0.00  0.00    +0.000 C 
BRANCH  10  13
ATOM     11  C   UNL     1       3.757   2.236  19.329  0.00  0.00    +0.000 A 
ATOM     12  C   UNL     1       3.621   3.606  19.390  0.00  0.00    +0.000 A 
ATOM     13  N   UNL     1       2.608   3.885  18.519  0.00  0.00    +0.000 N 
ATOM     14  N   UNL     1       2.087   2.754  18.011  0.00  0.00    +0.000 NA
ATOM     15  N   UNL     1       2.779   1.734  18.507  0.00  0.00    +0.000 NA
BRANCH  11  16
ATOM     16  C   UNL     1       4.784   1.348  19.931  0.00  0.00    +0.000 C 
BRANCH  16  17
ATOM     17  O   UNL     1       5.145   1.750  21.254  0.00  0.00    +0.000 OA
ATOM     18  H   UNL     1       4.674   1.152  21.859  0.00  0.00    +0.000 HD
ENDBRANCH  16  17
ENDBRANCH  11  16
ENDBRANCH  10  13
ENDBRANCH   1  10
BRANCH   1  19
ATOM     19  O   UNL     1       4.171   6.688  17.262  0.00  0.00    +0.000 OA
BRANCH  19  20
ATOM     20  C   UNL     1       5.415   5.972  17.355  0.00  0.00    +0.000 C 
BRANCH  20  21
ATOM     21  C   UNL     1       5.785   5.317  16.049  0.00  0.00    +0.000 A 
ATOM     22  C   UNL     1       4.809   4.596  15.340  0.00  0.00    +0.000 A 
ATOM     23  C   UNL     1       5.120   3.987  14.120  0.00  0.00    +0.000 A 
ATOM     24  C   UNL     1       6.406   4.109  13.600  0.00  0.00    +0.000 A 
ATOM     25 CL   UNL     1       6.796   3.343  12.110  0.00  0.00    +0.000 Cl
ATOM     26  C   UNL     1       7.379   4.842  14.279  0.00  0.00    +0.000 A 
ATOM     27  C   UNL     1       7.066   5.451  15.499  0.00  0.00    +0.000 A 
ENDBRANCH  20  21
ENDBRANCH  19  20
ENDBRANCH   1  19
TORSDOF 8
ENDMDL
MODEL 8
REMARK VINA RESULT:      -6.9      0.667      1.157
REMARK  Name = 
REMARK  8 active torsions:
REMARK  status: ('A' for Active; 'I' for Inactive)
REMARK    1  A    between atoms: O_1  and  C_2
REMARK    2  A    between atoms: C_2  and  C_3
REMARK    3  A    between atoms: N_5  and  C_6
REMARK    4  A    between atoms: C_6  and  C_7
REMARK    5  A    between atoms: C_7  and  O_8
REMARK    6  A    between atoms: C_7  and  C_17
REMARK    7  A    between atoms: O_8  and  C_9
REMARK    8  A    between atoms: C_9  and  C_10
REMARK                            x       y       z     vdW  Elec       q    Type
REMARK                         _______ _______ _______ _____ _____    ______ ____
ROOT
ATOM      1  C   UNL     1       3.663   5.066  18.101  0.00  0.00    +0.000 C 
ENDROOT
BRANCH   1   2
ATOM      2  C   UNL     1       2.943   4.201  19.143  0.00  0.00    +0.000 A 
ATOM      3  C   UNL     1       1.587   4.470  19.430  0.00  0.00    +0.000 A 
ATOM      4  C   UNL     1       0.929   3.822  20.477  0.00  0.00    +0.000 A 
ATOM      5  C   UNL     1       1.619   2.903  21.258  0.00  0.00    +0.000 A 
ATOM      6 CL   UNL     1       0.827   2.148  22.585  0.00  0.00    +0.000 Cl
ATOM      7  C   UNL     1       2.954   2.611  20.992  0.00  0.00    +0.000 A 
ATOM      8  C   UNL     1       3.612   3.251  19.936  0.00  0.00    +0.000 A 
ATOM      9 CL   UNL     1       5.284   2.880  19.715  0.00  0.00    +0.000 Cl
ENDBRANCH   1   2
BRANCH   1  10
ATOM     10  C   UNL     1       4.151   4.175  16.945  0.00  0.00    +0.000 C 
BRANCH  10  13
ATOM     11  C   UNL     1       6.748   4.831  14.612  0.00  0.00    +0.000 A 
ATOM     12  C   UNL     1       5.401   4.902  14.894  0.00  0.00    +0.000 A 
ATOM     13  N   UNL     1       5.321   4.644  16.233  0.00  0.00    +0.000 N 
ATOM     14  N   UNL     1       6.547   4.505  16.768  0.00  0.00    +0.000 NA
ATOM     15  N   UNL     1       7.432   4.626  15.785  0.00  0.00    +0.000 NA
BRANCH  11  16
ATOM     16  C   UNL     1       7.456   4.871  13.308  0.00  0.00    +0.000 C 
BRANCH  16  17
ATOM     17  O   UNL     1       6.883   3.981  12.348  0.00  0.00    +0.000 OA
ATOM     18  H   UNL     1       6.804   4.486  11.521  0.00  0.00    +0.000 HD
ENDBRANCH  16  17
ENDBRANCH  11  16
ENDBRANCH  10  13
ENDBRANCH   1  10
BRANCH   1  19
ATOM     19  O   UNL     1       2.718   6.049  17.624  0.00  0.00    +0.000 OA
BRANCH  19  20
ATOM     20  C   UNL     1       3.209   7.390  17.790  0.00  0.00    +0.000 C 
BRANCH  20  21
ATOM     21  C   UNL     1       2.231   8.257  18.541  0.00  0.00    +0.000 A 
ATOM     22  C   UNL     1       1.575   9.299  17.863  0.00  0.00    +0.000 A 
ATOM     23  C   UNL     1       0.653  10.113  18.530  0.00  0.00    +0.000 A 
ATOM     24  C   UNL     1       0.377   9.879  19.874  0.00  0.00    +0.000 A 
ATOM     25 CL   UNL     1      -0.740  10.892  20.701  0.00  0.00    +0.000 Cl
ATOM     26  C   UNL     1       1.001   8.834  20.554  0.00  0.00    +0.000 A 
ATOM     27  C   UNL     1       1.922   8.020  19.885  0.00  0.00    +0.000 A 
ENDBRANCH  20  21
ENDBRANCH  19  20
ENDBRANCH   1  19
TORSDOF 8
ENDMDL
MODEL 9
REMARK VINA RESULT:      -6.8      1.999      2.474
REMARK  Name = 
REMARK  8 active torsions:
REMARK  status: ('A' for Active; 'I' for Inactive)
REMARK    1  A    between atoms: O_1  and  C_2
REMARK    2  A    between atoms: C_2  and  C_3
REMARK    3  A    between atoms: N_5  and  C_6
REMARK    4  A    between atoms: C_6  and  C_7
REMARK    5  A    between atoms: C_7  and  O_8
REMARK    6  A    between atoms: C_7  and  C_17
REMARK    7  A    between atoms: O_8  and  C_9
REMARK    8  A    between atoms: C_9  and  C_10
REMARK                            x       y       z     vdW  Elec       q    Type
REMARK                         _______ _______ _______ _____ _____    ______ ____
ROOT
ATOM      1  C   UNL     1       3.637   6.833  18.452  0.00  0.00    +0.000 C 
ENDROOT
BRANCH   1   2
ATOM      2  C   UNL     1       3.737   5.304  18.379  0.00  0.00    +0.000 A 
ATOM      3  C   UNL     1       2.630   4.573  17.895  0.00  0.00    +0.000 A 
ATOM      4  C   UNL     1       2.604   3.179  17.955  0.00  0.00    +0.000 A 
ATOM      5  C   UNL     1       3.681   2.495  18.507  0.00  0.00    +0.000 A 
ATOM      6 CL   UNL     1       3.626   0.781  18.635  0.00  0.00    +0.000 Cl
ATOM      7  C   UNL     1       4.790   3.189  18.983  0.00  0.00    +0.000 A 
ATOM      8  C   UNL     1       4.821   4.586  18.914  0.00  0.00    +0.000 A 
ATOM      9 CL   UNL     1       6.205   5.372  19.585  0.00  0.00    +0.000 Cl
ENDBRANCH   1   2
BRANCH   1  10
ATOM     10  C   UNL     1       3.918   7.431  17.062  0.00  0.00    +0.000 C 
BRANCH  10  13
ATOM     11  C   UNL     1       6.501   5.531  15.534  0.00  0.00    +0.000 A 
ATOM     12  C   UNL     1       5.179   5.919  15.506  0.00  0.00    +0.000 A 
ATOM     13  N   UNL     1       5.111   6.954  16.395  0.00  0.00    +0.000 N 
ATOM     14  N   UNL     1       6.330   7.248  16.882  0.00  0.00    +0.000 NA
ATOM     15  N   UNL     1       7.192   6.386  16.354  0.00  0.00    +0.000 NA
BRANCH  11  16
ATOM     16  C   UNL     1       7.169   4.366  14.900  0.00  0.00    +0.000 C 
BRANCH  16  17
ATOM     17  O   UNL     1       6.250   3.519  14.207  0.00  0.00    +0.000 OA
ATOM     18  H   UNL     1       5.400   3.990  14.198  0.00  0.00    +0.000 HD
ENDBRANCH  16  17
ENDBRANCH  11  16
ENDBRANCH  10  13
ENDBRANCH   1  10
BRANCH   1  19
ATOM     19  O   UNL     1       2.300   7.161  18.887  0.00  0.00    +0.000 OA
BRANCH  19  20
ATOM     20  C   UNL     1       1.991   8.548  18.670  0.00  0.00    +0.000 C 
BRANCH  20  21
ATOM     21  C   UNL     1       1.191   9.131  19.807  0.00  0.00    +0.000 A 
ATOM     22  C   UNL     1       0.417  10.283  19.585  0.00  0.00    +0.000 A 
ATOM     23  C   UNL     1      -0.345  10.839  20.618  0.00  0.00    +0.000 A 
ATOM     24  C   UNL     1      -0.344  10.236  21.873  0.00  0.00    +0.000 A 
ATOM     25 CL   UNL     1      -1.263  10.931  23.150  0.00  0.00    +0.000 Cl
ATOM     26  C   UNL     1       0.399   9.078  22.102  0.00  0.00    +0.000 A 
ATOM     27  C   UNL     1       1.159   8.522  21.068  0.00  0.00    +0.000 A 
ENDBRANCH  20  21
ENDBRANCH  19  20
ENDBRANCH   1  19
TORSDOF 8
ENDMDL
