MODEL 1
REMARK VINA RESULT:      -6.1      0.000      0.000
REMARK  Name = 
REMARK  7 active torsions:
REMARK  status: ('A' for Active; 'I' for Inactive)
REMARK    1  A    between atoms: C_1  and  O_2
REMARK    2  A    between atoms: O_2  and  C_3
REMARK    3  A    between atoms: C_6  and  C_7
REMARK    4  A    between atoms: C_8  and  C_9
REMARK    5  A    between atoms: C_9  and  C_11
REMARK    6  A    between atoms: C_16  and  O_17
REMARK    7  A    between atoms: C_25  and  C_26
REMARK                            x       y       z     vdW  Elec       q    Type
REMARK                         _______ _______ _______ _____ _____    ______ ____
ROOT
ATOM      1  C   UNL     1      -2.372  13.761  22.217  0.00  0.00    +0.000 C 
ATOM      2  C   UNL     1      -3.274  13.714  23.412  0.00  0.00    +0.000 C 
ATOM      3  C   UNL     1      -2.902  14.594  24.360  0.00  0.00    +0.000 C 
ATOM      4  C   UNL     1      -1.687  15.293  23.871  0.00  0.00    +0.000 C 
ATOM      5  O   UNL     1      -1.109  16.186  24.462  0.00  0.00    +0.000 OA
ATOM      6  N   UNL     1      -1.407  14.744  22.637  0.00  0.00    +0.000 N 
ATOM      7  C   UNL     1      -0.445  15.252  21.765  0.00  0.00    +0.000 A 
ATOM      8  C   UNL     1       0.880  15.295  22.184  0.00  0.00    +0.000 A 
ATOM      9  C   UNL     1       1.853  15.681  21.274  0.00  0.00    +0.000 A 
ATOM     10  C   UNL     1       1.468  16.103  20.007  0.00  0.00    +0.000 A 
ATOM     11  C   UNL     1       0.118  16.079  19.674  0.00  0.00    +0.000 A 
ATOM     12  C   UNL     1      -0.354  16.678  18.382  0.00  0.00    +0.000 C 
ATOM     13  N   UNL     1      -0.834  15.599  20.515  0.00  0.00    +0.000 NA
ENDROOT
BRANCH   1  17
ATOM     14  C   UNL     1      -0.282  10.131  21.030  0.00  0.00    +0.000 A 
ATOM     15  C   UNL     1      -0.901  10.954  20.090  0.00  0.00    +0.000 A 
ATOM     16  C   UNL     1      -1.580  12.106  20.489  0.00  0.00    +0.000 A 
ATOM     17  C   UNL     1      -1.676  12.456  21.847  0.00  0.00    +0.000 A 
ATOM     18  C   UNL     1      -1.037  11.627  22.786  0.00  0.00    +0.000 A 
ATOM     19  C   UNL     1      -0.355  10.469  22.379  0.00  0.00    +0.000 A 
BRANCH  14  21
ATOM     20  C   UNL     1       1.319   8.404  21.323  0.00  0.00    +0.000 C 
ATOM     21  O   UNL     1       0.328   9.024  20.510  0.00  0.00    +0.000 OA
ENDBRANCH  14  21
ENDBRANCH   1  17
BRANCH   2  22
ATOM     22  C   UNL     1      -4.411  12.794  23.642  0.00  0.00    +0.000 C 
ATOM     23  O   UNL     1      -4.312  12.025  24.608  0.00  0.00    +0.000 OA
BRANCH  22  24
ATOM     24  C   UNL     1      -5.573  12.802  22.767  0.00  0.00    +0.000 A 
ATOM     25  C   UNL     1      -5.669  12.713  21.391  0.00  0.00    +0.000 A 
ATOM     26  C   UNL     1      -7.016  12.812  20.928  0.00  0.00    +0.000 A 
ATOM     27  C   UNL     1      -7.906  12.987  21.962  0.00  0.00    +0.000 A 
ATOM     28  S   UNL     1      -7.124  13.020  23.479  0.00  0.00    +0.000 S 
ENDBRANCH  22  24
ENDBRANCH   2  22
BRANCH   3  29
ATOM     29  O   UNL     1      -3.489  14.849  25.568  0.00  0.00    +0.000 OA
ATOM     30  H   UNL     1      -3.061  14.273  26.239  0.00  0.00    +0.000 HD
ENDBRANCH   3  29
TORSDOF 5
ENDMDL
MODEL 2
REMARK VINA RESULT:      -6.0      2.863      5.595
REMARK  Name = 
REMARK  7 active torsions:
REMARK  status: ('A' for Active; 'I' for Inactive)
REMARK    1  A    between atoms: C_1  and  O_2
REMARK    2  A    between atoms: O_2  and  C_3
REMARK    3  A    between atoms: C_6  and  C_7
REMARK    4  A    between atoms: C_8  and  C_9
REMARK    5  A    between atoms: C_9  and  C_11
REMARK    6  A    between atoms: C_16  and  O_17
REMARK    7  A    between atoms: C_25  and  C_26
REMARK                            x       y       z     vdW  Elec       q    Type
REMARK                         _______ _______ _______ _____ _____    ______ ____
ROOT
ATOM      1  C   UNL     1      -1.636  12.026  20.421  0.00  0.00    +0.000 C 
ATOM      2  C   UNL     1      -3.020  12.551  20.191  0.00  0.00    +0.000 C 
ATOM      3  C   UNL     1      -3.579  12.031  19.082  0.00  0.00    +0.000 C 
ATOM      4  C   UNL     1      -2.584  11.120  18.464  0.00  0.00    +0.000 C 
ATOM      5  O   UNL     1      -2.776  10.449  17.466  0.00  0.00    +0.000 OA
ATOM      6  N   UNL     1      -1.464  11.183  19.266  0.00  0.00    +0.000 N 
ATOM      7  C   UNL     1      -0.366  10.335  19.130  0.00  0.00    +0.000 A 
ATOM      8  C   UNL     1       0.340  10.345  17.932  0.00  0.00    +0.000 A 
ATOM      9  C   UNL     1       1.505   9.596  17.841  0.00  0.00    +0.000 A 
ATOM     10  C   UNL     1       1.878   8.789  18.908  0.00  0.00    +0.000 A 
ATOM     11  C   UNL     1       1.095   8.793  20.057  0.00  0.00    +0.000 A 
ATOM     12  C   UNL     1       1.369   7.818  21.164  0.00  0.00    +0.000 C 
ATOM     13  N   UNL     1       0.015   9.604  20.204  0.00  0.00    +0.000 NA
ENDROOT
BRANCH   1  17
ATOM     14  C   UNL     1       1.415  15.128  20.561  0.00  0.00    +0.000 A 
ATOM     15  C   UNL     1       0.655  14.907  19.414  0.00  0.00    +0.000 A 
ATOM     16  C   UNL     1      -0.309  13.898  19.381  0.00  0.00    +0.000 A 
ATOM     17  C   UNL     1      -0.524  13.066  20.492  0.00  0.00    +0.000 A 
ATOM     18  C   UNL     1       0.238  13.305  21.649  0.00  0.00    +0.000 A 
ATOM     19  C   UNL     1       1.206  14.322  21.678  0.00  0.00    +0.000 A 
BRANCH  14  21
ATOM     20  C   UNL     1       2.435  16.773  19.188  0.00  0.00    +0.000 C 
ATOM     21  O   UNL     1       2.338  16.131  20.454  0.00  0.00    +0.000 OA
ENDBRANCH  14  21
ENDBRANCH   1  17
BRANCH   2  22
ATOM     22  C   UNL     1      -3.736  13.573  20.988  0.00  0.00    +0.000 C 
ATOM     23  O   UNL     1      -3.835  14.698  20.479  0.00  0.00    +0.000 OA
BRANCH  22  24
ATOM     24  C   UNL     1      -4.282  13.258  22.299  0.00  0.00    +0.000 A 
ATOM     25  C   UNL     1      -3.669  12.784  23.443  0.00  0.00    +0.000 A 
ATOM     26  C   UNL     1      -4.593  12.560  24.507  0.00  0.00    +0.000 A 
ATOM     27  C   UNL     1      -5.884  12.858  24.141  0.00  0.00    +0.000 A 
ATOM     28  S   UNL     1      -5.980  13.412  22.529  0.00  0.00    +0.000 S 
ENDBRANCH  22  24
ENDBRANCH   2  22
BRANCH   3  29
ATOM     29  O   UNL     1      -4.825  12.256  18.567  0.00  0.00    +0.000 OA
ATOM     30  H   UNL     1      -5.182  13.070  18.984  0.00  0.00    +0.000 HD
ENDBRANCH   3  29
TORSDOF 5
ENDMDL
MODEL 3
REMARK VINA RESULT:      -6.0      2.900      3.720
REMARK  Name = 
REMARK  7 active torsions:
REMARK  status: ('A' for Active; 'I' for Inactive)
REMARK    1  A    between atoms: C_1  and  O_2
REMARK    2  A    between atoms: O_2  and  C_3
REMARK    3  A    between atoms: C_6  and  C_7
REMARK    4  A    between atoms: C_8  and  C_9
REMARK    5  A    between atoms: C_9  and  C_11
REMARK    6  A    between atoms: C_16  and  O_17
REMARK    7  A    between atoms: C_25  and  C_26
REMARK                            x       y       z     vdW  Elec       q    Type
REMARK                         _______ _______ _______ _____ _____    ______ ____
ROOT
ATOM      1  C   UNL     1      -3.371  12.917  20.087  0.00  0.00    +0.000 C 
ATOM      2  C   UNL     1      -4.446  12.599  21.081  0.00  0.00    +0.000 C 
ATOM      3  C   UNL     1      -3.964  12.505  22.333  0.00  0.00    +0.000 C 
ATOM      4  C   UNL     1      -2.499  12.735  22.269  0.00  0.00    +0.000 C 
ATOM      5  O   UNL     1      -1.753  12.763  23.230  0.00  0.00    +0.000 OA
ATOM      6  N   UNL     1      -2.207  12.935  20.936  0.00  0.00    +0.000 N 
ATOM      7  C   UNL     1      -0.964  13.363  20.472  0.00  0.00    +0.000 A 
ATOM      8  C   UNL     1       0.151  12.572  20.725  0.00  0.00    +0.000 A 
ATOM      9  C   UNL     1       1.365  12.931  20.157  0.00  0.00    +0.000 A 
ATOM     10  C   UNL     1       1.452  14.116  19.436  0.00  0.00    +0.000 A 
ATOM     11  C   UNL     1       0.304  14.883  19.266  0.00  0.00    +0.000 A 
ATOM     12  C   UNL     1       0.387  16.243  18.638  0.00  0.00    +0.000 C 
ATOM     13  N   UNL     1      -0.914  14.488  19.720  0.00  0.00    +0.000 NA
ENDROOT
BRANCH   1  17
ATOM     14  C   UNL     1      -2.832  10.210  16.720  0.00  0.00    +0.000 A 
ATOM     15  C   UNL     1      -3.812  11.201  16.707  0.00  0.00    +0.000 A 
ATOM     16  C   UNL     1      -3.981  12.051  17.801  0.00  0.00    +0.000 A 
ATOM     17  C   UNL     1      -3.185  11.917  18.951  0.00  0.00    +0.000 A 
ATOM     18  C   UNL     1      -2.191  10.923  18.950  0.00  0.00    +0.000 A 
ATOM     19  C   UNL     1      -2.023  10.072  17.847  0.00  0.00    +0.000 A 
BRANCH  14  21
ATOM     20  C   UNL     1      -3.309  10.006  14.405  0.00  0.00    +0.000 C 
ATOM     21  O   UNL     1      -2.785   9.433  15.597  0.00  0.00    +0.000 OA
ENDBRANCH  14  21
ENDBRANCH   1  17
BRANCH   2  22
ATOM     22  C   UNL     1      -5.875  12.329  20.800  0.00  0.00    +0.000 C 
ATOM     23  O   UNL     1      -6.387  11.381  21.410  0.00  0.00    +0.000 OA
BRANCH  22  24
ATOM     24  C   UNL     1      -6.620  13.140  19.850  0.00  0.00    +0.000 A 
ATOM     25  C   UNL     1      -7.393  12.778  18.764  0.00  0.00    +0.000 A 
ATOM     26  C   UNL     1      -7.913  13.906  18.060  0.00  0.00    +0.000 A 
ATOM     27  C   UNL     1      -7.512  15.095  18.623  0.00  0.00    +0.000 A 
ATOM     28  S   UNL     1      -6.525  14.852  19.994  0.00  0.00    +0.000 S 
ENDBRANCH  22  24
ENDBRANCH   2  22
BRANCH   3  29
ATOM     29  O   UNL     1      -4.642  12.250  23.493  0.00  0.00    +0.000 OA
ATOM     30  H   UNL     1      -4.128  11.586  24.003  0.00  0.00    +0.000 HD
ENDBRANCH   3  29
TORSDOF 5
ENDMDL
MODEL 4
REMARK VINA RESULT:      -6.0      3.306      6.039
REMARK  Name = 
REMARK  7 active torsions:
REMARK  status: ('A' for Active; 'I' for Inactive)
REMARK    1  A    between atoms: C_1  and  O_2
REMARK    2  A    between atoms: O_2  and  C_3
REMARK    3  A    between atoms: C_6  and  C_7
REMARK    4  A    between atoms: C_8  and  C_9
REMARK    5  A    between atoms: C_9  and  C_11
REMARK    6  A    between atoms: C_16  and  O_17
REMARK    7  A    between atoms: C_25  and  C_26
REMARK                            x       y       z     vdW  Elec       q    Type
REMARK                         _______ _______ _______ _____ _____    ______ ____
ROOT
ATOM      1  C   UNL     1      -0.460  11.802  20.195  0.00  0.00    +0.000 C 
ATOM      2  C   UNL     1      -1.766  12.521  20.047  0.00  0.00    +0.000 C 
ATOM      3  C   UNL     1      -2.534  11.980  19.083  0.00  0.00    +0.000 C 
ATOM      4  C   UNL     1      -1.776  10.851  18.487  0.00  0.00    +0.000 C 
ATOM      5  O   UNL     1      -2.193  10.114  17.613  0.00  0.00    +0.000 OA
ATOM      6  N   UNL     1      -0.567  10.818  19.149  0.00  0.00    +0.000 N 
ATOM      7  C   UNL     1       0.363   9.788  19.010  0.00  0.00    +0.000 A 
ATOM      8  C   UNL     1       0.905   9.545  17.752  0.00  0.00    +0.000 A 
ATOM      9  C   UNL     1       1.921   8.607  17.636  0.00  0.00    +0.000 A 
ATOM     10  C   UNL     1       2.299   7.874  18.755  0.00  0.00    +0.000 A 
ATOM     11  C   UNL     1       1.678   8.139  19.971  0.00  0.00    +0.000 A 
ATOM     12  C   UNL     1       1.939   7.264  21.161  0.00  0.00    +0.000 C 
ATOM     13  N   UNL     1       0.762   9.130  20.124  0.00  0.00    +0.000 NA
ENDROOT
BRANCH   1  17
ATOM     14  C   UNL     1       3.023  14.341  19.580  0.00  0.00    +0.000 A 
ATOM     15  C   UNL     1       2.152  14.036  18.536  0.00  0.00    +0.000 A 
ATOM     16  C   UNL     1       1.048  13.209  18.746  0.00  0.00    +0.000 A 
ATOM     17  C   UNL     1       0.797  12.644  20.008  0.00  0.00    +0.000 A 
ATOM     18  C   UNL     1       1.674  12.968  21.059  0.00  0.00    +0.000 A 
ATOM     19  C   UNL     1       2.782  13.802  20.842  0.00  0.00    +0.000 A 
BRANCH  14  21
ATOM     20  C   UNL     1       4.465  15.128  17.868  0.00  0.00    +0.000 C 
ATOM     21  O   UNL     1       4.074  15.144  19.236  0.00  0.00    +0.000 OA
ENDBRANCH  14  21
ENDBRANCH   1  17
BRANCH   2  22
ATOM     22  C   UNL     1      -2.211  13.732  20.774  0.00  0.00    +0.000 C 
ATOM     23  O   UNL     1      -1.838  14.820  20.313  0.00  0.00    +0.000 OA
BRANCH  22  24
ATOM     24  C   UNL     1      -3.036  13.632  21.967  0.00  0.00    +0.000 A 
ATOM     25  C   UNL     1      -4.072  14.427  22.419  0.00  0.00    +0.000 A 
ATOM     26  C   UNL     1      -4.583  13.997  23.681  0.00  0.00    +0.000 A 
ATOM     27  C   UNL     1      -3.914  12.895  24.160  0.00  0.00    +0.000 A 
ATOM     28  S   UNL     1      -2.687  12.378  23.092  0.00  0.00    +0.000 S 
ENDBRANCH  22  24
ENDBRANCH   2  22
BRANCH   3  29
ATOM     29  O   UNL     1      -3.786  12.350  18.678  0.00  0.00    +0.000 OA
ATOM     30  H   UNL     1      -3.819  12.284  17.699  0.00  0.00    +0.000 HD
ENDBRANCH   3  29
TORSDOF 5
ENDMDL
MODEL 5
REMARK VINA RESULT:      -5.9      1.713      2.276
REMARK  Name = 
REMARK  7 active torsions:
REMARK  status: ('A' for Active; 'I' for Inactive)
REMARK    1  A    between atoms: C_1  and  O_2
REMARK    2  A    between atoms: O_2  and  C_3
REMARK    3  A    between atoms: C_6  and  C_7
REMARK    4  A    between atoms: C_8  and  C_9
REMARK    5  A    between atoms: C_9  and  C_11
REMARK    6  A    between atoms: C_16  and  O_17
REMARK    7  A    between atoms: C_25  and  C_26
REMARK                            x       y       z     vdW  Elec       q    Type
REMARK                         _______ _______ _______ _____ _____    ______ ____
ROOT
ATOM      1  C   UNL     1      -1.291  13.970  20.885  0.00  0.00    +0.000 C 
ATOM      2  C   UNL     1      -1.725  13.604  22.271  0.00  0.00    +0.000 C 
ATOM      3  C   UNL     1      -0.997  14.236  23.211  0.00  0.00    +0.000 C 
ATOM      4  C   UNL     1       0.012  15.069  22.511  0.00  0.00    +0.000 C 
ATOM      5  O   UNL     1       0.810  15.807  23.058  0.00  0.00    +0.000 OA
ATOM      6  N   UNL     1      -0.185  14.849  21.164  0.00  0.00    +0.000 N 
ATOM      7  C   UNL     1       0.443  15.584  20.159  0.00  0.00    +0.000 A 
ATOM      8  C   UNL     1       1.831  15.563  20.086  0.00  0.00    +0.000 A 
ATOM      9  C   UNL     1       2.450  16.190  19.013  0.00  0.00    +0.000 A 
ATOM     10  C   UNL     1       1.676  16.898  18.103  0.00  0.00    +0.000 A 
ATOM     11  C   UNL     1       0.295  16.916  18.269  0.00  0.00    +0.000 A 
ATOM     12  C   UNL     1      -0.560  17.799  17.408  0.00  0.00    +0.000 C 
ATOM     13  N   UNL     1      -0.334  16.215  19.247  0.00  0.00    +0.000 NA
ENDROOT
BRANCH   1  17
ATOM     14  C   UNL     1       0.006  10.571  18.493  0.00  0.00    +0.000 A 
ATOM     15  C   UNL     1       0.755  11.025  19.578  0.00  0.00    +0.000 A 
ATOM     16  C   UNL     1       0.332  12.125  20.326  0.00  0.00    +0.000 A 
ATOM     17  C   UNL     1      -0.844  12.817  19.992  0.00  0.00    +0.000 A 
ATOM     18  C   UNL     1      -1.599  12.344  18.904  0.00  0.00    +0.000 A 
ATOM     19  C   UNL     1      -1.171  11.236  18.156  0.00  0.00    +0.000 A 
BRANCH  14  21
ATOM     20  C   UNL     1       1.936   9.278  18.008  0.00  0.00    +0.000 C 
ATOM     21  O   UNL     1       0.541   9.500  17.834  0.00  0.00    +0.000 OA
ENDBRANCH  14  21
ENDBRANCH   1  17
BRANCH   2  22
ATOM     22  C   UNL     1      -2.764  12.622  22.656  0.00  0.00    +0.000 C 
ATOM     23  O   UNL     1      -2.385  11.653  23.329  0.00  0.00    +0.000 OA
BRANCH  22  24
ATOM     24  C   UNL     1      -4.150  12.797  22.253  0.00  0.00    +0.000 A 
ATOM     25  C   UNL     1      -4.756  12.663  21.018  0.00  0.00    +0.000 A 
ATOM     26  C   UNL     1      -6.147  12.981  21.053  0.00  0.00    +0.000 A 
ATOM     27  C   UNL     1      -6.559  13.358  22.309  0.00  0.00    +0.000 A 
ATOM     28  S   UNL     1      -5.281  13.321  23.439  0.00  0.00    +0.000 S 
ENDBRANCH  22  24
ENDBRANCH   2  22
BRANCH   3  29
ATOM     29  O   UNL     1      -1.113  14.168  24.571  0.00  0.00    +0.000 OA
ATOM     30  H   UNL     1      -0.913  13.246  24.846  0.00  0.00    +0.000 HD
ENDBRANCH   3  29
TORSDOF 5
ENDMDL
MODEL 6
REMARK VINA RESULT:      -5.9      7.955     11.017
REMARK  Name = 
REMARK  7 active torsions:
REMARK  status: ('A' for Active; 'I' for Inactive)
REMARK    1  A    between atoms: C_1  and  O_2
REMARK    2  A    between atoms: O_2  and  C_3
REMARK    3  A    between atoms: C_6  and  C_7
REMARK    4  A    between atoms: C_8  and  C_9
REMARK    5  A    between atoms: C_9  and  C_11
REMARK    6  A    between atoms: C_16  and  O_17
REMARK    7  A    between atoms: C_25  and  C_26
REMARK                            x       y       z     vdW  Elec       q    Type
REMARK                         _______ _______ _______ _____ _____    ______ ____
ROOT
ATOM      1  C   UNL     1       7.678  15.252  19.734  0.00  0.00    +0.000 C 
ATOM      2  C   UNL     1       7.358  16.640  19.272  0.00  0.00    +0.000 C 
ATOM      3  C   UNL     1       8.379  17.194  18.592  0.00  0.00    +0.000 C 
ATOM      4  C   UNL     1       9.488  16.208  18.568  0.00  0.00    +0.000 C 
ATOM      5  O   UNL     1      10.552  16.367  17.999  0.00  0.00    +0.000 OA
ATOM      6  N   UNL     1       9.036  15.114  19.275  0.00  0.00    +0.000 N 
ATOM      7  C   UNL     1       9.713  13.897  19.333  0.00  0.00    +0.000 A 
ATOM      8  C   UNL     1      10.995  13.870  19.871  0.00  0.00    +0.000 A 
ATOM      9  C   UNL     1      11.618  12.643  20.045  0.00  0.00    +0.000 A 
ATOM     10  C   UNL     1      10.988  11.491  19.589  0.00  0.00    +0.000 A 
ATOM     11  C   UNL     1       9.725  11.601  19.015  0.00  0.00    +0.000 A 
ATOM     12  C   UNL     1       9.083  10.411  18.366  0.00  0.00    +0.000 C 
ATOM     13  N   UNL     1       9.055  12.779  18.941  0.00  0.00    +0.000 NA
ENDROOT
BRANCH   1  17
ATOM     14  C   UNL     1       7.436  14.362  23.989  0.00  0.00    +0.000 A 
ATOM     15  C   UNL     1       6.514  13.840  23.084  0.00  0.00    +0.000 A 
ATOM     16  C   UNL     1       6.597  14.147  21.725  0.00  0.00    +0.000 A 
ATOM     17  C   UNL     1       7.596  15.006  21.237  0.00  0.00    +0.000 A 
ATOM     18  C   UNL     1       8.529  15.517  22.156  0.00  0.00    +0.000 A 
ATOM     19  C   UNL     1       8.442  15.204  23.522  0.00  0.00    +0.000 A 
BRANCH  14  21
ATOM     20  C   UNL     1       6.069  13.222  25.559  0.00  0.00    +0.000 C 
ATOM     21  O   UNL     1       7.230  14.001  25.291  0.00  0.00    +0.000 OA
ENDBRANCH  14  21
ENDBRANCH   1  17
BRANCH   2  22
ATOM     22  C   UNL     1       6.127  17.416  19.547  0.00  0.00    +0.000 C 
ATOM     23  O   UNL     1       6.284  18.563  19.986  0.00  0.00    +0.000 OA
BRANCH  22  24
ATOM     24  C   UNL     1       4.810  16.843  19.315  0.00  0.00    +0.000 A 
ATOM     25  C   UNL     1       4.329  16.075  18.272  0.00  0.00    +0.000 A 
ATOM     26  C   UNL     1       2.944  15.761  18.415  0.00  0.00    +0.000 A 
ATOM     27  C   UNL     1       2.406  16.308  19.556  0.00  0.00    +0.000 A 
ATOM     28  S   UNL     1       3.564  17.185  20.451  0.00  0.00    +0.000 S 
ENDBRANCH  22  24
ENDBRANCH   2  22
BRANCH   3  29
ATOM     29  O   UNL     1       8.447  18.428  18.007  0.00  0.00    +0.000 OA
ATOM     30  H   UNL     1       9.069  18.977  18.532  0.00  0.00    +0.000 HD
ENDBRANCH   3  29
TORSDOF 5
ENDMDL
MODEL 7
REMARK VINA RESULT:      -5.9      3.168      4.101
REMARK  Name = 
REMARK  7 active torsions:
REMARK  status: ('A' for Active; 'I' for Inactive)
REMARK    1  A    between atoms: C_1  and  O_2
REMARK    2  A    between atoms: O_2  and  C_3
REMARK    3  A    between atoms: C_6  and  C_7
REMARK    4  A    between atoms: C_8  and  C_9
REMARK    5  A    between atoms: C_9  and  C_11
REMARK    6  A    between atoms: C_16  and  O_17
REMARK    7  A    between atoms: C_25  and  C_26
REMARK                            x       y       z     vdW  Elec       q    Type
REMARK                         _______ _______ _______ _____ _____    ______ ____
ROOT
ATOM      1  C   UNL     1      -0.906  12.571  19.345  0.00  0.00    +0.000 C 
ATOM      2  C   UNL     1      -2.379  12.679  19.599  0.00  0.00    +0.000 C 
ATOM      3  C   UNL     1      -2.674  13.690  20.435  0.00  0.00    +0.000 C 
ATOM      4  C   UNL     1      -1.396  14.334  20.830  0.00  0.00    +0.000 C 
ATOM      5  O   UNL     1      -1.299  15.311  21.548  0.00  0.00    +0.000 OA
ATOM      6  N   UNL     1      -0.402  13.621  20.193  0.00  0.00    +0.000 N 
ATOM      7  C   UNL     1       0.934  14.017  20.160  0.00  0.00    +0.000 A 
ATOM      8  C   UNL     1       1.623  14.142  21.361  0.00  0.00    +0.000 A 
ATOM      9  C   UNL     1       2.983  14.412  21.323  0.00  0.00    +0.000 A 
ATOM     10  C   UNL     1       3.595  14.644  20.096  0.00  0.00    +0.000 A 
ATOM     11  C   UNL     1       2.830  14.550  18.938  0.00  0.00    +0.000 A 
ATOM     12  C   UNL     1       3.409  14.951  17.614  0.00  0.00    +0.000 C 
ATOM     13  N   UNL     1       1.525  14.176  18.951  0.00  0.00    +0.000 NA
ENDROOT
BRANCH   1  17
ATOM     14  C   UNL     1       1.120   8.842  20.316  0.00  0.00    +0.000 A 
ATOM     15  C   UNL     1       1.301   9.468  19.084  0.00  0.00    +0.000 A 
ATOM     16  C   UNL     1       0.632  10.656  18.783  0.00  0.00    +0.000 A 
ATOM     17  C   UNL     1      -0.256  11.239  19.702  0.00  0.00    +0.000 A 
ATOM     18  C   UNL     1      -0.422  10.607  20.947  0.00  0.00    +0.000 A 
ATOM     19  C   UNL     1       0.254   9.413  21.246  0.00  0.00    +0.000 A 
BRANCH  14  21
ATOM     20  C   UNL     1       2.371   7.102  19.298  0.00  0.00    +0.000 C 
ATOM     21  O   UNL     1       1.815   7.676  20.475  0.00  0.00    +0.000 OA
ENDBRANCH  14  21
ENDBRANCH   1  17
BRANCH   2  22
ATOM     22  C   UNL     1      -3.443  11.781  19.095  0.00  0.00    +0.000 C 
ATOM     23  O   UNL     1      -4.423  11.618  19.835  0.00  0.00    +0.000 OA
BRANCH  22  24
ATOM     24  C   UNL     1      -3.326  11.127  17.801  0.00  0.00    +0.000 A 
ATOM     25  C   UNL     1      -2.426  10.184  17.343  0.00  0.00    +0.000 A 
ATOM     26  C   UNL     1      -2.638   9.843  15.973  0.00  0.00    +0.000 A 
ATOM     27  C   UNL     1      -3.685  10.545  15.423  0.00  0.00    +0.000 A 
ATOM     28  S   UNL     1      -4.411  11.598  16.552  0.00  0.00    +0.000 S 
ENDBRANCH  22  24
ENDBRANCH   2  22
BRANCH   3  29
ATOM     29  O   UNL     1      -3.900  14.103  20.879  0.00  0.00    +0.000 OA
ATOM     30  H   UNL     1      -4.435  13.303  21.074  0.00  0.00    +0.000 HD
ENDBRANCH   3  29
TORSDOF 5
ENDMDL
MODEL 8
REMARK VINA RESULT:      -5.9      7.897     10.986
REMARK  Name = 
REMARK  7 active torsions:
REMARK  status: ('A' for Active; 'I' for Inactive)
REMARK    1  A    between atoms: C_1  and  O_2
REMARK    2  A    between atoms: O_2  and  C_3
REMARK    3  A    between atoms: C_6  and  C_7
REMARK    4  A    between atoms: C_8  and  C_9
REMARK    5  A    between atoms: C_9  and  C_11
REMARK    6  A    between atoms: C_16  and  O_17
REMARK    7  A    between atoms: C_25  and  C_26
REMARK                            x       y       z     vdW  Elec       q    Type
REMARK                         _______ _______ _______ _____ _____    ______ ____
ROOT
ATOM      1  C   UNL     1       7.541  15.232  19.756  0.00  0.00    +0.000 C 
ATOM      2  C   UNL     1       7.197  16.618  19.302  0.00  0.00    +0.000 C 
ATOM      3  C   UNL     1       8.207  17.194  18.626  0.00  0.00    +0.000 C 
ATOM      4  C   UNL     1       9.334  16.228  18.596  0.00  0.00    +0.000 C 
ATOM      5  O   UNL     1      10.395  16.409  18.028  0.00  0.00    +0.000 OA
ATOM      6  N   UNL     1       8.902  15.121  19.296  0.00  0.00    +0.000 N 
ATOM      7  C   UNL     1       9.600  13.916  19.345  0.00  0.00    +0.000 A 
ATOM      8  C   UNL     1      10.882  13.908  19.884  0.00  0.00    +0.000 A 
ATOM      9  C   UNL     1      11.527  12.691  20.049  0.00  0.00    +0.000 A 
ATOM     10  C   UNL     1      10.917  11.531  19.586  0.00  0.00    +0.000 A 
ATOM     11  C   UNL     1       9.652  11.622  19.013  0.00  0.00    +0.000 A 
ATOM     12  C   UNL     1       9.031  10.426  18.356  0.00  0.00    +0.000 C 
ATOM     13  N   UNL     1       8.961  12.789  18.946  0.00  0.00    +0.000 NA
ENDROOT
BRANCH   1  17
ATOM     14  C   UNL     1       7.297  14.688  24.068  0.00  0.00    +0.000 A 
ATOM     15  C   UNL     1       8.181  15.604  23.500  0.00  0.00    +0.000 A 
ATOM     16  C   UNL     1       8.257  15.756  22.115  0.00  0.00    +0.000 A 
ATOM     17  C   UNL     1       7.464  14.976  21.257  0.00  0.00    +0.000 A 
ATOM     18  C   UNL     1       6.566  14.064  21.839  0.00  0.00    +0.000 A 
ATOM     19  C   UNL     1       6.492  13.916  23.234  0.00  0.00    +0.000 A 
BRANCH  14  21
ATOM     20  C   UNL     1       8.554  14.168  26.012  0.00  0.00    +0.000 C 
ATOM     21  O   UNL     1       7.337  14.622  25.433  0.00  0.00    +0.000 OA
ENDBRANCH  14  21
ENDBRANCH   1  17
BRANCH   2  22
ATOM     22  C   UNL     1       5.952  17.370  19.583  0.00  0.00    +0.000 C 
ATOM     23  O   UNL     1       6.089  18.525  20.006  0.00  0.00    +0.000 OA
BRANCH  22  24
ATOM     24  C   UNL     1       4.646  16.766  19.372  0.00  0.00    +0.000 A 
ATOM     25  C   UNL     1       3.962  16.474  18.207  0.00  0.00    +0.000 A 
ATOM     26  C   UNL     1       2.668  15.924  18.454  0.00  0.00    +0.000 A 
ATOM     27  C   UNL     1       2.398  15.823  19.799  0.00  0.00    +0.000 A 
ATOM     28  S   UNL     1       3.698  16.379  20.755  0.00  0.00    +0.000 S 
ENDBRANCH  22  24
ENDBRANCH   2  22
BRANCH   3  29
ATOM     29  O   UNL     1       8.254  18.432  18.049  0.00  0.00    +0.000 OA
ATOM     30  H   UNL     1       7.359  18.639  17.704  0.00  0.00    +0.000 HD
ENDBRANCH   3  29
TORSDOF 5
ENDMDL
MODEL 9
REMARK VINA RESULT:      -5.9      1.442      1.696
REMARK  Name = 
REMARK  7 active torsions:
REMARK  status: ('A' for Active; 'I' for Inactive)
REMARK    1  A    between atoms: C_1  and  O_2
REMARK    2  A    between atoms: O_2  and  C_3
REMARK    3  A    between atoms: C_6  and  C_7
REMARK    4  A    between atoms: C_8  and  C_9
REMARK    5  A    between atoms: C_9  and  C_11
REMARK    6  A    between atoms: C_16  and  O_17
REMARK    7  A    between atoms: C_25  and  C_26
REMARK                            x       y       z     vdW  Elec       q    Type
REMARK                         _______ _______ _______ _____ _____    ______ ____
ROOT
ATOM      1  C   UNL     1      -1.687  13.910  21.136  0.00  0.00    +0.000 C 
ATOM      2  C   UNL     1      -2.285  13.623  22.479  0.00  0.00    +0.000 C 
ATOM      3  C   UNL     1      -1.660  14.293  23.464  0.00  0.00    +0.000 C 
ATOM      4  C   UNL     1      -0.560  15.076  22.846  0.00  0.00    +0.000 C 
ATOM      5  O   UNL     1       0.183  15.830  23.445  0.00  0.00    +0.000 OA
ATOM      6  N   UNL     1      -0.604  14.787  21.498  0.00  0.00    +0.000 N 
ATOM      7  C   UNL     1       0.151  15.461  20.538  0.00  0.00    +0.000 A 
ATOM      8  C   UNL     1       1.538  15.418  20.629  0.00  0.00    +0.000 A 
ATOM      9  C   UNL     1       2.289  15.980  19.606  0.00  0.00    +0.000 A 
ATOM     10  C   UNL     1       1.639  16.649  18.576  0.00  0.00    +0.000 A 
ATOM     11  C   UNL     1       0.249  16.694  18.578  0.00  0.00    +0.000 A 
ATOM     12  C   UNL     1      -0.483  17.541  17.580  0.00  0.00    +0.000 C 
ATOM     13  N   UNL     1      -0.503  16.054  19.510  0.00  0.00    +0.000 NA
ENDROOT
BRANCH   1  17
ATOM     14  C   UNL     1      -0.147  10.591  18.777  0.00  0.00    +0.000 A 
ATOM     15  C   UNL     1      -1.112  11.458  18.268  0.00  0.00    +0.000 A 
ATOM     16  C   UNL     1      -1.606  12.508  19.043  0.00  0.00    +0.000 A 
ATOM     17  C   UNL     1      -1.161  12.706  20.361  0.00  0.00    +0.000 A 
ATOM     18  C   UNL     1      -0.178  11.834  20.861  0.00  0.00    +0.000 A 
ATOM     19  C   UNL     1       0.317  10.780  20.077  0.00  0.00    +0.000 A 
BRANCH  14  21
ATOM     20  C   UNL     1       1.620   9.263  17.913  0.00  0.00    +0.000 C 
ATOM     21  O   UNL     1       0.236   9.593  17.925  0.00  0.00    +0.000 OA
ENDBRANCH  14  21
ENDBRANCH   1  17
BRANCH   2  22
ATOM     22  C   UNL     1      -3.380  12.675  22.789  0.00  0.00    +0.000 C 
ATOM     23  O   UNL     1      -3.132  11.802  23.631  0.00  0.00    +0.000 OA
BRANCH  22  24
ATOM     24  C   UNL     1      -4.671  12.776  22.125  0.00  0.00    +0.000 A 
ATOM     25  C   UNL     1      -5.022  12.606  20.800  0.00  0.00    +0.000 A 
ATOM     26  C   UNL     1      -6.408  12.850  20.564  0.00  0.00    +0.000 A 
ATOM     27  C   UNL     1      -7.072  13.210  21.713  0.00  0.00    +0.000 A 
ATOM     28  S   UNL     1      -6.033  13.245  23.067  0.00  0.00    +0.000 S 
ENDBRANCH  22  24
ENDBRANCH   2  22
BRANCH   3  29
ATOM     29  O   UNL     1      -1.934  14.298  24.804  0.00  0.00    +0.000 OA
ATOM     30  H   UNL     1      -2.475  15.094  24.998  0.00  0.00    +0.000 HD
ENDBRANCH   3  29
TORSDOF 5
ENDMDL
