MODEL 1
REMARK VINA RESULT:      -7.8      0.000      0.000
REMARK  Name = 
REMARK  4 active torsions:
REMARK  status: ('A' for Active; 'I' for Inactive)
REMARK    1  A    between atoms: C_1  and  C_2
REMARK    2  A    between atoms: C_2  and  C_3
REMARK    3  A    between atoms: N_10  and  C_11
REMARK    4  A    between atoms: C_11  and  C_12
REMARK                            x       y       z     vdW  Elec       q    Type
REMARK                         _______ _______ _______ _____ _____    ______ ____
ROOT
ATOM      1  C   UNL     1       1.604   3.748  17.792  0.00  0.00    +0.000 C 
ATOM      2  C   UNL     1       2.469   4.306  18.940  0.00  0.00    +0.000 C 
ATOM      3  C   UNL     1       2.570   5.837  18.804  0.00  0.00    +0.000 C 
ATOM      4  N   UNL     1       1.683   4.088  20.150  0.00  0.00    +0.000 NA
ATOM      5  C   UNL     1       2.071   3.179  20.967  0.00  0.00    +0.000 C 
ATOM      6  N   UNL     1       1.323   2.938  22.070  0.00  0.00    +0.000 N 
ATOM      7  N   UNL     1       3.169   2.402  20.810  0.00  0.00    +0.000 NA
ATOM      8  C   UNL     1       3.980   2.700  19.854  0.00  0.00    +0.000 C 
ATOM      9  N   UNL     1       5.120   1.971  19.757  0.00  0.00    +0.000 N 
ATOM     10  N   UNL     1       3.797   3.689  18.939  0.00  0.00    +0.000 N 
ATOM     11  H   UNL     1       0.365   3.239  21.946  0.00  0.00    +0.000 HD
ATOM     12  H   UNL     1       1.426   1.988  22.395  0.00  0.00    +0.000 HD
ATOM     13  H   UNL     1       5.186   1.345  20.556  0.00  0.00    +0.000 HD
ATOM     14  H   UNL     1       5.951   2.546  19.708  0.00  0.00    +0.000 HD
ENDROOT
BRANCH  10  15
ATOM     15  C   UNL     1       4.683   3.907  17.791  0.00  0.00    +0.000 C 
BRANCH  15  16
ATOM     16  C   UNL     1       5.644   5.075  17.965  0.00  0.00    +0.000 A 
ATOM     17  C   UNL     1       5.627   6.211  17.140  0.00  0.00    +0.000 A 
ATOM     18  C   UNL     1       6.626   7.183  17.245  0.00  0.00    +0.000 A 
ATOM     19  C   UNL     1       7.620   7.045  18.203  0.00  0.00    +0.000 A 
ATOM     20  F   UNL     1       8.597   7.957  18.277  0.00  0.00    +0.000 F 
ATOM     21  C   UNL     1       7.621   5.966  19.078  0.00  0.00    +0.000 A 
ATOM     22  C   UNL     1       6.633   4.986  18.963  0.00  0.00    +0.000 A 
ENDBRANCH  15  16
ENDBRANCH  10  15
TORSDOF 2
ENDMDL
MODEL 2
REMARK VINA RESULT:      -7.8      0.264      1.167
REMARK  Name = 
REMARK  4 active torsions:
REMARK  status: ('A' for Active; 'I' for Inactive)
REMARK    1  A    between atoms: C_1  and  C_2
REMARK    2  A    between atoms: C_2  and  C_3
REMARK    3  A    between atoms: N_10  and  C_11
REMARK    4  A    between atoms: C_11  and  C_12
REMARK                            x       y       z     vdW  Elec       q    Type
REMARK                         _______ _______ _______ _____ _____    ______ ____
ROOT
ATOM      1  C   UNL     1       1.572   4.132  17.858  0.00  0.00    +0.000 C 
ATOM      2  C   UNL     1       2.548   4.565  18.971  0.00  0.00    +0.000 C 
ATOM      3  C   UNL     1       2.754   6.090  18.902  0.00  0.00    +0.000 C 
ATOM      4  N   UNL     1       1.825   4.340  20.219  0.00  0.00    +0.000 NA
ATOM      5  C   UNL     1       2.194   3.364  20.963  0.00  0.00    +0.000 C 
ATOM      6  N   UNL     1       1.501   3.119  22.102  0.00  0.00    +0.000 N 
ATOM      7  N   UNL     1       3.219   2.520  20.697  0.00  0.00    +0.000 NA
ATOM      8  C   UNL     1       3.989   2.809  19.704  0.00  0.00    +0.000 C 
ATOM      9  N   UNL     1       5.062   2.007  19.497  0.00  0.00    +0.000 N 
ATOM     10  N   UNL     1       3.823   3.855  18.851  0.00  0.00    +0.000 N 
ATOM     11  H   UNL     1       0.562   3.494  22.056  0.00  0.00    +0.000 HD
ATOM     12  H   UNL     1       1.553   2.149  22.373  0.00  0.00    +0.000 HD
ATOM     13  H   UNL     1       5.131   1.335  20.258  0.00  0.00    +0.000 HD
ATOM     14  H   UNL     1       5.929   2.522  19.420  0.00  0.00    +0.000 HD
ENDROOT
BRANCH  10  15
ATOM     15  C   UNL     1       4.648   4.070  17.659  0.00  0.00    +0.000 C 
BRANCH  15  16
ATOM     16  C   UNL     1       5.820   5.017  17.881  0.00  0.00    +0.000 A 
ATOM     17  C   UNL     1       6.753   4.852  18.917  0.00  0.00    +0.000 A 
ATOM     18  C   UNL     1       7.717   5.831  19.170  0.00  0.00    +0.000 A 
ATOM     19  C   UNL     1       7.780   6.957  18.362  0.00  0.00    +0.000 A 
ATOM     20  F   UNL     1       8.680   7.913  18.628  0.00  0.00    +0.000 F 
ATOM     21  C   UNL     1       6.914   7.113  17.288  0.00  0.00    +0.000 A 
ATOM     22  C   UNL     1       5.939   6.143  17.044  0.00  0.00    +0.000 A 
ENDBRANCH  15  16
ENDBRANCH  10  15
TORSDOF 2
ENDMDL
MODEL 3
REMARK VINA RESULT:      -7.5      3.345      5.619
REMARK  Name = 
REMARK  4 active torsions:
REMARK  status: ('A' for Active; 'I' for Inactive)
REMARK    1  A    between atoms: C_1  and  C_2
REMARK    2  A    between atoms: C_2  and  C_3
REMARK    3  A    between atoms: N_10  and  C_11
REMARK    4  A    between atoms: C_11  and  C_12
REMARK                            x       y       z     vdW  Elec       q    Type
REMARK                         _______ _______ _______ _____ _____    ______ ____
ROOT
ATOM      1  C   UNL     1       4.967   6.593  16.155  0.00  0.00    +0.000 C 
ATOM      2  C   UNL     1       6.167   5.651  16.384  0.00  0.00    +0.000 C 
ATOM      3  C   UNL     1       6.758   5.238  15.023  0.00  0.00    +0.000 C 
ATOM      4  N   UNL     1       7.193   6.487  17.001  0.00  0.00    +0.000 NA
ATOM      5  C   UNL     1       7.453   6.306  18.243  0.00  0.00    +0.000 C 
ATOM      6  N   UNL     1       8.371   7.107  18.836  0.00  0.00    +0.000 N 
ATOM      7  N   UNL     1       6.860   5.387  19.042  0.00  0.00    +0.000 NA
ATOM      8  C   UNL     1       6.092   4.516  18.483  0.00  0.00    +0.000 C 
ATOM      9  N   UNL     1       5.571   3.547  19.276  0.00  0.00    +0.000 N 
ATOM     10  N   UNL     1       5.766   4.478  17.163  0.00  0.00    +0.000 N 
ATOM     11  H   UNL     1       8.482   7.981  18.339  0.00  0.00    +0.000 HD
ATOM     12  H   UNL     1       8.202   7.205  19.826  0.00  0.00    +0.000 HD
ATOM     13  H   UNL     1       5.974   3.624  20.208  0.00  0.00    +0.000 HD
ATOM     14  H   UNL     1       5.729   2.615  18.915  0.00  0.00    +0.000 HD
ENDROOT
BRANCH  10  15
ATOM     15  C   UNL     1       4.787   3.546  16.595  0.00  0.00    +0.000 C 
BRANCH  15  16
ATOM     16  C   UNL     1       3.481   3.471  17.375  0.00  0.00    +0.000 A 
ATOM     17  C   UNL     1       2.740   4.607  17.739  0.00  0.00    +0.000 A 
ATOM     18  C   UNL     1       1.632   4.494  18.583  0.00  0.00    +0.000 A 
ATOM     19  C   UNL     1       1.236   3.242  19.032  0.00  0.00    +0.000 A 
ATOM     20  F   UNL     1       0.197   3.138  19.871  0.00  0.00    +0.000 F 
ATOM     21  C   UNL     1       1.910   2.096  18.631  0.00  0.00    +0.000 A 
ATOM     22  C   UNL     1       3.027   2.209  17.801  0.00  0.00    +0.000 A 
ENDBRANCH  15  16
ENDBRANCH  10  15
TORSDOF 2
ENDMDL
MODEL 4
REMARK VINA RESULT:      -7.4      3.245      5.527
REMARK  Name = 
REMARK  4 active torsions:
REMARK  status: ('A' for Active; 'I' for Inactive)
REMARK    1  A    between atoms: C_1  and  C_2
REMARK    2  A    between atoms: C_2  and  C_3
REMARK    3  A    between atoms: N_10  and  C_11
REMARK    4  A    between atoms: C_11  and  C_12
REMARK                            x       y       z     vdW  Elec       q    Type
REMARK                         _______ _______ _______ _____ _____    ______ ____
ROOT
ATOM      1  C   UNL     1       4.116   7.075  17.462  0.00  0.00    +0.000 C 
ATOM      2  C   UNL     1       5.246   6.144  16.979  0.00  0.00    +0.000 C 
ATOM      3  C   UNL     1       5.304   6.168  15.440  0.00  0.00    +0.000 C 
ATOM      4  N   UNL     1       6.482   6.790  17.411  0.00  0.00    +0.000 NA
ATOM      5  C   UNL     1       7.135   6.259  18.378  0.00  0.00    +0.000 C 
ATOM      6  N   UNL     1       8.259   6.876  18.816  0.00  0.00    +0.000 N 
ATOM      7  N   UNL     1       6.782   5.128  19.034  0.00  0.00    +0.000 NA
ATOM      8  C   UNL     1       5.805   4.438  18.553  0.00  0.00    +0.000 C 
ATOM      9  N   UNL     1       5.514   3.264  19.165  0.00  0.00    +0.000 N 
ATOM     10  N   UNL     1       5.047   4.781  17.478  0.00  0.00    +0.000 N 
ATOM     11  H   UNL     1       8.260   7.861  18.584  0.00  0.00    +0.000 HD
ATOM     12  H   UNL     1       8.446   6.673  19.786  0.00  0.00    +0.000 HD
ATOM     13  H   UNL     1       6.215   3.074  19.878  0.00  0.00    +0.000 HD
ATOM     14  H   UNL     1       5.468   2.485  18.521  0.00  0.00    +0.000 HD
ENDROOT
BRANCH  10  15
ATOM     15  C   UNL     1       3.864   4.031  17.045  0.00  0.00    +0.000 C 
BRANCH  15  16
ATOM     16  C   UNL     1       2.875   3.737  18.165  0.00  0.00    +0.000 A 
ATOM     17  C   UNL     1       2.356   4.731  19.009  0.00  0.00    +0.000 A 
ATOM     18  C   UNL     1       1.573   4.390  20.115  0.00  0.00    +0.000 A 
ATOM     19  C   UNL     1       1.270   3.058  20.356  0.00  0.00    +0.000 A 
ATOM     20  F   UNL     1       0.551   2.728  21.437  0.00  0.00    +0.000 F 
ATOM     21  C   UNL     1       1.713   2.060  19.498  0.00  0.00    +0.000 A 
ATOM     22  C   UNL     1       2.510   2.398  18.402  0.00  0.00    +0.000 A 
ENDBRANCH  15  16
ENDBRANCH  10  15
TORSDOF 2
ENDMDL
MODEL 5
REMARK VINA RESULT:      -7.3      3.416      5.777
REMARK  Name = 
REMARK  4 active torsions:
REMARK  status: ('A' for Active; 'I' for Inactive)
REMARK    1  A    between atoms: C_1  and  C_2
REMARK    2  A    between atoms: C_2  and  C_3
REMARK    3  A    between atoms: N_10  and  C_11
REMARK    4  A    between atoms: C_11  and  C_12
REMARK                            x       y       z     vdW  Elec       q    Type
REMARK                         _______ _______ _______ _____ _____    ______ ____
ROOT
ATOM      1  C   UNL     1       5.082   6.556  16.030  0.00  0.00    +0.000 C 
ATOM      2  C   UNL     1       6.280   5.632  16.325  0.00  0.00    +0.000 C 
ATOM      3  C   UNL     1       6.916   5.182  14.996  0.00  0.00    +0.000 C 
ATOM      4  N   UNL     1       7.281   6.494  16.947  0.00  0.00    +0.000 NA
ATOM      5  C   UNL     1       7.503   6.353  18.202  0.00  0.00    +0.000 C 
ATOM      6  N   UNL     1       8.397   7.179  18.798  0.00  0.00    +0.000 N 
ATOM      7  N   UNL     1       6.892   5.453  19.009  0.00  0.00    +0.000 NA
ATOM      8  C   UNL     1       6.149   4.559  18.454  0.00  0.00    +0.000 C 
ATOM      9  N   UNL     1       5.610   3.611  19.260  0.00  0.00    +0.000 N 
ATOM     10  N   UNL     1       5.865   4.479  17.126  0.00  0.00    +0.000 N 
ATOM     11  H   UNL     1       8.517   8.038  18.278  0.00  0.00    +0.000 HD
ATOM     12  H   UNL     1       8.197   7.305  19.778  0.00  0.00    +0.000 HD
ATOM     13  H   UNL     1       5.983   3.719  20.200  0.00  0.00    +0.000 HD
ATOM     14  H   UNL     1       5.787   2.670  18.932  0.00  0.00    +0.000 HD
ENDROOT
BRANCH  10  15
ATOM     15  C   UNL     1       4.910   3.523  16.557  0.00  0.00    +0.000 C 
BRANCH  15  16
ATOM     16  C   UNL     1       3.665   3.311  17.408  0.00  0.00    +0.000 A 
ATOM     17  C   UNL     1       3.338   2.077  17.992  0.00  0.00    +0.000 A 
ATOM     18  C   UNL     1       2.110   1.896  18.634  0.00  0.00    +0.000 A 
ATOM     19  C   UNL     1       1.224   2.959  18.732  0.00  0.00    +0.000 A 
ATOM     20  F   UNL     1       0.032   2.775  19.315  0.00  0.00    +0.000 F 
ATOM     21  C   UNL     1       1.551   4.209  18.224  0.00  0.00    +0.000 A 
ATOM     22  C   UNL     1       2.771   4.386  17.567  0.00  0.00    +0.000 A 
ENDBRANCH  15  16
ENDBRANCH  10  15
TORSDOF 2
ENDMDL
MODEL 6
REMARK VINA RESULT:      -7.3      2.909      4.493
REMARK  Name = 
REMARK  4 active torsions:
REMARK  status: ('A' for Active; 'I' for Inactive)
REMARK    1  A    between atoms: C_1  and  C_2
REMARK    2  A    between atoms: C_2  and  C_3
REMARK    3  A    between atoms: N_10  and  C_11
REMARK    4  A    between atoms: C_11  and  C_12
REMARK                            x       y       z     vdW  Elec       q    Type
REMARK                         _______ _______ _______ _____ _____    ______ ____
ROOT
ATOM      1  C   UNL     1       2.608   3.069  17.099  0.00  0.00    +0.000 C 
ATOM      2  C   UNL     1       2.761   3.694  18.501  0.00  0.00    +0.000 C 
ATOM      3  C   UNL     1       1.365   3.962  19.094  0.00  0.00    +0.000 C 
ATOM      4  N   UNL     1       3.323   2.633  19.331  0.00  0.00    +0.000 NA
ATOM      5  C   UNL     1       4.547   2.737  19.697  0.00  0.00    +0.000 C 
ATOM      6  N   UNL     1       5.092   1.736  20.430  0.00  0.00    +0.000 N 
ATOM      7  N   UNL     1       5.372   3.766  19.389  0.00  0.00    +0.000 NA
ATOM      8  C   UNL     1       4.852   4.800  18.822  0.00  0.00    +0.000 C 
ATOM      9  N   UNL     1       5.667   5.860  18.595  0.00  0.00    +0.000 N 
ATOM     10  N   UNL     1       3.553   4.924  18.439  0.00  0.00    +0.000 N 
ATOM     11  H   UNL     1       4.596   0.864  20.299  0.00  0.00    +0.000 HD
ATOM     12  H   UNL     1       6.090   1.674  20.300  0.00  0.00    +0.000 HD
ATOM     13  H   UNL     1       6.574   5.682  19.020  0.00  0.00    +0.000 HD
ATOM     14  H   UNL     1       5.290   6.729  18.951  0.00  0.00    +0.000 HD
ENDROOT
BRANCH  10  15
ATOM     15  C   UNL     1       3.036   6.066  17.680  0.00  0.00    +0.000 C 
BRANCH  15  16
ATOM     16  C   UNL     1       2.456   7.174  18.549  0.00  0.00    +0.000 A 
ATOM     17  C   UNL     1       2.253   7.036  19.932  0.00  0.00    +0.000 A 
ATOM     18  C   UNL     1       1.579   8.023  20.655  0.00  0.00    +0.000 A 
ATOM     19  C   UNL     1       1.142   9.170  20.008  0.00  0.00    +0.000 A 
ATOM     20  F   UNL     1       0.463  10.098  20.694  0.00  0.00    +0.000 F 
ATOM     21  C   UNL     1       1.390   9.363  18.655  0.00  0.00    +0.000 A 
ATOM     22  C   UNL     1       2.049   8.370  17.928  0.00  0.00    +0.000 A 
ENDBRANCH  15  16
ENDBRANCH  10  15
TORSDOF 2
ENDMDL
MODEL 7
REMARK VINA RESULT:      -7.1      1.126      1.444
REMARK  Name = 
REMARK  4 active torsions:
REMARK  status: ('A' for Active; 'I' for Inactive)
REMARK    1  A    between atoms: C_1  and  C_2
REMARK    2  A    between atoms: C_2  and  C_3
REMARK    3  A    between atoms: N_10  and  C_11
REMARK    4  A    between atoms: C_11  and  C_12
REMARK                            x       y       z     vdW  Elec       q    Type
REMARK                         _______ _______ _______ _____ _____    ______ ____
ROOT
ATOM      1  C   UNL     1       1.071   2.431  18.086  0.00  0.00    +0.000 C 
ATOM      2  C   UNL     1       1.885   3.524  18.807  0.00  0.00    +0.000 C 
ATOM      3  C   UNL     1       1.509   4.903  18.233  0.00  0.00    +0.000 C 
ATOM      4  N   UNL     1       1.378   3.536  20.176  0.00  0.00    +0.000 NA
ATOM      5  C   UNL     1       2.129   3.066  21.102  0.00  0.00    +0.000 C 
ATOM      6  N   UNL     1       1.649   3.031  22.369  0.00  0.00    +0.000 N 
ATOM      7  N   UNL     1       3.374   2.565  20.923  0.00  0.00    +0.000 NA
ATOM      8  C   UNL     1       3.917   2.715  19.764  0.00  0.00    +0.000 C 
ATOM      9  N   UNL     1       5.196   2.287  19.618  0.00  0.00    +0.000 N 
ATOM     10  N   UNL     1       3.323   3.274  18.677  0.00  0.00    +0.000 N 
ATOM     11  H   UNL     1       0.637   3.038  22.387  0.00  0.00    +0.000 HD
ATOM     12  H   UNL     1       2.073   2.295  22.912  0.00  0.00    +0.000 HD
ATOM     13  H   UNL     1       5.557   1.992  20.523  0.00  0.00    +0.000 HD
ATOM     14  H   UNL     1       5.804   2.993  19.224  0.00  0.00    +0.000 HD
ENDROOT
BRANCH  10  15
ATOM     15  C   UNL     1       3.933   3.306  17.344  0.00  0.00    +0.000 C 
BRANCH  15  16
ATOM     16  C   UNL     1       4.982   4.396  17.170  0.00  0.00    +0.000 A 
ATOM     17  C   UNL     1       6.308   4.130  16.795  0.00  0.00    +0.000 A 
ATOM     18  C   UNL     1       7.267   5.146  16.798  0.00  0.00    +0.000 A 
ATOM     19  C   UNL     1       6.895   6.439  17.135  0.00  0.00    +0.000 A 
ATOM     20  F   UNL     1       7.822   7.405  17.175  0.00  0.00    +0.000 F 
ATOM     21  C   UNL     1       5.576   6.744  17.444  0.00  0.00    +0.000 A 
ATOM     22  C   UNL     1       4.620   5.726  17.457  0.00  0.00    +0.000 A 
ENDBRANCH  15  16
ENDBRANCH  10  15
TORSDOF 2
ENDMDL
MODEL 8
REMARK VINA RESULT:      -7.0      2.155      2.994
REMARK  Name = 
REMARK  4 active torsions:
REMARK  status: ('A' for Active; 'I' for Inactive)
REMARK    1  A    between atoms: C_1  and  C_2
REMARK    2  A    between atoms: C_2  and  C_3
REMARK    3  A    between atoms: N_10  and  C_11
REMARK    4  A    between atoms: C_11  and  C_12
REMARK                            x       y       z     vdW  Elec       q    Type
REMARK                         _______ _______ _______ _____ _____    ______ ____
ROOT
ATOM      1  C   UNL     1       4.356   2.200  20.406  0.00  0.00    +0.000 C 
ATOM      2  C   UNL     1       3.653   2.910  19.232  0.00  0.00    +0.000 C 
ATOM      3  C   UNL     1       4.154   2.316  17.902  0.00  0.00    +0.000 C 
ATOM      4  N   UNL     1       2.255   2.502  19.322  0.00  0.00    +0.000 NA
ATOM      5  C   UNL     1       1.396   3.371  19.710  0.00  0.00    +0.000 C 
ATOM      6  N   UNL     1       0.102   2.989  19.840  0.00  0.00    +0.000 N 
ATOM      7  N   UNL     1       1.673   4.656  20.035  0.00  0.00    +0.000 NA
ATOM      8  C   UNL     1       2.859   5.093  19.784  0.00  0.00    +0.000 C 
ATOM      9  N   UNL     1       3.103   6.403  20.033  0.00  0.00    +0.000 N 
ATOM     10  N   UNL     1       3.886   4.356  19.283  0.00  0.00    +0.000 N 
ATOM     11  H   UNL     1       0.018   1.989  19.969  0.00  0.00    +0.000 HD
ATOM     12  H   UNL     1      -0.387   3.544  20.526  0.00  0.00    +0.000 HD
ATOM     13  H   UNL     1       2.234   6.862  20.298  0.00  0.00    +0.000 HD
ATOM     14  H   UNL     1       3.511   6.885  19.241  0.00  0.00    +0.000 HD
ENDROOT
BRANCH  10  15
ATOM     15  C   UNL     1       5.253   4.862  19.136  0.00  0.00    +0.000 C 
BRANCH  15  16
ATOM     16  C   UNL     1       5.691   5.051  17.690  0.00  0.00    +0.000 A 
ATOM     17  C   UNL     1       4.869   5.632  16.711  0.00  0.00    +0.000 A 
ATOM     18  C   UNL     1       5.259   5.642  15.369  0.00  0.00    +0.000 A 
ATOM     19  C   UNL     1       6.488   5.111  15.007  0.00  0.00    +0.000 A 
ATOM     20  F   UNL     1       6.844   5.088  13.716  0.00  0.00    +0.000 F 
ATOM     21  C   UNL     1       7.350   4.593  15.964  0.00  0.00    +0.000 A 
ATOM     22  C   UNL     1       6.955   4.567  17.304  0.00  0.00    +0.000 A 
ENDBRANCH  15  16
ENDBRANCH  10  15
TORSDOF 2
ENDMDL
MODEL 9
REMARK VINA RESULT:      -7.0      3.401      5.624
REMARK  Name = 
REMARK  4 active torsions:
REMARK  status: ('A' for Active; 'I' for Inactive)
REMARK    1  A    between atoms: C_1  and  C_2
REMARK    2  A    between atoms: C_2  and  C_3
REMARK    3  A    between atoms: N_10  and  C_11
REMARK    4  A    between atoms: C_11  and  C_12
REMARK                            x       y       z     vdW  Elec       q    Type
REMARK                         _______ _______ _______ _____ _____    ______ ____
ROOT
ATOM      1  C   UNL     1       7.803   4.758  17.946  0.00  0.00    +0.000 C 
ATOM      2  C   UNL     1       6.835   5.602  17.093  0.00  0.00    +0.000 C 
ATOM      3  C   UNL     1       7.024   7.093  17.430  0.00  0.00    +0.000 C 
ATOM      4  N   UNL     1       7.317   5.464  15.722  0.00  0.00    +0.000 NA
ATOM      5  C   UNL     1       6.627   4.755  14.907  0.00  0.00    +0.000 C 
ATOM      6  N   UNL     1       7.089   4.583  13.645  0.00  0.00    +0.000 N 
ATOM      7  N   UNL     1       5.466   4.125  15.206  0.00  0.00    +0.000 NA
ATOM      8  C   UNL     1       4.922   4.383  16.346  0.00  0.00    +0.000 C 
ATOM      9  N   UNL     1       3.718   3.816  16.603  0.00  0.00    +0.000 N 
ATOM     10  N   UNL     1       5.448   5.184  17.311  0.00  0.00    +0.000 N 
ATOM     11  H   UNL     1       8.090   4.724  13.591  0.00  0.00    +0.000 HD
ATOM     12  H   UNL     1       6.764   3.719  13.239  0.00  0.00    +0.000 HD
ATOM     13  H   UNL     1       3.389   3.335  15.768  0.00  0.00    +0.000 HD
ATOM     14  H   UNL     1       3.022   4.487  16.902  0.00  0.00    +0.000 HD
ENDROOT
BRANCH  10  15
ATOM     15  C   UNL     1       4.858   5.346  18.643  0.00  0.00    +0.000 C 
BRANCH  15  16
ATOM     16  C   UNL     1       3.725   6.361  18.697  0.00  0.00    +0.000 A 
ATOM     17  C   UNL     1       3.509   7.324  17.698  0.00  0.00    +0.000 A 
ATOM     18  C   UNL     1       2.552   8.327  17.869  0.00  0.00    +0.000 A 
ATOM     19  C   UNL     1       1.778   8.348  19.020  0.00  0.00    +0.000 A 
ATOM     20  F   UNL     1       0.887   9.332  19.200  0.00  0.00    +0.000 F 
ATOM     21  C   UNL     1       1.922   7.368  19.993  0.00  0.00    +0.000 A 
ATOM     22  C   UNL     1       2.890   6.374  19.831  0.00  0.00    +0.000 A 
ENDBRANCH  15  16
ENDBRANCH  10  15
TORSDOF 2
ENDMDL
