MODEL 1
REMARK VINA RESULT:      -7.4      0.000      0.000
REMARK  Name = 
REMARK  3 active torsions:
REMARK  status: ('A' for Active; 'I' for Inactive)
REMARK    1  A    between atoms: C_1  and  C_2
REMARK    2  A    between atoms: C_3  and  C_4
REMARK    3  A    between atoms: C_4  and  N_5
REMARK                            x       y       z     vdW  Elec       q    Type
REMARK                         _______ _______ _______ _____ _____    ______ ____
ROOT
ATOM      1  C   UNL     1       2.500   8.194  17.925  0.00  0.00    +0.000 C 
ATOM      2  C   UNL     1       2.353   7.170  18.995  0.00  0.00    +0.000 A 
ATOM      3  C   UNL     1       1.899   7.335  20.300  0.00  0.00    +0.000 A 
ATOM      4  N   UNL     1       1.735   6.069  20.825  0.00  0.00    +0.000 N 
ATOM      5  C   UNL     1       2.123   5.105  19.917  0.00  0.00    +0.000 A 
ATOM      6  C   UNL     1       2.081   3.705  19.966  0.00  0.00    +0.000 A 
ATOM      7 CL   UNL     1       1.371   2.877  21.294  0.00  0.00    +0.000 Cl
ATOM      8  C   UNL     1       2.596   2.980  18.883  0.00  0.00    +0.000 A 
ATOM      9  C   UNL     1       3.147   3.634  17.784  0.00  0.00    +0.000 A 
ATOM     10  C   UNL     1       3.144   5.029  17.727  0.00  0.00    +0.000 A 
ATOM     11  C   UNL     1       2.608   5.779  18.802  0.00  0.00    +0.000 A 
ATOM     12  H   UNL     1       1.366   5.883  21.749  0.00  0.00    +0.000 HD
ENDROOT
BRANCH   3  13
ATOM     13  C   UNL     1       1.493   8.581  21.040  0.00  0.00    +0.000 C 
BRANCH  13  14
ATOM     14  N   UNL     1       0.038   8.844  21.085  0.00  0.00    +0.000 NA
ATOM     15  C   UNL     1      -0.417   9.394  22.393  0.00  0.00    +0.000 C 
ATOM     16  C   UNL     1      -0.337  10.912  22.245  0.00  0.00    +0.000 C 
ATOM     17  N   UNL     1      -1.073  11.793  23.165  0.00  0.00    +0.000 NA
ATOM     18  C   UNL     1      -0.795  13.183  22.728  0.00  0.00    +0.000 C 
ATOM     19  C   UNL     1      -1.039  13.422  21.211  0.00  0.00    +0.000 C 
ATOM     20  O   UNL     1      -0.476  12.398  20.363  0.00  0.00    +0.000 OA
ATOM     21  C   UNL     1      -0.885  11.109  20.838  0.00  0.00    +0.000 C 
ATOM     22  C   UNL     1      -0.284   9.920  20.085  0.00  0.00    +0.000 C 
ATOM     23  H   UNL     1      -0.740  11.665  24.119  0.00  0.00    +0.000 HD
ENDBRANCH  13  14
ENDBRANCH   3  13
TORSDOF 2
ENDMDL
MODEL 2
REMARK VINA RESULT:      -7.3      5.601      8.756
REMARK  Name = 
REMARK  3 active torsions:
REMARK  status: ('A' for Active; 'I' for Inactive)
REMARK    1  A    between atoms: C_1  and  C_2
REMARK    2  A    between atoms: C_3  and  C_4
REMARK    3  A    between atoms: C_4  and  N_5
REMARK                            x       y       z     vdW  Elec       q    Type
REMARK                         _______ _______ _______ _____ _____    ______ ____
ROOT
ATOM      1  C   UNL     1       2.187   6.579  18.091  0.00  0.00    +0.000 C 
ATOM      2  C   UNL     1       2.904   5.324  18.445  0.00  0.00    +0.000 A 
ATOM      3  C   UNL     1       4.116   4.847  17.954  0.00  0.00    +0.000 A 
ATOM      4  N   UNL     1       4.466   3.771  18.742  0.00  0.00    +0.000 N 
ATOM      5  C   UNL     1       3.490   3.511  19.683  0.00  0.00    +0.000 A 
ATOM      6  C   UNL     1       3.424   2.578  20.728  0.00  0.00    +0.000 A 
ATOM      7 CL   UNL     1       4.751   1.549  21.092  0.00  0.00    +0.000 Cl
ATOM      8  C   UNL     1       2.260   2.525  21.506  0.00  0.00    +0.000 A 
ATOM      9  C   UNL     1       1.188   3.373  21.245  0.00  0.00    +0.000 A 
ATOM     10  C   UNL     1       1.282   4.327  20.230  0.00  0.00    +0.000 A 
ATOM     11  C   UNL     1       2.458   4.412  19.446  0.00  0.00    +0.000 A 
ATOM     12  H   UNL     1       5.331   3.254  18.644  0.00  0.00    +0.000 HD
ENDROOT
BRANCH   3  13
ATOM     13  C   UNL     1       5.022   5.402  16.886  0.00  0.00    +0.000 C 
BRANCH  13  14
ATOM     14  N   UNL     1       6.209   4.578  16.574  0.00  0.00    +0.000 NA
ATOM     15  C   UNL     1       5.906   3.435  15.667  0.00  0.00    +0.000 C 
ATOM     16  C   UNL     1       6.134   3.966  14.253  0.00  0.00    +0.000 C 
ATOM     17  N   UNL     1       6.325   3.039  13.127  0.00  0.00    +0.000 NA
ATOM     18  C   UNL     1       6.542   3.879  11.924  0.00  0.00    +0.000 C 
ATOM     19  C   UNL     1       7.640   4.965  12.108  0.00  0.00    +0.000 C 
ATOM     20  O   UNL     1       7.528   5.700  13.345  0.00  0.00    +0.000 OA
ATOM     21  C   UNL     1       7.409   4.778  14.438  0.00  0.00    +0.000 C 
ATOM     22  C   UNL     1       7.190   5.423  15.808  0.00  0.00    +0.000 C 
ATOM     23  H   UNL     1       5.492   2.467  12.996  0.00  0.00    +0.000 HD
ENDBRANCH  13  14
ENDBRANCH   3  13
TORSDOF 2
ENDMDL
MODEL 3
REMARK VINA RESULT:      -7.1      5.888      8.102
REMARK  Name = 
REMARK  3 active torsions:
REMARK  status: ('A' for Active; 'I' for Inactive)
REMARK    1  A    between atoms: C_1  and  C_2
REMARK    2  A    between atoms: C_3  and  C_4
REMARK    3  A    between atoms: C_4  and  N_5
REMARK                            x       y       z     vdW  Elec       q    Type
REMARK                         _______ _______ _______ _____ _____    ______ ____
ROOT
ATOM      1  C   UNL     1       7.077   6.186  16.664  0.00  0.00    +0.000 C 
ATOM      2  C   UNL     1       6.704   5.042  15.788  0.00  0.00    +0.000 A 
ATOM      3  C   UNL     1       5.896   3.948  16.084  0.00  0.00    +0.000 A 
ATOM      4  N   UNL     1       5.672   3.288  14.893  0.00  0.00    +0.000 N 
ATOM      5  C   UNL     1       6.358   3.892  13.858  0.00  0.00    +0.000 A 
ATOM      6  C   UNL     1       6.393   3.630  12.482  0.00  0.00    +0.000 A 
ATOM      7 CL   UNL     1       5.395   2.421  11.776  0.00  0.00    +0.000 Cl
ATOM      8  C   UNL     1       7.233   4.406  11.672  0.00  0.00    +0.000 A 
ATOM      9  C   UNL     1       8.024   5.410  12.222  0.00  0.00    +0.000 A 
ATOM     10  C   UNL     1       7.949   5.691  13.588  0.00  0.00    +0.000 A 
ATOM     11  C   UNL     1       7.089   4.933  14.419  0.00  0.00    +0.000 A 
ATOM     12  H   UNL     1       5.074   2.477  14.799  0.00  0.00    +0.000 HD
ENDROOT
BRANCH   3  13
ATOM     13  C   UNL     1       5.222   3.554  17.371  0.00  0.00    +0.000 C 
BRANCH  13  14
ATOM     14  N   UNL     1       3.837   3.053  17.232  0.00  0.00    +0.000 NA
ATOM     15  C   UNL     1       3.474   2.041  18.264  0.00  0.00    +0.000 C 
ATOM     16  C   UNL     1       2.872   2.837  19.419  0.00  0.00    +0.000 C 
ATOM     17  N   UNL     1       2.041   2.171  20.434  0.00  0.00    +0.000 NA
ATOM     18  C   UNL     1       1.606   3.227  21.381  0.00  0.00    +0.000 C 
ATOM     19  C   UNL     1       0.974   4.467  20.687  0.00  0.00    +0.000 C 
ATOM     20  O   UNL     1       1.728   4.946  19.553  0.00  0.00    +0.000 OA
ATOM     21  C   UNL     1       2.012   3.850  18.673  0.00  0.00    +0.000 C 
ATOM     22  C   UNL     1       2.889   4.197  17.468  0.00  0.00    +0.000 C 
ATOM     23  H   UNL     1       2.587   1.472  20.934  0.00  0.00    +0.000 HD
ENDBRANCH  13  14
ENDBRANCH   3  13
TORSDOF 2
ENDMDL
MODEL 4
REMARK VINA RESULT:      -7.0      4.060      8.162
REMARK  Name = 
REMARK  3 active torsions:
REMARK  status: ('A' for Active; 'I' for Inactive)
REMARK    1  A    between atoms: C_1  and  C_2
REMARK    2  A    between atoms: C_3  and  C_4
REMARK    3  A    between atoms: C_4  and  N_5
REMARK                            x       y       z     vdW  Elec       q    Type
REMARK                         _______ _______ _______ _____ _____    ______ ____
ROOT
ATOM      1  C   UNL     1       1.845   5.936  20.771  0.00  0.00    +0.000 C 
ATOM      2  C   UNL     1       1.817   7.273  20.118  0.00  0.00    +0.000 A 
ATOM      3  C   UNL     1       2.275   7.632  18.853  0.00  0.00    +0.000 A 
ATOM      4  N   UNL     1       1.830   8.918  18.622  0.00  0.00    +0.000 N 
ATOM      5  C   UNL     1       1.153   9.410  19.720  0.00  0.00    +0.000 A 
ATOM      6  C   UNL     1       0.474  10.618  19.935  0.00  0.00    +0.000 A 
ATOM      7 CL   UNL     1       0.288  11.774  18.678  0.00  0.00    +0.000 Cl
ATOM      8  C   UNL     1      -0.092  10.853  21.195  0.00  0.00    +0.000 A 
ATOM      9  C   UNL     1       0.022   9.914  22.215  0.00  0.00    +0.000 A 
ATOM     10  C   UNL     1       0.662   8.696  21.976  0.00  0.00    +0.000 A 
ATOM     11  C   UNL     1       1.222   8.430  20.703  0.00  0.00    +0.000 A 
ATOM     12  H   UNL     1       1.975   9.420  17.755  0.00  0.00    +0.000 HD
ENDROOT
BRANCH   3  13
ATOM     13  C   UNL     1       2.987   6.817  17.807  0.00  0.00    +0.000 C 
BRANCH  13  14
ATOM     14  N   UNL     1       4.314   6.299  18.204  0.00  0.00    +0.000 NA
ATOM     15  C   UNL     1       4.452   4.829  18.005  0.00  0.00    +0.000 C 
ATOM     16  C   UNL     1       5.016   4.661  16.595  0.00  0.00    +0.000 C 
ATOM     17  N   UNL     1       5.656   3.400  16.191  0.00  0.00    +0.000 NA
ATOM     18  C   UNL     1       6.105   3.587  14.789  0.00  0.00    +0.000 C 
ATOM     19  C   UNL     1       6.940   4.880  14.567  0.00  0.00    +0.000 C 
ATOM     20  O   UNL     1       6.367   6.054  15.180  0.00  0.00    +0.000 OA
ATOM     21  C   UNL     1       6.056   5.773  16.551  0.00  0.00    +0.000 C 
ATOM     22  C   UNL     1       5.353   6.906  17.302  0.00  0.00    +0.000 C 
ATOM     23  H   UNL     1       4.986   2.634  16.233  0.00  0.00    +0.000 HD
ENDBRANCH  13  14
ENDBRANCH   3  13
TORSDOF 2
ENDMDL
MODEL 5
REMARK VINA RESULT:      -6.9      3.297      7.653
REMARK  Name = 
REMARK  3 active torsions:
REMARK  status: ('A' for Active; 'I' for Inactive)
REMARK    1  A    between atoms: C_1  and  C_2
REMARK    2  A    between atoms: C_3  and  C_4
REMARK    3  A    between atoms: C_4  and  N_5
REMARK                            x       y       z     vdW  Elec       q    Type
REMARK                         _______ _______ _______ _____ _____    ______ ____
ROOT
ATOM      1  C   UNL     1       2.280   8.905  17.795  0.00  0.00    +0.000 C 
ATOM      2  C   UNL     1       1.493   8.895  19.058  0.00  0.00    +0.000 A 
ATOM      3  C   UNL     1       1.520   7.963  20.091  0.00  0.00    +0.000 A 
ATOM      4  N   UNL     1       0.788   8.503  21.129  0.00  0.00    +0.000 N 
ATOM      5  C   UNL     1       0.249   9.722  20.770  0.00  0.00    +0.000 A 
ATOM      6  C   UNL     1      -0.500  10.661  21.493  0.00  0.00    +0.000 A 
ATOM      7 CL   UNL     1      -0.826  10.448  23.167  0.00  0.00    +0.000 Cl
ATOM      8  C   UNL     1      -0.950  11.812  20.831  0.00  0.00    +0.000 A 
ATOM      9  C   UNL     1      -0.669  12.016  19.484  0.00  0.00    +0.000 A 
ATOM     10  C   UNL     1       0.114  11.095  18.785  0.00  0.00    +0.000 A 
ATOM     11  C   UNL     1       0.598   9.937  19.442  0.00  0.00    +0.000 A 
ATOM     12  H   UNL     1       0.677   8.061  22.033  0.00  0.00    +0.000 HD
ENDROOT
BRANCH   3  13
ATOM     13  C   UNL     1       2.280   6.670  20.219  0.00  0.00    +0.000 C 
BRANCH  13  14
ATOM     14  N   UNL     1       3.033   6.259  19.014  0.00  0.00    +0.000 NA
ATOM     15  C   UNL     1       4.331   5.599  19.332  0.00  0.00    +0.000 C 
ATOM     16  C   UNL     1       4.017   4.107  19.416  0.00  0.00    +0.000 C 
ATOM     17  N   UNL     1       5.094   3.109  19.315  0.00  0.00    +0.000 NA
ATOM     18  C   UNL     1       4.444   1.779  19.411  0.00  0.00    +0.000 C 
ATOM     19  C   UNL     1       3.248   1.595  18.435  0.00  0.00    +0.000 C 
ATOM     20  O   UNL     1       2.335   2.713  18.417  0.00  0.00    +0.000 OA
ATOM     21  C   UNL     1       3.074   3.928  18.234  0.00  0.00    +0.000 C 
ATOM     22  C   UNL     1       2.238   5.209  18.288  0.00  0.00    +0.000 C 
ATOM     23  H   UNL     1       5.753   3.222  20.083  0.00  0.00    +0.000 HD
ENDBRANCH  13  14
ENDBRANCH   3  13
TORSDOF 2
ENDMDL
MODEL 6
REMARK VINA RESULT:      -6.9      6.107      8.017
REMARK  Name = 
REMARK  3 active torsions:
REMARK  status: ('A' for Active; 'I' for Inactive)
REMARK    1  A    between atoms: C_1  and  C_2
REMARK    2  A    between atoms: C_3  and  C_4
REMARK    3  A    between atoms: C_4  and  N_5
REMARK                            x       y       z     vdW  Elec       q    Type
REMARK                         _______ _______ _______ _____ _____    ______ ____
ROOT
ATOM      1  C   UNL     1       7.126   6.283  16.644  0.00  0.00    +0.000 C 
ATOM      2  C   UNL     1       6.714   5.135  15.791  0.00  0.00    +0.000 A 
ATOM      3  C   UNL     1       5.862   4.080  16.105  0.00  0.00    +0.000 A 
ATOM      4  N   UNL     1       5.621   3.402  14.927  0.00  0.00    +0.000 N 
ATOM      5  C   UNL     1       6.337   3.956  13.885  0.00  0.00    +0.000 A 
ATOM      6  C   UNL     1       6.370   3.662  12.515  0.00  0.00    +0.000 A 
ATOM      7 CL   UNL     1       5.331   2.477  11.829  0.00  0.00    +0.000 Cl
ATOM      8  C   UNL     1       7.246   4.386  11.695  0.00  0.00    +0.000 A 
ATOM      9  C   UNL     1       8.072   5.370  12.228  0.00  0.00    +0.000 A 
ATOM     10  C   UNL     1       7.999   5.685  13.586  0.00  0.00    +0.000 A 
ATOM     11  C   UNL     1       7.104   4.980  14.428  0.00  0.00    +0.000 A 
ATOM     12  H   UNL     1       4.992   2.613  14.847  0.00  0.00    +0.000 HD
ENDROOT
BRANCH   3  13
ATOM     13  C   UNL     1       5.165   3.742  17.395  0.00  0.00    +0.000 C 
BRANCH  13  14
ATOM     14  N   UNL     1       4.153   4.723  17.843  0.00  0.00    +0.000 NA
ATOM     15  C   UNL     1       2.753   4.252  17.646  0.00  0.00    +0.000 C 
ATOM     16  C   UNL     1       2.374   3.548  18.947  0.00  0.00    +0.000 C 
ATOM     17  N   UNL     1       0.962   3.307  19.285  0.00  0.00    +0.000 NA
ATOM     18  C   UNL     1       0.955   2.636  20.607  0.00  0.00    +0.000 C 
ATOM     19  C   UNL     1       1.799   3.372  21.687  0.00  0.00    +0.000 C 
ATOM     20  O   UNL     1       3.104   3.781  21.224  0.00  0.00    +0.000 OA
ATOM     21  C   UNL     1       2.969   4.490  19.985  0.00  0.00    +0.000 C 
ATOM     22  C   UNL     1       4.288   4.905  19.329  0.00  0.00    +0.000 C 
ATOM     23  H   UNL     1       0.534   2.696  18.592  0.00  0.00    +0.000 HD
ENDBRANCH  13  14
ENDBRANCH   3  13
TORSDOF 2
ENDMDL
MODEL 7
REMARK VINA RESULT:      -6.8      5.607      7.264
REMARK  Name = 
REMARK  3 active torsions:
REMARK  status: ('A' for Active; 'I' for Inactive)
REMARK    1  A    between atoms: C_1  and  C_2
REMARK    2  A    between atoms: C_3  and  C_4
REMARK    3  A    between atoms: C_4  and  N_5
REMARK                            x       y       z     vdW  Elec       q    Type
REMARK                         _______ _______ _______ _____ _____    ______ ____
ROOT
ATOM      1  C   UNL     1       5.241   5.673  14.979  0.00  0.00    +0.000 C 
ATOM      2  C   UNL     1       5.675   5.390  16.374  0.00  0.00    +0.000 A 
ATOM      3  C   UNL     1       5.421   4.264  17.153  0.00  0.00    +0.000 A 
ATOM      4  N   UNL     1       6.214   4.373  18.277  0.00  0.00    +0.000 N 
ATOM      5  C   UNL     1       6.922   5.558  18.267  0.00  0.00    +0.000 A 
ATOM      6  C   UNL     1       7.887   6.077  19.142  0.00  0.00    +0.000 A 
ATOM      7 CL   UNL     1       8.467   5.163  20.477  0.00  0.00    +0.000 Cl
ATOM      8  C   UNL     1       8.408   7.352  18.886  0.00  0.00    +0.000 A 
ATOM      9  C   UNL     1       7.973   8.093  17.791  0.00  0.00    +0.000 A 
ATOM     10  C   UNL     1       7.043   7.549  16.902  0.00  0.00    +0.000 A 
ATOM     11  C   UNL     1       6.521   6.253  17.132  0.00  0.00    +0.000 A 
ATOM     12  H   UNL     1       6.270   3.668  19.000  0.00  0.00    +0.000 HD
ENDROOT
BRANCH   3  13
ATOM     13  C   UNL     1       4.588   3.045  16.860  0.00  0.00    +0.000 C 
BRANCH  13  14
ATOM     14  N   UNL     1       3.130   3.216  17.046  0.00  0.00    +0.000 NA
ATOM     15  C   UNL     1       2.535   2.205  17.965  0.00  0.00    +0.000 C 
ATOM     16  C   UNL     1       2.598   2.833  19.356  0.00  0.00    +0.000 C 
ATOM     17  N   UNL     1       1.755   2.320  20.447  0.00  0.00    +0.000 NA
ATOM     18  C   UNL     1       2.046   3.162  21.633  0.00  0.00    +0.000 C 
ATOM     19  C   UNL     1       1.949   4.689  21.356  0.00  0.00    +0.000 C 
ATOM     20  O   UNL     1       2.615   5.102  20.144  0.00  0.00    +0.000 OA
ATOM     21  C   UNL     1       2.188   4.270  19.058  0.00  0.00    +0.000 C 
ATOM     22  C   UNL     1       2.887   4.537  17.723  0.00  0.00    +0.000 C 
ATOM     23  H   UNL     1       1.994   1.351  20.652  0.00  0.00    +0.000 HD
ENDBRANCH  13  14
ENDBRANCH   3  13
TORSDOF 2
ENDMDL
MODEL 8
REMARK VINA RESULT:      -6.8      4.119      7.622
REMARK  Name = 
REMARK  3 active torsions:
REMARK  status: ('A' for Active; 'I' for Inactive)
REMARK    1  A    between atoms: C_1  and  C_2
REMARK    2  A    between atoms: C_3  and  C_4
REMARK    3  A    between atoms: C_4  and  N_5
REMARK                            x       y       z     vdW  Elec       q    Type
REMARK                         _______ _______ _______ _____ _____    ______ ____
ROOT
ATOM      1  C   UNL     1       1.453   3.561  20.194  0.00  0.00    +0.000 C 
ATOM      2  C   UNL     1       1.948   4.757  19.459  0.00  0.00    +0.000 A 
ATOM      3  C   UNL     1       2.545   4.820  18.203  0.00  0.00    +0.000 A 
ATOM      4  N   UNL     1       2.621   6.157  17.869  0.00  0.00    +0.000 N 
ATOM      5  C   UNL     1       2.145   6.949  18.894  0.00  0.00    +0.000 A 
ATOM      6  C   UNL     1       1.963   8.336  18.995  0.00  0.00    +0.000 A 
ATOM      7 CL   UNL     1       2.261   9.377  17.661  0.00  0.00    +0.000 Cl
ATOM      8  C   UNL     1       1.489   8.863  20.204  0.00  0.00    +0.000 A 
ATOM      9  C   UNL     1       1.212   8.031  21.285  0.00  0.00    +0.000 A 
ATOM     10  C   UNL     1       1.356   6.648  21.158  0.00  0.00    +0.000 A 
ATOM     11  C   UNL     1       1.813   6.094  19.938  0.00  0.00    +0.000 A 
ATOM     12  H   UNL     1       2.969   6.500  16.982  0.00  0.00    +0.000 HD
ENDROOT
BRANCH   3  13
ATOM     13  C   UNL     1       2.930   3.720  17.251  0.00  0.00    +0.000 C 
BRANCH  13  14
ATOM     14  N   UNL     1       4.295   3.180  17.428  0.00  0.00    +0.000 NA
ATOM     15  C   UNL     1       5.245   3.632  16.372  0.00  0.00    +0.000 C 
ATOM     16  C   UNL     1       5.881   4.909  16.916  0.00  0.00    +0.000 C 
ATOM     17  N   UNL     1       7.139   5.419  16.349  0.00  0.00    +0.000 NA
ATOM     18  C   UNL     1       7.480   6.642  17.116  0.00  0.00    +0.000 C 
ATOM     19  C   UNL     1       7.457   6.441  18.657  0.00  0.00    +0.000 C 
ATOM     20  O   UNL     1       6.292   5.735  19.134  0.00  0.00    +0.000 OA
ATOM     21  C   UNL     1       6.119   4.533  18.372  0.00  0.00    +0.000 C 
ATOM     22  C   UNL     1       4.863   3.727  18.710  0.00  0.00    +0.000 C 
ATOM     23  H   UNL     1       7.013   5.658  15.367  0.00  0.00    +0.000 HD
ENDBRANCH  13  14
ENDBRANCH   3  13
TORSDOF 2
ENDMDL
MODEL 9
REMARK VINA RESULT:      -6.8      1.472      1.793
REMARK  Name = 
REMARK  3 active torsions:
REMARK  status: ('A' for Active; 'I' for Inactive)
REMARK    1  A    between atoms: C_1  and  C_2
REMARK    2  A    between atoms: C_3  and  C_4
REMARK    3  A    between atoms: C_4  and  N_5
REMARK                            x       y       z     vdW  Elec       q    Type
REMARK                         _______ _______ _______ _____ _____    ______ ____
ROOT
ATOM      1  C   UNL     1       2.256   8.409  18.123  0.00  0.00    +0.000 C 
ATOM      2  C   UNL     1       2.395   7.297  19.102  0.00  0.00    +0.000 A 
ATOM      3  C   UNL     1       1.692   7.088  20.286  0.00  0.00    +0.000 A 
ATOM      4  N   UNL     1       2.020   5.820  20.721  0.00  0.00    +0.000 N 
ATOM      5  C   UNL     1       2.951   5.237  19.885  0.00  0.00    +0.000 A 
ATOM      6  C   UNL     1       3.530   3.961  19.878  0.00  0.00    +0.000 A 
ATOM      7 CL   UNL     1       3.041   2.751  20.996  0.00  0.00    +0.000 Cl
ATOM      8  C   UNL     1       4.496   3.668  18.906  0.00  0.00    +0.000 A 
ATOM      9  C   UNL     1       4.881   4.626  17.973  0.00  0.00    +0.000 A 
ATOM     10  C   UNL     1       4.267   5.880  17.962  0.00  0.00    +0.000 A 
ATOM     11  C   UNL     1       3.272   6.187  18.922  0.00  0.00    +0.000 A 
ATOM     12  H   UNL     1       1.616   5.381  21.539  0.00  0.00    +0.000 HD
ENDROOT
BRANCH   3  13
ATOM     13  C   UNL     1       0.650   7.937  20.963  0.00  0.00    +0.000 C 
BRANCH  13  14
ATOM     14  N   UNL     1       1.145   9.205  21.541  0.00  0.00    +0.000 NA
ATOM     15  C   UNL     1       0.831  10.394  20.699  0.00  0.00    +0.000 C 
ATOM     16  C   UNL     1      -0.516  10.906  21.205  0.00  0.00    +0.000 C 
ATOM     17  N   UNL     1      -0.958  12.276  20.901  0.00  0.00    +0.000 NA
ATOM     18  C   UNL     1      -2.277  12.447  21.557  0.00  0.00    +0.000 C 
ATOM     19  C   UNL     1      -2.287  12.043  23.058  0.00  0.00    +0.000 C 
ATOM     20  O   UNL     1      -1.639  10.781  23.325  0.00  0.00    +0.000 OA
ATOM     21  C   UNL     1      -0.343  10.772  22.712  0.00  0.00    +0.000 C 
ATOM     22  C   UNL     1       0.424   9.454  22.837  0.00  0.00    +0.000 C 
ATOM     23  H   UNL     1      -1.060  12.399  19.895  0.00  0.00    +0.000 HD
ENDBRANCH  13  14
ENDBRANCH   3  13
TORSDOF 2
ENDMDL
