MODEL 1
REMARK VINA RESULT:      -7.1      0.000      0.000
REMARK  Name = 
REMARK  8 active torsions:
REMARK  status: ('A' for Active; 'I' for Inactive)
REMARK    1  A    between atoms: C_1  and  C_2
REMARK    2  A    between atoms: C_2  and  O_3
REMARK    3  A    between atoms: O_3  and  C_4
REMARK    4  A    between atoms: C_4  and  C_5
REMARK    5  A    between atoms: C_5  and  O_6
REMARK    6  A    between atoms: O_6  and  C_7
REMARK    7  A    between atoms: C_11  and  C_12
REMARK    8  A    between atoms: C_17  and  O_18
REMARK                            x       y       z     vdW  Elec       q    Type
REMARK                         _______ _______ _______ _____ _____    ______ ____
ROOT
ATOM      1  C   UNL     1       5.913   5.488  16.231  0.00  0.00    +0.000 A 
ATOM      2  C   UNL     1       7.121   5.246  16.860  0.00  0.00    +0.000 A 
ATOM      3  C   UNL     1       7.189   4.959  18.212  0.00  0.00    +0.000 A 
ATOM      4  C   UNL     1       6.011   4.890  18.931  0.00  0.00    +0.000 A 
ATOM      5  C   UNL     1       4.755   5.122  18.343  0.00  0.00    +0.000 A 
ATOM      6  C   UNL     1       4.740   5.440  16.973  0.00  0.00    +0.000 A 
ENDROOT
BRANCH   5   7
ATOM      7  C   UNL     1       3.500   4.953  19.096  0.00  0.00    +0.000 A 
ATOM      8  N   UNL     1       3.088   6.076  19.761  0.00  0.00    +0.000 NA
ATOM      9  C   UNL     1       1.927   6.034  20.406  0.00  0.00    +0.000 A 
ATOM     10  N   UNL     1       1.546   7.153  21.117  0.00  0.00    +0.000 N 
ATOM     11  N   UNL     1       1.098   4.998  20.407  0.00  0.00    +0.000 NA
ATOM     12  C   UNL     1       1.551   3.903  19.761  0.00  0.00    +0.000 A 
ATOM     13  C   UNL     1       2.745   3.788  19.111  0.00  0.00    +0.000 A 
ATOM     14 BR   UNL     1       3.244   2.095  18.399  0.00  0.00    +0.000 Br
ATOM     15  H   UNL     1       2.025   7.979  20.789  0.00  0.00    +0.000 HD
ATOM     16  H   UNL     1       0.546   7.200  21.235  0.00  0.00    +0.000 HD
BRANCH  12  17
ATOM     17  O   UNL     1       0.672   2.864  19.802  0.00  0.00    +0.000 OA
ATOM     18  H   UNL     1       0.167   3.005  18.989  0.00  0.00    +0.000 HD
ENDBRANCH  12  17
ENDBRANCH   5   7
BRANCH   1  19
ATOM     19  O   UNL     1       5.974   5.673  14.878  0.00  0.00    +0.000 OA
BRANCH  19  20
ATOM     20  C   UNL     1       6.714   4.696  14.141  0.00  0.00    +0.000 C 
BRANCH  20  21
ATOM     21  C   UNL     1       5.722   3.849  13.348  0.00  0.00    +0.000 C 
BRANCH  21  22
ATOM     22  O   UNL     1       6.404   3.165  12.296  0.00  0.00    +0.000 OA
BRANCH  22  24
ATOM     23  C   UNL     1       4.220   3.138  11.316  0.00  0.00    +0.000 C 
ATOM     24  C   UNL     1       5.504   2.364  11.533  0.00  0.00    +0.000 C 
ENDBRANCH  22  24
ENDBRANCH  21  22
ENDBRANCH  20  21
ENDBRANCH  19  20
ENDBRANCH   1  19
TORSDOF 7
ENDMDL
MODEL 2
REMARK VINA RESULT:      -7.0      0.899      1.066
REMARK  Name = 
REMARK  8 active torsions:
REMARK  status: ('A' for Active; 'I' for Inactive)
REMARK    1  A    between atoms: C_1  and  C_2
REMARK    2  A    between atoms: C_2  and  O_3
REMARK    3  A    between atoms: O_3  and  C_4
REMARK    4  A    between atoms: C_4  and  C_5
REMARK    5  A    between atoms: C_5  and  O_6
REMARK    6  A    between atoms: O_6  and  C_7
REMARK    7  A    between atoms: C_11  and  C_12
REMARK    8  A    between atoms: C_17  and  O_18
REMARK                            x       y       z     vdW  Elec       q    Type
REMARK                         _______ _______ _______ _____ _____    ______ ____
ROOT
ATOM      1  C   UNL     1       6.057   4.108  16.323  0.00  0.00    +0.000 A 
ATOM      2  C   UNL     1       7.229   4.545  16.916  0.00  0.00    +0.000 A 
ATOM      3  C   UNL     1       7.238   5.084  18.190  0.00  0.00    +0.000 A 
ATOM      4  C   UNL     1       6.045   5.156  18.884  0.00  0.00    +0.000 A 
ATOM      5  C   UNL     1       4.826   4.723  18.333  0.00  0.00    +0.000 A 
ATOM      6  C   UNL     1       4.863   4.211  17.024  0.00  0.00    +0.000 A 
ENDROOT
BRANCH   5   7
ATOM      7  C   UNL     1       3.577   4.717  19.115  0.00  0.00    +0.000 A 
ATOM      8  N   UNL     1       3.250   5.928  19.662  0.00  0.00    +0.000 NA
ATOM      9  C   UNL     1       2.101   6.030  20.321  0.00  0.00    +0.000 A 
ATOM     10  N   UNL     1       1.805   7.240  20.914  0.00  0.00    +0.000 N 
ATOM     11  N   UNL     1       1.208   5.057  20.443  0.00  0.00    +0.000 NA
ATOM     12  C   UNL     1       1.578   3.873  19.912  0.00  0.00    +0.000 A 
ATOM     13  C   UNL     1       2.750   3.611  19.263  0.00  0.00    +0.000 A 
ATOM     14 BR   UNL     1       3.126   1.824  18.730  0.00  0.00    +0.000 Br
ATOM     15  H   UNL     1       2.330   7.994  20.494  0.00  0.00    +0.000 HD
ATOM     16  H   UNL     1       0.812   7.365  21.039  0.00  0.00    +0.000 HD
BRANCH  12  17
ATOM     17  O   UNL     1       0.636   2.903  20.073  0.00  0.00    +0.000 OA
ATOM     18  H   UNL     1      -0.071   3.221  19.495  0.00  0.00    +0.000 HD
ENDBRANCH  12  17
ENDBRANCH   5   7
BRANCH   1  19
ATOM     19  O   UNL     1       6.195   3.517  15.098  0.00  0.00    +0.000 OA
BRANCH  19  20
ATOM     20  C   UNL     1       5.781   4.296  13.972  0.00  0.00    +0.000 C 
BRANCH  20  21
ATOM     21  C   UNL     1       6.386   3.672  12.717  0.00  0.00    +0.000 C 
BRANCH  21  22
ATOM     22  O   UNL     1       5.352   3.091  11.922  0.00  0.00    +0.000 OA
BRANCH  22  24
ATOM     23  C   UNL     1       7.202   1.814  11.098  0.00  0.00    +0.000 C 
ATOM     24  C   UNL     1       5.728   1.798  11.450  0.00  0.00    +0.000 C 
ENDBRANCH  22  24
ENDBRANCH  21  22
ENDBRANCH  20  21
ENDBRANCH  19  20
ENDBRANCH   1  19
TORSDOF 7
ENDMDL
MODEL 3
REMARK VINA RESULT:      -6.9      4.388      8.067
REMARK  Name = 
REMARK  8 active torsions:
REMARK  status: ('A' for Active; 'I' for Inactive)
REMARK    1  A    between atoms: C_1  and  C_2
REMARK    2  A    between atoms: C_2  and  O_3
REMARK    3  A    between atoms: O_3  and  C_4
REMARK    4  A    between atoms: C_4  and  C_5
REMARK    5  A    between atoms: C_5  and  O_6
REMARK    6  A    between atoms: O_6  and  C_7
REMARK    7  A    between atoms: C_11  and  C_12
REMARK    8  A    between atoms: C_17  and  O_18
REMARK                            x       y       z     vdW  Elec       q    Type
REMARK                         _______ _______ _______ _____ _____    ______ ____
ROOT
ATOM      1  C   UNL     1       1.265   8.745  20.119  0.00  0.00    +0.000 A 
ATOM      2  C   UNL     1       1.433   9.192  18.820  0.00  0.00    +0.000 A 
ATOM      3  C   UNL     1       2.103   8.436  17.875  0.00  0.00    +0.000 A 
ATOM      4  C   UNL     1       2.586   7.195  18.245  0.00  0.00    +0.000 A 
ATOM      5  C   UNL     1       2.440   6.688  19.549  0.00  0.00    +0.000 A 
ATOM      6  C   UNL     1       1.779   7.507  20.481  0.00  0.00    +0.000 A 
ENDROOT
BRANCH   5   7
ATOM      7  C   UNL     1       2.875   5.328  19.908  0.00  0.00    +0.000 A 
ATOM      8  N   UNL     1       2.017   4.665  20.744  0.00  0.00    +0.000 NA
ATOM      9  C   UNL     1       2.295   3.405  21.060  0.00  0.00    +0.000 A 
ATOM     10  N   UNL     1       1.453   2.764  21.944  0.00  0.00    +0.000 N 
ATOM     11  N   UNL     1       3.317   2.710  20.577  0.00  0.00    +0.000 NA
ATOM     12  C   UNL     1       4.152   3.405  19.776  0.00  0.00    +0.000 A 
ATOM     13  C   UNL     1       4.022   4.716  19.419  0.00  0.00    +0.000 A 
ATOM     14 BR   UNL     1       5.406   5.533  18.401  0.00  0.00    +0.000 Br
ATOM     15  H   UNL     1       0.548   3.211  21.982  0.00  0.00    +0.000 HD
ATOM     16  H   UNL     1       1.483   1.762  21.833  0.00  0.00    +0.000 HD
BRANCH  12  17
ATOM     17  O   UNL     1       5.191   2.655  19.317  0.00  0.00    +0.000 OA
ATOM     18  H   UNL     1       4.831   1.759  19.389  0.00  0.00    +0.000 HD
ENDBRANCH  12  17
ENDBRANCH   5   7
BRANCH   1  19
ATOM     19  O   UNL     1       0.511   9.546  20.930  0.00  0.00    +0.000 OA
BRANCH  19  20
ATOM     20  C   UNL     1      -0.306   8.877  21.894  0.00  0.00    +0.000 C 
BRANCH  20  21
ATOM     21  C   UNL     1      -0.301   9.706  23.176  0.00  0.00    +0.000 C 
BRANCH  21  22
ATOM     22  O   UNL     1      -0.167  11.091  22.854  0.00  0.00    +0.000 OA
BRANCH  22  24
ATOM     23  C   UNL     1      -1.890  12.224  21.639  0.00  0.00    +0.000 C 
ATOM     24  C   UNL     1      -1.408  11.779  23.005  0.00  0.00    +0.000 C 
ENDBRANCH  22  24
ENDBRANCH  21  22
ENDBRANCH  20  21
ENDBRANCH  19  20
ENDBRANCH   1  19
TORSDOF 7
ENDMDL
MODEL 4
REMARK VINA RESULT:      -6.8      1.980      2.425
REMARK  Name = 
REMARK  8 active torsions:
REMARK  status: ('A' for Active; 'I' for Inactive)
REMARK    1  A    between atoms: C_1  and  C_2
REMARK    2  A    between atoms: C_2  and  O_3
REMARK    3  A    between atoms: O_3  and  C_4
REMARK    4  A    between atoms: C_4  and  C_5
REMARK    5  A    between atoms: C_5  and  O_6
REMARK    6  A    between atoms: O_6  and  C_7
REMARK    7  A    between atoms: C_11  and  C_12
REMARK    8  A    between atoms: C_17  and  O_18
REMARK                            x       y       z     vdW  Elec       q    Type
REMARK                         _______ _______ _______ _____ _____    ______ ____
ROOT
ATOM      1  C   UNL     1       6.201   5.765  16.101  0.00  0.00    +0.000 A 
ATOM      2  C   UNL     1       7.203   6.272  16.910  0.00  0.00    +0.000 A 
ATOM      3  C   UNL     1       7.156   6.144  18.286  0.00  0.00    +0.000 A 
ATOM      4  C   UNL     1       6.091   5.468  18.850  0.00  0.00    +0.000 A 
ATOM      5  C   UNL     1       5.047   4.928  18.077  0.00  0.00    +0.000 A 
ATOM      6  C   UNL     1       5.124   5.111  16.685  0.00  0.00    +0.000 A 
ENDROOT
BRANCH   5   7
ATOM      7  C   UNL     1       3.966   4.129  18.679  0.00  0.00    +0.000 A 
ATOM      8  N   UNL     1       4.099   2.778  18.498  0.00  0.00    +0.000 NA
ATOM      9  C   UNL     1       3.207   1.978  19.072  0.00  0.00    +0.000 A 
ATOM     10  N   UNL     1       3.318   0.622  18.840  0.00  0.00    +0.000 N 
ATOM     11  N   UNL     1       2.222   2.383  19.863  0.00  0.00    +0.000 NA
ATOM     12  C   UNL     1       2.110   3.721  19.996  0.00  0.00    +0.000 A 
ATOM     13  C   UNL     1       2.916   4.659  19.417  0.00  0.00    +0.000 A 
ATOM     14 BR   UNL     1       2.478   6.499  19.621  0.00  0.00    +0.000 Br
ATOM     15  H   UNL     1       4.251   0.374  18.545  0.00  0.00    +0.000 HD
ATOM     16  H   UNL     1       2.893   0.079  19.576  0.00  0.00    +0.000 HD
BRANCH  12  17
ATOM     17  O   UNL     1       1.079   4.089  20.805  0.00  0.00    +0.000 OA
ATOM     18  H   UNL     1       1.146   5.053  20.780  0.00  0.00    +0.000 HD
ENDBRANCH  12  17
ENDBRANCH   5   7
BRANCH   1  19
ATOM     19  O   UNL     1       6.408   5.881  14.755  0.00  0.00    +0.000 OA
BRANCH  19  20
ATOM     20  C   UNL     1       7.106   4.801  14.129  0.00  0.00    +0.000 C 
BRANCH  20  21
ATOM     21  C   UNL     1       6.071   3.844  13.543  0.00  0.00    +0.000 C 
BRANCH  21  22
ATOM     22  O   UNL     1       6.546   3.321  12.302  0.00  0.00    +0.000 OA
BRANCH  22  24
ATOM     23  C   UNL     1       4.301   3.293  11.471  0.00  0.00    +0.000 C 
ATOM     24  C   UNL     1       5.567   2.488  11.684  0.00  0.00    +0.000 C 
ENDBRANCH  22  24
ENDBRANCH  21  22
ENDBRANCH  20  21
ENDBRANCH  19  20
ENDBRANCH   1  19
TORSDOF 7
ENDMDL
MODEL 5
REMARK VINA RESULT:      -6.8      2.810      4.871
REMARK  Name = 
REMARK  8 active torsions:
REMARK  status: ('A' for Active; 'I' for Inactive)
REMARK    1  A    between atoms: C_1  and  C_2
REMARK    2  A    between atoms: C_2  and  O_3
REMARK    3  A    between atoms: O_3  and  C_4
REMARK    4  A    between atoms: C_4  and  C_5
REMARK    5  A    between atoms: C_5  and  O_6
REMARK    6  A    between atoms: O_6  and  C_7
REMARK    7  A    between atoms: C_11  and  C_12
REMARK    8  A    between atoms: C_17  and  O_18
REMARK                            x       y       z     vdW  Elec       q    Type
REMARK                         _______ _______ _______ _____ _____    ______ ____
ROOT
ATOM      1  C   UNL     1       6.355   5.993  16.800  0.00  0.00    +0.000 A 
ATOM      2  C   UNL     1       6.275   5.129  15.721  0.00  0.00    +0.000 A 
ATOM      3  C   UNL     1       5.301   4.150  15.649  0.00  0.00    +0.000 A 
ATOM      4  C   UNL     1       4.377   4.061  16.673  0.00  0.00    +0.000 A 
ATOM      5  C   UNL     1       4.407   4.914  17.790  0.00  0.00    +0.000 A 
ATOM      6  C   UNL     1       5.434   5.874  17.833  0.00  0.00    +0.000 A 
ENDROOT
BRANCH   5   7
ATOM      7  C   UNL     1       3.363   4.874  18.829  0.00  0.00    +0.000 A 
ATOM      8  N   UNL     1       3.087   6.088  19.396  0.00  0.00    +0.000 NA
ATOM      9  C   UNL     1       2.107   6.155  20.290  0.00  0.00    +0.000 A 
ATOM     10  N   UNL     1       1.871   7.373  20.895  0.00  0.00    +0.000 N 
ATOM     11  N   UNL     1       1.326   5.140  20.637  0.00  0.00    +0.000 NA
ATOM     12  C   UNL     1       1.645   3.956  20.074  0.00  0.00    +0.000 A 
ATOM     13  C   UNL     1       2.662   3.731  19.191  0.00  0.00    +0.000 A 
ATOM     14 BR   UNL     1       3.025   1.946  18.644  0.00  0.00    +0.000 Br
ATOM     15  H   UNL     1       2.241   8.135  20.346  0.00  0.00    +0.000 HD
ATOM     16  H   UNL     1       0.924   7.448  21.233  0.00  0.00    +0.000 HD
BRANCH  12  17
ATOM     17  O   UNL     1       0.826   2.944  20.471  0.00  0.00    +0.000 OA
ATOM     18  H   UNL     1       1.358   2.166  20.252  0.00  0.00    +0.000 HD
ENDBRANCH  12  17
ENDBRANCH   5   7
BRANCH   1  19
ATOM     19  O   UNL     1       7.306   6.970  16.710  0.00  0.00    +0.000 OA
BRANCH  19  20
ATOM     20  C   UNL     1       7.791   7.494  17.949  0.00  0.00    +0.000 C 
BRANCH  20  21
ATOM     21  C   UNL     1       7.969   9.001  17.788  0.00  0.00    +0.000 C 
BRANCH  21  22
ATOM     22  O   UNL     1       8.878   9.487  18.777  0.00  0.00    +0.000 OA
BRANCH  22  24
ATOM     23  C   UNL     1      10.448  11.196  19.364  0.00  0.00    +0.000 C 
ATOM     24  C   UNL     1       9.233  10.847  18.529  0.00  0.00    +0.000 C 
ENDBRANCH  22  24
ENDBRANCH  21  22
ENDBRANCH  20  21
ENDBRANCH  19  20
ENDBRANCH   1  19
TORSDOF 7
ENDMDL
MODEL 6
REMARK VINA RESULT:      -6.7      3.355      7.265
REMARK  Name = 
REMARK  8 active torsions:
REMARK  status: ('A' for Active; 'I' for Inactive)
REMARK    1  A    between atoms: C_1  and  C_2
REMARK    2  A    between atoms: C_2  and  O_3
REMARK    3  A    between atoms: O_3  and  C_4
REMARK    4  A    between atoms: C_4  and  C_5
REMARK    5  A    between atoms: C_5  and  O_6
REMARK    6  A    between atoms: O_6  and  C_7
REMARK    7  A    between atoms: C_11  and  C_12
REMARK    8  A    between atoms: C_17  and  O_18
REMARK                            x       y       z     vdW  Elec       q    Type
REMARK                         _______ _______ _______ _____ _____    ______ ____
ROOT
ATOM      1  C   UNL     1       2.064   5.481  20.245  0.00  0.00    +0.000 A 
ATOM      2  C   UNL     1       1.501   4.217  20.284  0.00  0.00    +0.000 A 
ATOM      3  C   UNL     1       2.163   3.114  19.779  0.00  0.00    +0.000 A 
ATOM      4  C   UNL     1       3.427   3.289  19.248  0.00  0.00    +0.000 A 
ATOM      5  C   UNL     1       4.050   4.548  19.186  0.00  0.00    +0.000 A 
ATOM      6  C   UNL     1       3.324   5.644  19.685  0.00  0.00    +0.000 A 
ENDROOT
BRANCH   5   7
ATOM      7  C   UNL     1       5.433   4.709  18.706  0.00  0.00    +0.000 A 
ATOM      8  N   UNL     1       6.344   4.967  19.695  0.00  0.00    +0.000 NA
ATOM      9  C   UNL     1       7.627   5.054  19.359  0.00  0.00    +0.000 A 
ATOM     10  N   UNL     1       8.532   5.367  20.353  0.00  0.00    +0.000 N 
ATOM     11  N   UNL     1       8.108   4.850  18.139  0.00  0.00    +0.000 NA
ATOM     12  C   UNL     1       7.176   4.622  17.190  0.00  0.00    +0.000 A 
ATOM     13  C   UNL     1       5.826   4.567  17.382  0.00  0.00    +0.000 A 
ATOM     14 BR   UNL     1       4.689   4.386  15.867  0.00  0.00    +0.000 Br
ATOM     15  H   UNL     1       8.159   5.161  21.269  0.00  0.00    +0.000 HD
ATOM     16  H   UNL     1       9.460   5.039  20.133  0.00  0.00    +0.000 HD
BRANCH  12  17
ATOM     17  O   UNL     1       7.715   4.432  15.954  0.00  0.00    +0.000 OA
ATOM     18  H   UNL     1       8.008   5.326  15.730  0.00  0.00    +0.000 HD
ENDBRANCH  12  17
ENDBRANCH   5   7
BRANCH   1  19
ATOM     19  O   UNL     1       1.345   6.471  20.854  0.00  0.00    +0.000 OA
BRANCH  19  20
ATOM     20  C   UNL     1       1.683   7.812  20.490  0.00  0.00    +0.000 C 
BRANCH  20  21
ATOM     21  C   UNL     1       0.980   8.758  21.459  0.00  0.00    +0.000 C 
BRANCH  21  22
ATOM     22  O   UNL     1      -0.173   9.322  20.832  0.00  0.00    +0.000 OA
BRANCH  22  24
ATOM     23  C   UNL     1      -1.094  10.512  18.971  0.00  0.00    +0.000 C 
ATOM     24  C   UNL     1       0.169   9.963  19.604  0.00  0.00    +0.000 C 
ENDBRANCH  22  24
ENDBRANCH  21  22
ENDBRANCH  20  21
ENDBRANCH  19  20
ENDBRANCH   1  19
TORSDOF 7
ENDMDL
MODEL 7
REMARK VINA RESULT:      -6.7      1.976      2.325
REMARK  Name = 
REMARK  8 active torsions:
REMARK  status: ('A' for Active; 'I' for Inactive)
REMARK    1  A    between atoms: C_1  and  C_2
REMARK    2  A    between atoms: C_2  and  O_3
REMARK    3  A    between atoms: O_3  and  C_4
REMARK    4  A    between atoms: C_4  and  C_5
REMARK    5  A    between atoms: C_5  and  O_6
REMARK    6  A    between atoms: O_6  and  C_7
REMARK    7  A    between atoms: C_11  and  C_12
REMARK    8  A    between atoms: C_17  and  O_18
REMARK                            x       y       z     vdW  Elec       q    Type
REMARK                         _______ _______ _______ _____ _____    ______ ____
ROOT
ATOM      1  C   UNL     1       6.016   4.096  16.298  0.00  0.00    +0.000 A 
ATOM      2  C   UNL     1       7.244   4.535  16.762  0.00  0.00    +0.000 A 
ATOM      3  C   UNL     1       7.382   5.109  18.013  0.00  0.00    +0.000 A 
ATOM      4  C   UNL     1       6.262   5.215  18.817  0.00  0.00    +0.000 A 
ATOM      5  C   UNL     1       4.991   4.783  18.399  0.00  0.00    +0.000 A 
ATOM      6  C   UNL     1       4.896   4.234  17.108  0.00  0.00    +0.000 A 
ENDROOT
BRANCH   5   7
ATOM      7  C   UNL     1       3.824   4.814  19.298  0.00  0.00    +0.000 A 
ATOM      8  N   UNL     1       3.692   3.703  20.086  0.00  0.00    +0.000 NA
ATOM      9  C   UNL     1       2.708   3.680  20.978  0.00  0.00    +0.000 A 
ATOM     10  N   UNL     1       2.550   2.534  21.731  0.00  0.00    +0.000 N 
ATOM     11  N   UNL     1       1.871   4.683  21.211  0.00  0.00    +0.000 NA
ATOM     12  C   UNL     1       2.019   5.750  20.398  0.00  0.00    +0.000 A 
ATOM     13  C   UNL     1       2.944   5.882  19.402  0.00  0.00    +0.000 A 
ATOM     14 BR   UNL     1       2.869   7.415  18.277  0.00  0.00    +0.000 Br
ATOM     15  H   UNL     1       3.399   1.988  21.753  0.00  0.00    +0.000 HD
ATOM     16  H   UNL     1       2.082   2.720  22.605  0.00  0.00    +0.000 HD
BRANCH  12  17
ATOM     17  O   UNL     1       1.131   6.746  20.665  0.00  0.00    +0.000 OA
ATOM     18  H   UNL     1       1.062   6.692  21.629  0.00  0.00    +0.000 HD
ENDBRANCH  12  17
ENDBRANCH   5   7
BRANCH   1  19
ATOM     19  O   UNL     1       6.029   3.470  15.083  0.00  0.00    +0.000 OA
BRANCH  19  20
ATOM     20  C   UNL     1       5.758   4.294  13.946  0.00  0.00    +0.000 C 
BRANCH  20  21
ATOM     21  C   UNL     1       6.391   3.636  12.723  0.00  0.00    +0.000 C 
BRANCH  21  22
ATOM     22  O   UNL     1       5.370   3.105  11.878  0.00  0.00    +0.000 OA
BRANCH  22  24
ATOM     23  C   UNL     1       7.171   1.742  11.084  0.00  0.00    +0.000 C 
ATOM     24  C   UNL     1       5.698   1.789  11.436  0.00  0.00    +0.000 C 
ENDBRANCH  22  24
ENDBRANCH  21  22
ENDBRANCH  20  21
ENDBRANCH  19  20
ENDBRANCH   1  19
TORSDOF 7
ENDMDL
MODEL 8
REMARK VINA RESULT:      -6.7      3.380      7.651
REMARK  Name = 
REMARK  8 active torsions:
REMARK  status: ('A' for Active; 'I' for Inactive)
REMARK    1  A    between atoms: C_1  and  C_2
REMARK    2  A    between atoms: C_2  and  O_3
REMARK    3  A    between atoms: O_3  and  C_4
REMARK    4  A    between atoms: C_4  and  C_5
REMARK    5  A    between atoms: C_5  and  O_6
REMARK    6  A    between atoms: O_6  and  C_7
REMARK    7  A    between atoms: C_11  and  C_12
REMARK    8  A    between atoms: C_17  and  O_18
REMARK                            x       y       z     vdW  Elec       q    Type
REMARK                         _______ _______ _______ _____ _____    ______ ____
ROOT
ATOM      1  C   UNL     1       2.026   5.394  20.280  0.00  0.00    +0.000 A 
ATOM      2  C   UNL     1       1.565   4.111  20.519  0.00  0.00    +0.000 A 
ATOM      3  C   UNL     1       2.311   2.998  20.175  0.00  0.00    +0.000 A 
ATOM      4  C   UNL     1       3.554   3.189  19.603  0.00  0.00    +0.000 A 
ATOM      5  C   UNL     1       4.075   4.468  19.341  0.00  0.00    +0.000 A 
ATOM      6  C   UNL     1       3.267   5.568  19.681  0.00  0.00    +0.000 A 
ENDROOT
BRANCH   5   7
ATOM      7  C   UNL     1       5.439   4.662  18.820  0.00  0.00    +0.000 A 
ATOM      8  N   UNL     1       6.377   4.924  19.782  0.00  0.00    +0.000 NA
ATOM      9  C   UNL     1       7.646   5.039  19.406  0.00  0.00    +0.000 A 
ATOM     10  N   UNL     1       8.576   5.355  20.375  0.00  0.00    +0.000 N 
ATOM     11  N   UNL     1       8.090   4.860  18.169  0.00  0.00    +0.000 NA
ATOM     12  C   UNL     1       7.133   4.628  17.247  0.00  0.00    +0.000 A 
ATOM     13  C   UNL     1       5.790   4.546  17.482  0.00  0.00    +0.000 A 
ATOM     14 BR   UNL     1       4.609   4.363  16.002  0.00  0.00    +0.000 Br
ATOM     15  H   UNL     1       8.237   5.129  21.299  0.00  0.00    +0.000 HD
ATOM     16  H   UNL     1       9.503   5.048  20.121  0.00  0.00    +0.000 HD
BRANCH  12  17
ATOM     17  O   UNL     1       7.635   4.465  15.992  0.00  0.00    +0.000 OA
ATOM     18  H   UNL     1       8.344   5.123  15.979  0.00  0.00    +0.000 HD
ENDBRANCH  12  17
ENDBRANCH   5   7
BRANCH   1  19
ATOM     19  O   UNL     1       1.234   6.406  20.746  0.00  0.00    +0.000 OA
BRANCH  19  20
ATOM     20  C   UNL     1       1.760   7.729  20.615  0.00  0.00    +0.000 C 
BRANCH  20  21
ATOM     21  C   UNL     1       1.023   8.631  21.602  0.00  0.00    +0.000 C 
BRANCH  21  22
ATOM     22  O   UNL     1       0.424   9.723  20.902  0.00  0.00    +0.000 OA
BRANCH  22  24
ATOM     23  C   UNL     1      -0.599   9.995  23.049  0.00  0.00    +0.000 C 
ATOM     24  C   UNL     1      -0.088  10.698  21.808  0.00  0.00    +0.000 C 
ENDBRANCH  22  24
ENDBRANCH  21  22
ENDBRANCH  20  21
ENDBRANCH  19  20
ENDBRANCH   1  19
TORSDOF 7
ENDMDL
MODEL 9
REMARK VINA RESULT:      -6.6      2.163      2.564
REMARK  Name = 
REMARK  8 active torsions:
REMARK  status: ('A' for Active; 'I' for Inactive)
REMARK    1  A    between atoms: C_1  and  C_2
REMARK    2  A    between atoms: C_2  and  O_3
REMARK    3  A    between atoms: O_3  and  C_4
REMARK    4  A    between atoms: C_4  and  C_5
REMARK    5  A    between atoms: C_5  and  O_6
REMARK    6  A    between atoms: O_6  and  C_7
REMARK    7  A    between atoms: C_11  and  C_12
REMARK    8  A    between atoms: C_17  and  O_18
REMARK                            x       y       z     vdW  Elec       q    Type
REMARK                         _______ _______ _______ _____ _____    ______ ____
ROOT
ATOM      1  C   UNL     1       5.905   4.255  15.410  0.00  0.00    +0.000 A 
ATOM      2  C   UNL     1       7.005   5.086  15.539  0.00  0.00    +0.000 A 
ATOM      3  C   UNL     1       7.125   5.968  16.596  0.00  0.00    +0.000 A 
ATOM      4  C   UNL     1       6.128   5.990  17.554  0.00  0.00    +0.000 A 
ATOM      5  C   UNL     1       4.992   5.166  17.477  0.00  0.00    +0.000 A 
ATOM      6  C   UNL     1       4.900   4.308  16.367  0.00  0.00    +0.000 A 
ENDROOT
BRANCH   5   7
ATOM      7  C   UNL     1       3.983   5.129  18.549  0.00  0.00    +0.000 A 
ATOM      8  N   UNL     1       3.927   3.942  19.228  0.00  0.00    +0.000 NA
ATOM      9  C   UNL     1       3.095   3.848  20.260  0.00  0.00    +0.000 A 
ATOM     10  N   UNL     1       3.007   2.631  20.905  0.00  0.00    +0.000 N 
ATOM     11  N   UNL     1       2.350   4.841  20.727  0.00  0.00    +0.000 NA
ATOM     12  C   UNL     1       2.415   5.986  20.017  0.00  0.00    +0.000 A 
ATOM     13  C   UNL     1       3.177   6.203  18.905  0.00  0.00    +0.000 A 
ATOM     14 BR   UNL     1       2.994   7.852  17.973  0.00  0.00    +0.000 Br
ATOM     15  H   UNL     1       3.824   2.063  20.732  0.00  0.00    +0.000 HD
ATOM     16  H   UNL     1       2.691   2.732  21.857  0.00  0.00    +0.000 HD
BRANCH  12  17
ATOM     17  O   UNL     1       1.625   6.971  20.526  0.00  0.00    +0.000 OA
ATOM     18  H   UNL     1       1.089   7.208  19.756  0.00  0.00    +0.000 HD
ENDBRANCH  12  17
ENDBRANCH   5   7
BRANCH   1  19
ATOM     19  O   UNL     1       5.947   3.370  14.369  0.00  0.00    +0.000 OA
BRANCH  19  20
ATOM     20  C   UNL     1       6.218   3.925  13.080  0.00  0.00    +0.000 C 
BRANCH  20  21
ATOM     21  C   UNL     1       5.472   3.094  12.039  0.00  0.00    +0.000 C 
BRANCH  21  22
ATOM     22  O   UNL     1       4.255   3.751  11.681  0.00  0.00    +0.000 OA
BRANCH  22  24
ATOM     23  C   UNL     1       2.963   4.130   9.702  0.00  0.00    +0.000 C 
ATOM     24  C   UNL     1       3.613   3.090  10.591  0.00  0.00    +0.000 C 
ENDBRANCH  22  24
ENDBRANCH  21  22
ENDBRANCH  20  21
ENDBRANCH  19  20
ENDBRANCH   1  19
TORSDOF 7
ENDMDL
