MODEL 1
REMARK VINA RESULT:      -7.3      0.000      0.000
REMARK  Name = 
REMARK  10 active torsions:
REMARK  status: ('A' for Active; 'I' for Inactive)
REMARK    1  A    between atoms: C_1  and  C_2
REMARK    2  A    between atoms: C_2  and  C_3
REMARK    3  A    between atoms: C_2  and  C_5
REMARK    4  A    between atoms: C_3  and  O_4
REMARK    5  A    between atoms: C_5  and  N_6
REMARK    6  A    between atoms: N_6  and  C_7
REMARK    7  A    between atoms: C_7  and  C_8
REMARK    8  A    between atoms: C_14  and  C_16
REMARK    9  A    between atoms: C_16  and  S_17
REMARK   10  A    between atoms: S_17  and  C_18
REMARK                            x       y       z     vdW  Elec       q    Type
REMARK                         _______ _______ _______ _____ _____    ______ ____
ROOT
ATOM      1  N   UNL     1       4.057   5.291  18.781  0.00  0.00    +0.000 N 
ATOM      2  C   UNL     1       5.444   5.166  18.774  0.00  0.00    +0.000 C 
ATOM      3  O   UNL     1       6.029   4.355  19.495  0.00  0.00    +0.000 OA
ENDROOT
BRANCH   1   4
ATOM      4  C   UNL     1       3.274   4.395  19.647  0.00  0.00    +0.000 C 
BRANCH   4   6
ATOM      5  C   UNL     1       0.917   3.605  20.051  0.00  0.00    +0.000 C 
ATOM      6  C   UNL     1       2.018   3.773  18.994  0.00  0.00    +0.000 C 
BRANCH   6   7
ATOM      7  C   UNL     1       2.321   2.435  18.310  0.00  0.00    +0.000 C 
BRANCH   7   8
ATOM      8  O   UNL     1       1.317   1.471  18.614  0.00  0.00    +0.000 OA
ATOM      9  H   UNL     1       0.542   1.669  18.061  0.00  0.00    +0.000 HD
ENDBRANCH   7   8
ENDBRANCH   6   7
ENDBRANCH   4   6
ENDBRANCH   1   4
BRANCH   1  10
ATOM     10  C   UNL     1       3.308   6.166  17.865  0.00  0.00    +0.000 C 
BRANCH  10  11
ATOM     11  C   UNL     1       2.586   7.336  18.506  0.00  0.00    +0.000 A 
ATOM     12  C   UNL     1       2.180   7.359  19.848  0.00  0.00    +0.000 A 
ATOM     13  C   UNL     1       1.426   8.432  20.345  0.00  0.00    +0.000 A 
ATOM     14  C   UNL     1       1.089   9.498  19.517  0.00  0.00    +0.000 A 
ATOM     15  C   UNL     1       1.526   9.514  18.197  0.00  0.00    +0.000 A 
ATOM     16  C   UNL     1       2.276   8.445  17.699  0.00  0.00    +0.000 A 
ENDBRANCH  10  11
ENDBRANCH   1  10
BRANCH   2  17
ATOM     17  C   UNL     1       6.271   6.029  17.868  0.00  0.00    +0.000 C 
BRANCH  17  18
ATOM     18  S   UNL     1       7.044   5.040  16.621  0.00  0.00    +0.000 S 
ATOM     19  C   UNL     1       5.782   3.947  16.017  0.00  0.00    +0.000 C 
ATOM     20  O   UNL     1       7.394   5.935  15.526  0.00  0.00    +0.000 OA
ATOM     21  O   UNL     1       8.076   4.227  17.239  0.00  0.00    +0.000 OA
ENDBRANCH  17  18
ENDBRANCH   2  17
TORSDOF 8
ENDMDL
MODEL 2
REMARK VINA RESULT:      -7.1      1.365      2.059
REMARK  Name = 
REMARK  10 active torsions:
REMARK  status: ('A' for Active; 'I' for Inactive)
REMARK    1  A    between atoms: C_1  and  C_2
REMARK    2  A    between atoms: C_2  and  C_3
REMARK    3  A    between atoms: C_2  and  C_5
REMARK    4  A    between atoms: C_3  and  O_4
REMARK    5  A    between atoms: C_5  and  N_6
REMARK    6  A    between atoms: N_6  and  C_7
REMARK    7  A    between atoms: C_7  and  C_8
REMARK    8  A    between atoms: C_14  and  C_16
REMARK    9  A    between atoms: C_16  and  S_17
REMARK   10  A    between atoms: S_17  and  C_18
REMARK                            x       y       z     vdW  Elec       q    Type
REMARK                         _______ _______ _______ _____ _____    ______ ____
ROOT
ATOM      1  N   UNL     1       3.533   4.866  18.247  0.00  0.00    +0.000 N 
ATOM      2  C   UNL     1       4.638   4.458  17.503  0.00  0.00    +0.000 C 
ATOM      3  O   UNL     1       4.533   3.681  16.551  0.00  0.00    +0.000 OA
ENDROOT
BRANCH   1   4
ATOM      4  C   UNL     1       2.201   4.381  17.850  0.00  0.00    +0.000 C 
BRANCH   4   6
ATOM      5  C   UNL     1       0.895   3.859  19.939  0.00  0.00    +0.000 C 
ATOM      6  C   UNL     1       1.618   3.250  18.729  0.00  0.00    +0.000 C 
BRANCH   6   7
ATOM      7  C   UNL     1       2.691   2.254  19.183  0.00  0.00    +0.000 C 
BRANCH   7   8
ATOM      8  O   UNL     1       3.045   1.372  18.122  0.00  0.00    +0.000 OA
ATOM      9  H   UNL     1       3.605   0.670  18.499  0.00  0.00    +0.000 HD
ENDBRANCH   7   8
ENDBRANCH   6   7
ENDBRANCH   4   6
ENDBRANCH   1   4
BRANCH   1  10
ATOM     10  C   UNL     1       3.592   5.871  19.320  0.00  0.00    +0.000 C 
BRANCH  10  11
ATOM     11  C   UNL     1       2.727   7.102  19.124  0.00  0.00    +0.000 A 
ATOM     12  C   UNL     1       2.708   7.860  17.946  0.00  0.00    +0.000 A 
ATOM     13  C   UNL     1       1.960   9.044  17.874  0.00  0.00    +0.000 A 
ATOM     14  C   UNL     1       1.211   9.471  18.965  0.00  0.00    +0.000 A 
ATOM     15  C   UNL     1       1.180   8.704  20.125  0.00  0.00    +0.000 A 
ATOM     16  C   UNL     1       1.926   7.524  20.200  0.00  0.00    +0.000 A 
ENDBRANCH  10  11
ENDBRANCH   1  10
BRANCH   2  17
ATOM     17  C   UNL     1       6.005   4.971  17.848  0.00  0.00    +0.000 C 
BRANCH  17  18
ATOM     18  S   UNL     1       6.540   6.145  16.638  0.00  0.00    +0.000 S 
ATOM     19  C   UNL     1       7.466   7.371  17.529  0.00  0.00    +0.000 C 
ATOM     20  O   UNL     1       7.478   5.455  15.763  0.00  0.00    +0.000 OA
ATOM     21  O   UNL     1       5.375   6.798  16.068  0.00  0.00    +0.000 OA
ENDBRANCH  17  18
ENDBRANCH   2  17
TORSDOF 8
ENDMDL
MODEL 3
REMARK VINA RESULT:      -7.0      1.406      1.849
REMARK  Name = 
REMARK  10 active torsions:
REMARK  status: ('A' for Active; 'I' for Inactive)
REMARK    1  A    between atoms: C_1  and  C_2
REMARK    2  A    between atoms: C_2  and  C_3
REMARK    3  A    between atoms: C_2  and  C_5
REMARK    4  A    between atoms: C_3  and  O_4
REMARK    5  A    between atoms: C_5  and  N_6
REMARK    6  A    between atoms: N_6  and  C_7
REMARK    7  A    between atoms: C_7  and  C_8
REMARK    8  A    between atoms: C_14  and  C_16
REMARK    9  A    between atoms: C_16  and  S_17
REMARK   10  A    between atoms: S_17  and  C_18
REMARK                            x       y       z     vdW  Elec       q    Type
REMARK                         _______ _______ _______ _____ _____    ______ ____
ROOT
ATOM      1  N   UNL     1       3.313   4.938  18.172  0.00  0.00    +0.000 N 
ATOM      2  C   UNL     1       4.347   4.447  17.380  0.00  0.00    +0.000 C 
ATOM      3  O   UNL     1       4.143   3.644  16.465  0.00  0.00    +0.000 OA
ENDROOT
BRANCH   1   4
ATOM      4  C   UNL     1       1.935   4.514  17.874  0.00  0.00    +0.000 C 
BRANCH   4   6
ATOM      5  C   UNL     1       0.904   4.120  20.138  0.00  0.00    +0.000 C 
ATOM      6  C   UNL     1       1.349   3.450  18.830  0.00  0.00    +0.000 C 
BRANCH   6   7
ATOM      7  C   UNL     1       2.337   2.312  19.111  0.00  0.00    +0.000 C 
BRANCH   7   8
ATOM      8  O   UNL     1       2.567   1.539  17.937  0.00  0.00    +0.000 OA
ATOM      9  H   UNL     1       3.209   0.843  18.165  0.00  0.00    +0.000 HD
ENDBRANCH   7   8
ENDBRANCH   6   7
ENDBRANCH   4   6
ENDBRANCH   1   4
BRANCH   1  10
ATOM     10  C   UNL     1       3.491   5.975  19.202  0.00  0.00    +0.000 C 
BRANCH  10  11
ATOM     11  C   UNL     1       2.660   7.233  19.028  0.00  0.00    +0.000 A 
ATOM     12  C   UNL     1       2.656   8.007  17.860  0.00  0.00    +0.000 A 
ATOM     13  C   UNL     1       1.943   9.213  17.808  0.00  0.00    +0.000 A 
ATOM     14  C   UNL     1       1.212   9.646  18.910  0.00  0.00    +0.000 A 
ATOM     15  C   UNL     1       1.165   8.864  20.059  0.00  0.00    +0.000 A 
ATOM     16  C   UNL     1       1.877   7.663  20.114  0.00  0.00    +0.000 A 
ENDBRANCH  10  11
ENDBRANCH   1  10
BRANCH   2  17
ATOM     17  C   UNL     1       5.757   4.895  17.622  0.00  0.00    +0.000 C 
BRANCH  17  18
ATOM     18  S   UNL     1       6.343   5.842  16.248  0.00  0.00    +0.000 S 
ATOM     19  C   UNL     1       6.810   4.659  15.008  0.00  0.00    +0.000 C 
ATOM     20  O   UNL     1       5.202   6.580  15.724  0.00  0.00    +0.000 OA
ATOM     21  O   UNL     1       7.539   6.561  16.647  0.00  0.00    +0.000 OA
ENDBRANCH  17  18
ENDBRANCH   2  17
TORSDOF 8
ENDMDL
MODEL 4
REMARK VINA RESULT:      -6.9      1.898      4.133
REMARK  Name = 
REMARK  10 active torsions:
REMARK  status: ('A' for Active; 'I' for Inactive)
REMARK    1  A    between atoms: C_1  and  C_2
REMARK    2  A    between atoms: C_2  and  C_3
REMARK    3  A    between atoms: C_2  and  C_5
REMARK    4  A    between atoms: C_3  and  O_4
REMARK    5  A    between atoms: C_5  and  N_6
REMARK    6  A    between atoms: N_6  and  C_7
REMARK    7  A    between atoms: C_7  and  C_8
REMARK    8  A    between atoms: C_14  and  C_16
REMARK    9  A    between atoms: C_16  and  S_17
REMARK   10  A    between atoms: S_17  and  C_18
REMARK                            x       y       z     vdW  Elec       q    Type
REMARK                         _______ _______ _______ _____ _____    ______ ____
ROOT
ATOM      1  N   UNL     1       4.680   5.064  18.161  0.00  0.00    +0.000 N 
ATOM      2  C   UNL     1       5.937   5.342  17.629  0.00  0.00    +0.000 C 
ATOM      3  O   UNL     1       6.574   6.348  17.951  0.00  0.00    +0.000 OA
ENDROOT
BRANCH   1   4
ATOM      4  C   UNL     1       4.123   5.983  19.167  0.00  0.00    +0.000 C 
BRANCH   4   6
ATOM      5  C   UNL     1       3.194   7.853  17.758  0.00  0.00    +0.000 C 
ATOM      6  C   UNL     1       2.837   6.730  18.743  0.00  0.00    +0.000 C 
BRANCH   6   7
ATOM      7  C   UNL     1       2.064   7.286  19.943  0.00  0.00    +0.000 C 
BRANCH   7   8
ATOM      8  O   UNL     1       1.936   6.301  20.965  0.00  0.00    +0.000 OA
ATOM      9  H   UNL     1       1.920   5.430  20.532  0.00  0.00    +0.000 HD
ENDBRANCH   7   8
ENDBRANCH   6   7
ENDBRANCH   4   6
ENDBRANCH   1   4
BRANCH   1  10
ATOM     10  C   UNL     1       3.931   3.827  17.890  0.00  0.00    +0.000 C 
BRANCH  10  11
ATOM     11  C   UNL     1       2.956   3.392  18.968  0.00  0.00    +0.000 A 
ATOM     12  C   UNL     1       1.563   3.434  18.820  0.00  0.00    +0.000 A 
ATOM     13  C   UNL     1       0.723   3.114  19.897  0.00  0.00    +0.000 A 
ATOM     14  C   UNL     1       1.263   2.730  21.120  0.00  0.00    +0.000 A 
ATOM     15  C   UNL     1       2.642   2.635  21.268  0.00  0.00    +0.000 A 
ATOM     16  C   UNL     1       3.481   2.956  20.197  0.00  0.00    +0.000 A 
ENDBRANCH  10  11
ENDBRANCH   1  10
BRANCH   2  17
ATOM     17  C   UNL     1       6.557   4.402  16.638  0.00  0.00    +0.000 C 
BRANCH  17  18
ATOM     18  S   UNL     1       6.531   5.116  15.020  0.00  0.00    +0.000 S 
ATOM     19  C   UNL     1       6.027   3.812  13.924  0.00  0.00    +0.000 C 
ATOM     20  O   UNL     1       5.471   6.114  15.013  0.00  0.00    +0.000 OA
ATOM     21  O   UNL     1       7.882   5.504  14.655  0.00  0.00    +0.000 OA
ENDBRANCH  17  18
ENDBRANCH   2  17
TORSDOF 8
ENDMDL
MODEL 5
REMARK VINA RESULT:      -6.9      0.649      1.256
REMARK  Name = 
REMARK  10 active torsions:
REMARK  status: ('A' for Active; 'I' for Inactive)
REMARK    1  A    between atoms: C_1  and  C_2
REMARK    2  A    between atoms: C_2  and  C_3
REMARK    3  A    between atoms: C_2  and  C_5
REMARK    4  A    between atoms: C_3  and  O_4
REMARK    5  A    between atoms: C_5  and  N_6
REMARK    6  A    between atoms: N_6  and  C_7
REMARK    7  A    between atoms: C_7  and  C_8
REMARK    8  A    between atoms: C_14  and  C_16
REMARK    9  A    between atoms: C_16  and  S_17
REMARK   10  A    between atoms: S_17  and  C_18
REMARK                            x       y       z     vdW  Elec       q    Type
REMARK                         _______ _______ _______ _____ _____    ______ ____
ROOT
ATOM      1  N   UNL     1       3.905   4.685  18.835  0.00  0.00    +0.000 N 
ATOM      2  C   UNL     1       5.285   4.866  18.886  0.00  0.00    +0.000 C 
ATOM      3  O   UNL     1       6.004   4.191  19.628  0.00  0.00    +0.000 OA
ENDROOT
BRANCH   1   4
ATOM      4  C   UNL     1       3.302   3.628  19.662  0.00  0.00    +0.000 C 
BRANCH   4   6
ATOM      5  C   UNL     1       1.031   3.329  20.711  0.00  0.00    +0.000 C 
ATOM      6  C   UNL     1       1.808   3.341  19.386  0.00  0.00    +0.000 C 
BRANCH   6   7
ATOM      7  C   UNL     1       1.600   2.028  18.623  0.00  0.00    +0.000 C 
BRANCH   7   8
ATOM      8  O   UNL     1       2.833   1.334  18.459  0.00  0.00    +0.000 OA
ATOM      9  H   UNL     1       3.544   1.999  18.444  0.00  0.00    +0.000 HD
ENDBRANCH   7   8
ENDBRANCH   6   7
ENDBRANCH   4   6
ENDBRANCH   1   4
BRANCH   1  10
ATOM     10  C   UNL     1       3.021   5.389  17.892  0.00  0.00    +0.000 C 
BRANCH  10  11
ATOM     11  C   UNL     1       2.450   6.709  18.377  0.00  0.00    +0.000 A 
ATOM     12  C   UNL     1       2.199   7.803  17.538  0.00  0.00    +0.000 A 
ATOM     13  C   UNL     1       1.767   9.025  18.073  0.00  0.00    +0.000 A 
ATOM     14  C   UNL     1       1.562   9.161  19.442  0.00  0.00    +0.000 A 
ATOM     15  C   UNL     1       1.759   8.070  20.282  0.00  0.00    +0.000 A 
ATOM     16  C   UNL     1       2.191   6.851  19.752  0.00  0.00    +0.000 A 
ENDBRANCH  10  11
ENDBRANCH   1  10
BRANCH   2  17
ATOM     17  C   UNL     1       5.940   5.901  18.021  0.00  0.00    +0.000 C 
BRANCH  17  18
ATOM     18  S   UNL     1       6.987   5.124  16.826  0.00  0.00    +0.000 S 
ATOM     19  C   UNL     1       5.979   3.907  16.015  0.00  0.00    +0.000 C 
ATOM     20  O   UNL     1       7.319   6.135  15.831  0.00  0.00    +0.000 OA
ATOM     21  O   UNL     1       8.054   4.425  17.519  0.00  0.00    +0.000 OA
ENDBRANCH  17  18
ENDBRANCH   2  17
TORSDOF 8
ENDMDL
MODEL 6
REMARK VINA RESULT:      -6.9      1.408      1.548
REMARK  Name = 
REMARK  10 active torsions:
REMARK  status: ('A' for Active; 'I' for Inactive)
REMARK    1  A    between atoms: C_1  and  C_2
REMARK    2  A    between atoms: C_2  and  C_3
REMARK    3  A    between atoms: C_2  and  C_5
REMARK    4  A    between atoms: C_3  and  O_4
REMARK    5  A    between atoms: C_5  and  N_6
REMARK    6  A    between atoms: N_6  and  C_7
REMARK    7  A    between atoms: C_7  and  C_8
REMARK    8  A    between atoms: C_14  and  C_16
REMARK    9  A    between atoms: C_16  and  S_17
REMARK   10  A    between atoms: S_17  and  C_18
REMARK                            x       y       z     vdW  Elec       q    Type
REMARK                         _______ _______ _______ _____ _____    ______ ____
ROOT
ATOM      1  N   UNL     1       3.234   4.921  18.277  0.00  0.00    +0.000 N 
ATOM      2  C   UNL     1       4.240   4.496  17.412  0.00  0.00    +0.000 C 
ATOM      3  O   UNL     1       4.012   3.732  16.471  0.00  0.00    +0.000 OA
ENDROOT
BRANCH   1   4
ATOM      4  C   UNL     1       1.855   4.472  18.027  0.00  0.00    +0.000 C 
BRANCH   4   6
ATOM      5  C   UNL     1       0.868   3.918  20.277  0.00  0.00    +0.000 C 
ATOM      6  C   UNL     1       1.353   3.332  18.943  0.00  0.00    +0.000 C 
BRANCH   6   7
ATOM      7  C   UNL     1       2.423   2.260  19.178  0.00  0.00    +0.000 C 
BRANCH   7   8
ATOM      8  O   UNL     1       2.635   1.487  18.001  0.00  0.00    +0.000 OA
ATOM      9  H   UNL     1       1.912   1.692  17.381  0.00  0.00    +0.000 HD
ENDBRANCH   7   8
ENDBRANCH   6   7
ENDBRANCH   4   6
ENDBRANCH   1   4
BRANCH   1  10
ATOM     10  C   UNL     1       3.436   5.913  19.345  0.00  0.00    +0.000 C 
BRANCH  10  11
ATOM     11  C   UNL     1       2.674   7.216  19.194  0.00  0.00    +0.000 A 
ATOM     12  C   UNL     1       1.851   7.756  20.191  0.00  0.00    +0.000 A 
ATOM     13  C   UNL     1       1.097   8.912  19.942  0.00  0.00    +0.000 A 
ATOM     14  C   UNL     1       1.171   9.548  18.707  0.00  0.00    +0.000 A 
ATOM     15  C   UNL     1       2.021   9.053  17.724  0.00  0.00    +0.000 A 
ATOM     16  C   UNL     1       2.773   7.900  17.969  0.00  0.00    +0.000 A 
ENDBRANCH  10  11
ENDBRANCH   1  10
BRANCH   2  17
ATOM     17  C   UNL     1       5.649   4.973  17.607  0.00  0.00    +0.000 C 
BRANCH  17  18
ATOM     18  S   UNL     1       6.243   5.745  16.131  0.00  0.00    +0.000 S 
ATOM     19  C   UNL     1       6.455   4.434  14.951  0.00  0.00    +0.000 C 
ATOM     20  O   UNL     1       5.169   6.595  15.635  0.00  0.00    +0.000 OA
ATOM     21  O   UNL     1       7.550   6.320  16.393  0.00  0.00    +0.000 OA
ENDBRANCH  17  18
ENDBRANCH   2  17
TORSDOF 8
ENDMDL
MODEL 7
REMARK VINA RESULT:      -6.9      1.327      1.764
REMARK  Name = 
REMARK  10 active torsions:
REMARK  status: ('A' for Active; 'I' for Inactive)
REMARK    1  A    between atoms: C_1  and  C_2
REMARK    2  A    between atoms: C_2  and  C_3
REMARK    3  A    between atoms: C_2  and  C_5
REMARK    4  A    between atoms: C_3  and  O_4
REMARK    5  A    between atoms: C_5  and  N_6
REMARK    6  A    between atoms: N_6  and  C_7
REMARK    7  A    between atoms: C_7  and  C_8
REMARK    8  A    between atoms: C_14  and  C_16
REMARK    9  A    between atoms: C_16  and  S_17
REMARK   10  A    between atoms: S_17  and  C_18
REMARK                            x       y       z     vdW  Elec       q    Type
REMARK                         _______ _______ _______ _____ _____    ______ ____
ROOT
ATOM      1  N   UNL     1       3.242   4.849  18.497  0.00  0.00    +0.000 N 
ATOM      2  C   UNL     1       4.356   4.343  17.832  0.00  0.00    +0.000 C 
ATOM      3  O   UNL     1       4.249   3.586  16.863  0.00  0.00    +0.000 OA
ENDROOT
BRANCH   1   4
ATOM      4  C   UNL     1       1.904   4.499  17.995  0.00  0.00    +0.000 C 
BRANCH   4   6
ATOM      5  C   UNL     1       0.941   3.970  20.262  0.00  0.00    +0.000 C 
ATOM      6  C   UNL     1       1.137   3.448  18.831  0.00  0.00    +0.000 C 
BRANCH   6   7
ATOM      7  C   UNL     1       1.840   2.087  18.841  0.00  0.00    +0.000 C 
BRANCH   7   8
ATOM      8  O   UNL     1       2.170   1.676  17.517  0.00  0.00    +0.000 OA
ATOM      9  H   UNL     1       2.712   0.871  17.586  0.00  0.00    +0.000 HD
ENDBRANCH   7   8
ENDBRANCH   6   7
ENDBRANCH   4   6
ENDBRANCH   1   4
BRANCH   1  10
ATOM     10  C   UNL     1       3.317   5.836  19.586  0.00  0.00    +0.000 C 
BRANCH  10  11
ATOM     11  C   UNL     1       2.618   7.159  19.332  0.00  0.00    +0.000 A 
ATOM     12  C   UNL     1       1.801   7.800  20.273  0.00  0.00    +0.000 A 
ATOM     13  C   UNL     1       1.105   8.969  19.931  0.00  0.00    +0.000 A 
ATOM     14  C   UNL     1       1.233   9.518  18.659  0.00  0.00    +0.000 A 
ATOM     15  C   UNL     1       2.079   8.922  17.730  0.00  0.00    +0.000 A 
ATOM     16  C   UNL     1       2.772   7.756  18.068  0.00  0.00    +0.000 A 
ENDBRANCH  10  11
ENDBRANCH   1  10
BRANCH   2  17
ATOM     17  C   UNL     1       5.736   4.717  18.285  0.00  0.00    +0.000 C 
BRANCH  17  18
ATOM     18  S   UNL     1       6.550   5.672  17.038  0.00  0.00    +0.000 S 
ATOM     19  C   UNL     1       7.531   6.870  17.908  0.00  0.00    +0.000 C 
ATOM     20  O   UNL     1       7.475   4.778  16.355  0.00  0.00    +0.000 OA
ATOM     21  O   UNL     1       5.551   6.392  16.269  0.00  0.00    +0.000 OA
ENDBRANCH  17  18
ENDBRANCH   2  17
TORSDOF 8
ENDMDL
MODEL 8
REMARK VINA RESULT:      -6.8      1.948      4.433
REMARK  Name = 
REMARK  10 active torsions:
REMARK  status: ('A' for Active; 'I' for Inactive)
REMARK    1  A    between atoms: C_1  and  C_2
REMARK    2  A    between atoms: C_2  and  C_3
REMARK    3  A    between atoms: C_2  and  C_5
REMARK    4  A    between atoms: C_3  and  O_4
REMARK    5  A    between atoms: C_5  and  N_6
REMARK    6  A    between atoms: N_6  and  C_7
REMARK    7  A    between atoms: C_7  and  C_8
REMARK    8  A    between atoms: C_14  and  C_16
REMARK    9  A    between atoms: C_16  and  S_17
REMARK   10  A    between atoms: S_17  and  C_18
REMARK                            x       y       z     vdW  Elec       q    Type
REMARK                         _______ _______ _______ _____ _____    ______ ____
ROOT
ATOM      1  N   UNL     1       3.575   5.134  17.451  0.00  0.00    +0.000 N 
ATOM      2  C   UNL     1       4.745   5.766  17.041  0.00  0.00    +0.000 C 
ATOM      3  O   UNL     1       4.824   6.994  16.943  0.00  0.00    +0.000 OA
ENDROOT
BRANCH   1   4
ATOM      4  C   UNL     1       2.416   5.965  17.816  0.00  0.00    +0.000 C 
BRANCH   4   6
ATOM      5  C   UNL     1       2.064   6.454  20.262  0.00  0.00    +0.000 C 
ATOM      6  C   UNL     1       2.664   6.985  18.951  0.00  0.00    +0.000 C 
BRANCH   6   7
ATOM      7  C   UNL     1       2.102   8.372  18.620  0.00  0.00    +0.000 C 
BRANCH   7   8
ATOM      8  O   UNL     1       2.448   8.756  17.292  0.00  0.00    +0.000 OA
ATOM      9  H   UNL     1       1.651   9.130  16.878  0.00  0.00    +0.000 HD
ENDBRANCH   7   8
ENDBRANCH   6   7
ENDBRANCH   4   6
ENDBRANCH   1   4
BRANCH   1  10
ATOM     10  C   UNL     1       3.465   3.685  17.685  0.00  0.00    +0.000 C 
BRANCH  10  11
ATOM     11  C   UNL     1       2.690   3.269  18.922  0.00  0.00    +0.000 A 
ATOM     12  C   UNL     1       1.300   3.093  18.946  0.00  0.00    +0.000 A 
ATOM     13  C   UNL     1       0.639   2.809  20.150  0.00  0.00    +0.000 A 
ATOM     14  C   UNL     1       1.359   2.677  21.333  0.00  0.00    +0.000 A 
ATOM     15  C   UNL     1       2.745   2.799  21.317  0.00  0.00    +0.000 A 
ATOM     16  C   UNL     1       3.405   3.085  20.119  0.00  0.00    +0.000 A 
ENDBRANCH  10  11
ENDBRANCH   1  10
BRANCH   2  17
ATOM     17  C   UNL     1       5.962   4.954  16.709  0.00  0.00    +0.000 C 
BRANCH  17  18
ATOM     18  S   UNL     1       7.120   5.013  18.044  0.00  0.00    +0.000 S 
ATOM     19  C   UNL     1       7.707   6.689  18.103  0.00  0.00    +0.000 C 
ATOM     20  O   UNL     1       6.368   4.782  19.269  0.00  0.00    +0.000 OA
ATOM     21  O   UNL     1       8.250   4.159  17.725  0.00  0.00    +0.000 OA
ENDBRANCH  17  18
ENDBRANCH   2  17
TORSDOF 8
ENDMDL
MODEL 9
REMARK VINA RESULT:      -6.8      1.314      1.449
REMARK  Name = 
REMARK  10 active torsions:
REMARK  status: ('A' for Active; 'I' for Inactive)
REMARK    1  A    between atoms: C_1  and  C_2
REMARK    2  A    between atoms: C_2  and  C_3
REMARK    3  A    between atoms: C_2  and  C_5
REMARK    4  A    between atoms: C_3  and  O_4
REMARK    5  A    between atoms: C_5  and  N_6
REMARK    6  A    between atoms: N_6  and  C_7
REMARK    7  A    between atoms: C_7  and  C_8
REMARK    8  A    between atoms: C_14  and  C_16
REMARK    9  A    between atoms: C_16  and  S_17
REMARK   10  A    between atoms: S_17  and  C_18
REMARK                            x       y       z     vdW  Elec       q    Type
REMARK                         _______ _______ _______ _____ _____    ______ ____
ROOT
ATOM      1  N   UNL     1       4.093   5.256  19.050  0.00  0.00    +0.000 N 
ATOM      2  C   UNL     1       5.450   5.214  18.740  0.00  0.00    +0.000 C 
ATOM      3  O   UNL     1       6.269   4.650  19.471  0.00  0.00    +0.000 OA
ENDROOT
BRANCH   1   4
ATOM      4  C   UNL     1       3.628   4.568  20.265  0.00  0.00    +0.000 C 
BRANCH   4   6
ATOM      5  C   UNL     1       2.242   2.769  21.355  0.00  0.00    +0.000 C 
ATOM      6  C   UNL     1       2.822   3.270  20.024  0.00  0.00    +0.000 C 
BRANCH   6   7
ATOM      7  C   UNL     1       3.663   2.179  19.354  0.00  0.00    +0.000 C 
BRANCH   7   8
ATOM      8  O   UNL     1       4.928   2.046  19.996  0.00  0.00    +0.000 OA
ATOM      9  H   UNL     1       5.122   1.096  20.069  0.00  0.00    +0.000 HD
ENDBRANCH   7   8
ENDBRANCH   6   7
ENDBRANCH   4   6
ENDBRANCH   1   4
BRANCH   1  10
ATOM     10  C   UNL     1       3.067   5.821  18.160  0.00  0.00    +0.000 C 
BRANCH  10  11
ATOM     11  C   UNL     1       2.486   7.157  18.582  0.00  0.00    +0.000 A 
ATOM     12  C   UNL     1       1.997   7.422  19.869  0.00  0.00    +0.000 A 
ATOM     13  C   UNL     1       1.380   8.648  20.157  0.00  0.00    +0.000 A 
ATOM     14  C   UNL     1       1.264   9.626  19.175  0.00  0.00    +0.000 A 
ATOM     15  C   UNL     1       1.790   9.398  17.907  0.00  0.00    +0.000 A 
ATOM     16  C   UNL     1       2.403   8.176  17.617  0.00  0.00    +0.000 A 
ENDBRANCH  10  11
ENDBRANCH   1  10
BRANCH   2  17
ATOM     17  C   UNL     1       5.954   5.861  17.485  0.00  0.00    +0.000 C 
BRANCH  17  18
ATOM     18  S   UNL     1       6.455   4.628  16.320  0.00  0.00    +0.000 S 
ATOM     19  C   UNL     1       6.261   5.368  14.717  0.00  0.00    +0.000 C 
ATOM     20  O   UNL     1       7.881   4.410  16.519  0.00  0.00    +0.000 OA
ATOM     21  O   UNL     1       5.540   3.503  16.402  0.00  0.00    +0.000 OA
ENDBRANCH  17  18
ENDBRANCH   2  17
TORSDOF 8
ENDMDL
