MODEL 1
REMARK VINA RESULT:      -8.3      0.000      0.000
REMARK  Name = 
REMARK  2 active torsions:
REMARK  status: ('A' for Active; 'I' for Inactive)
REMARK    1  A    between atoms: C_7  and  C_8
REMARK    2  A    between atoms: C_9  and  C_10
REMARK                            x       y       z     vdW  Elec       q    Type
REMARK                         _______ _______ _______ _____ _____    ______ ____
ROOT
ATOM      1 BR   UNL     1       6.207   3.879  14.771  0.00  0.00    +0.000 Br
ATOM      2  C   UNL     1       5.217   4.935  15.986  0.00  0.00    +0.000 A 
ATOM      3  C   UNL     1       5.250   6.327  15.874  0.00  0.00    +0.000 A 
ATOM      4  C   UNL     1       4.523   7.117  16.768  0.00  0.00    +0.000 A 
ATOM      5  C   UNL     1       3.762   6.521  17.773  0.00  0.00    +0.000 A 
ATOM      6  N   UNL     1       3.037   7.359  18.662  0.00  0.00    +0.000 NA
ATOM      7  C   UNL     1       2.321   6.817  19.610  0.00  0.00    +0.000 A 
ATOM      8  N   UNL     1       2.263   5.430  19.758  0.00  0.00    +0.000 N 
ATOM      9  N   UNL     1       1.575   4.736  20.683  0.00  0.00    +0.000 NA
ATOM     10  N   UNL     1       1.833   3.460  20.414  0.00  0.00    +0.000 NA
ATOM     11  N   UNL     1       2.678   3.335  19.330  0.00  0.00    +0.000 NA
ATOM     12  C   UNL     1       2.933   4.564  18.938  0.00  0.00    +0.000 A 
ATOM     13  C   UNL     1       3.740   5.111  17.872  0.00  0.00    +0.000 A 
ATOM     14  C   UNL     1       4.464   4.317  16.983  0.00  0.00    +0.000 A 
ENDROOT
BRANCH   7  15
ATOM     15  C   UNL     1       1.516   7.588  20.593  0.00  0.00    +0.000 C 
ATOM     16  C   UNL     1       1.215   8.871  20.344  0.00  0.00    +0.000 C 
BRANCH  16  17
ATOM     17  C   UNL     1       0.395   9.702  21.238  0.00  0.00    +0.000 A 
ATOM     18  C   UNL     1      -0.019   9.262  22.502  0.00  0.00    +0.000 A 
ATOM     19  C   UNL     1      -0.813  10.074  23.313  0.00  0.00    +0.000 A 
ATOM     20  C   UNL     1      -1.185  11.343  22.879  0.00  0.00    +0.000 A 
ATOM     21  C   UNL     1      -0.750  11.808  21.640  0.00  0.00    +0.000 A 
ATOM     22  C   UNL     1       0.042  10.995  20.826  0.00  0.00    +0.000 A 
ENDBRANCH  16  17
ENDBRANCH   7  15
TORSDOF 2
ENDMDL
MODEL 2
REMARK VINA RESULT:      -8.2      0.166      1.028
REMARK  Name = 
REMARK  2 active torsions:
REMARK  status: ('A' for Active; 'I' for Inactive)
REMARK    1  A    between atoms: C_7  and  C_8
REMARK    2  A    between atoms: C_9  and  C_10
REMARK                            x       y       z     vdW  Elec       q    Type
REMARK                         _______ _______ _______ _____ _____    ______ ____
ROOT
ATOM      1 BR   UNL     1       6.155   3.799  14.770  0.00  0.00    +0.000 Br
ATOM      2  C   UNL     1       5.172   4.866  15.982  0.00  0.00    +0.000 A 
ATOM      3  C   UNL     1       5.246   6.257  15.890  0.00  0.00    +0.000 A 
ATOM      4  C   UNL     1       4.524   7.055  16.781  0.00  0.00    +0.000 A 
ATOM      5  C   UNL     1       3.729   6.467  17.765  0.00  0.00    +0.000 A 
ATOM      6  N   UNL     1       3.011   7.312  18.652  0.00  0.00    +0.000 NA
ATOM      7  C   UNL     1       2.264   6.778  19.580  0.00  0.00    +0.000 A 
ATOM      8  N   UNL     1       2.165   5.391  19.707  0.00  0.00    +0.000 N 
ATOM      9  N   UNL     1       1.441   4.704  20.610  0.00  0.00    +0.000 NA
ATOM     10  N   UNL     1       1.669   3.425  20.327  0.00  0.00    +0.000 NA
ATOM     11  N   UNL     1       2.530   3.292  19.257  0.00  0.00    +0.000 NA
ATOM     12  C   UNL     1       2.825   4.517  18.887  0.00  0.00    +0.000 A 
ATOM     13  C   UNL     1       3.666   5.057  17.844  0.00  0.00    +0.000 A 
ATOM     14  C   UNL     1       4.384   4.255  16.957  0.00  0.00    +0.000 A 
ENDROOT
BRANCH   7  15
ATOM     15  C   UNL     1       1.462   7.557  20.559  0.00  0.00    +0.000 C 
ATOM     16  C   UNL     1       1.133   8.829  20.285  0.00  0.00    +0.000 C 
BRANCH  16  17
ATOM     17  C   UNL     1       0.315   9.666  21.175  0.00  0.00    +0.000 A 
ATOM     18  C   UNL     1      -0.323  10.832  20.731  0.00  0.00    +0.000 A 
ATOM     19  C   UNL     1      -1.075  11.611  21.612  0.00  0.00    +0.000 A 
ATOM     20  C   UNL     1      -1.215  11.221  22.942  0.00  0.00    +0.000 A 
ATOM     21  C   UNL     1      -0.617  10.046  23.387  0.00  0.00    +0.000 A 
ATOM     22  C   UNL     1       0.139   9.268  22.508  0.00  0.00    +0.000 A 
ENDBRANCH  16  17
ENDBRANCH   7  15
TORSDOF 2
ENDMDL
MODEL 3
REMARK VINA RESULT:      -7.9      7.901     10.373
REMARK  Name = 
REMARK  2 active torsions:
REMARK  status: ('A' for Active; 'I' for Inactive)
REMARK    1  A    between atoms: C_7  and  C_8
REMARK    2  A    between atoms: C_9  and  C_10
REMARK                            x       y       z     vdW  Elec       q    Type
REMARK                         _______ _______ _______ _____ _____    ______ ____
ROOT
ATOM      1 BR   UNL     1      12.283  17.110  17.946  0.00  0.00    +0.000 Br
ATOM      2  C   UNL     1      11.606  15.345  17.933  0.00  0.00    +0.000 A 
ATOM      3  C   UNL     1      11.676  14.590  16.761  0.00  0.00    +0.000 A 
ATOM      4  C   UNL     1      11.177  13.284  16.739  0.00  0.00    +0.000 A 
ATOM      5  C   UNL     1      10.609  12.732  17.887  0.00  0.00    +0.000 A 
ATOM      6  N   UNL     1      10.114  11.402  17.825  0.00  0.00    +0.000 NA
ATOM      7  C   UNL     1       9.577  10.869  18.890  0.00  0.00    +0.000 A 
ATOM      8  N   UNL     1       9.486  11.592  20.081  0.00  0.00    +0.000 N 
ATOM      9  N   UNL     1       8.960  11.177  21.248  0.00  0.00    +0.000 NA
ATOM     10  N   UNL     1       9.106  12.209  22.074  0.00  0.00    +0.000 NA
ATOM     11  N   UNL     1       9.716  13.274  21.444  0.00  0.00    +0.000 NA
ATOM     12  C   UNL     1       9.944  12.874  20.213  0.00  0.00    +0.000 A 
ATOM     13  C   UNL     1      10.547  13.510  19.065  0.00  0.00    +0.000 A 
ATOM     14  C   UNL     1      11.042  14.813  19.092  0.00  0.00    +0.000 A 
ENDROOT
BRANCH   7  15
ATOM     15  C   UNL     1       9.032   9.488  18.949  0.00  0.00    +0.000 C 
ATOM     16  C   UNL     1       8.268   9.032  17.945  0.00  0.00    +0.000 C 
BRANCH  16  17
ATOM     17  C   UNL     1       7.715   7.670  17.898  0.00  0.00    +0.000 A 
ATOM     18  C   UNL     1       6.815   7.260  16.906  0.00  0.00    +0.000 A 
ATOM     19  C   UNL     1       6.297   5.964  16.909  0.00  0.00    +0.000 A 
ATOM     20  C   UNL     1       6.689   5.057  17.890  0.00  0.00    +0.000 A 
ATOM     21  C   UNL     1       7.611   5.441  18.861  0.00  0.00    +0.000 A 
ATOM     22  C   UNL     1       8.127   6.739  18.862  0.00  0.00    +0.000 A 
ENDBRANCH  16  17
ENDBRANCH   7  15
TORSDOF 2
ENDMDL
MODEL 4
REMARK VINA RESULT:      -7.8      4.019      7.991
REMARK  Name = 
REMARK  2 active torsions:
REMARK  status: ('A' for Active; 'I' for Inactive)
REMARK    1  A    between atoms: C_7  and  C_8
REMARK    2  A    between atoms: C_9  and  C_10
REMARK                            x       y       z     vdW  Elec       q    Type
REMARK                         _______ _______ _______ _____ _____    ______ ____
ROOT
ATOM      1 BR   UNL     1      -1.554  13.068  23.034  0.00  0.00    +0.000 Br
ATOM      2  C   UNL     1      -0.745  11.471  22.428  0.00  0.00    +0.000 A 
ATOM      3  C   UNL     1      -0.793  10.329  23.230  0.00  0.00    +0.000 A 
ATOM      4  C   UNL     1      -0.197   9.143  22.793  0.00  0.00    +0.000 A 
ATOM      5  C   UNL     1       0.447   9.095  21.557  0.00  0.00    +0.000 A 
ATOM      6  N   UNL     1       1.040   7.871  21.148  0.00  0.00    +0.000 NA
ATOM      7  C   UNL     1       1.649   7.809  19.994  0.00  0.00    +0.000 A 
ATOM      8  N   UNL     1       1.721   8.930  19.164  0.00  0.00    +0.000 N 
ATOM      9  N   UNL     1       2.313   9.015  17.958  0.00  0.00    +0.000 NA
ATOM     10  N   UNL     1       2.114  10.270  17.569  0.00  0.00    +0.000 NA
ATOM     11  N   UNL     1       1.405  10.984  18.513  0.00  0.00    +0.000 NA
ATOM     12  C   UNL     1       1.171  10.138  19.492  0.00  0.00    +0.000 A 
ATOM     13  C   UNL     1       0.486  10.260  20.758  0.00  0.00    +0.000 A 
ATOM     14  C   UNL     1      -0.107  11.447  21.189  0.00  0.00    +0.000 A 
ENDROOT
BRANCH   7  15
ATOM     15  C   UNL     1       2.299   6.586  19.457  0.00  0.00    +0.000 C 
ATOM     16  C   UNL     1       1.871   5.378  19.854  0.00  0.00    +0.000 C 
BRANCH  16  17
ATOM     17  C   UNL     1       2.428   4.113  19.351  0.00  0.00    +0.000 A 
ATOM     18  C   UNL     1       2.113   3.605  18.084  0.00  0.00    +0.000 A 
ATOM     19  C   UNL     1       2.647   2.390  17.651  0.00  0.00    +0.000 A 
ATOM     20  C   UNL     1       3.518   1.680  18.473  0.00  0.00    +0.000 A 
ATOM     21  C   UNL     1       3.868   2.191  19.720  0.00  0.00    +0.000 A 
ATOM     22  C   UNL     1       3.332   3.404  20.155  0.00  0.00    +0.000 A 
ENDBRANCH  16  17
ENDBRANCH   7  15
TORSDOF 2
ENDMDL
MODEL 5
REMARK VINA RESULT:      -7.7      4.033      7.970
REMARK  Name = 
REMARK  2 active torsions:
REMARK  status: ('A' for Active; 'I' for Inactive)
REMARK    1  A    between atoms: C_7  and  C_8
REMARK    2  A    between atoms: C_9  and  C_10
REMARK                            x       y       z     vdW  Elec       q    Type
REMARK                         _______ _______ _______ _____ _____    ______ ____
ROOT
ATOM      1 BR   UNL     1      -1.789  13.125  22.856  0.00  0.00    +0.000 Br
ATOM      2  C   UNL     1      -0.875  11.532  22.408  0.00  0.00    +0.000 A 
ATOM      3  C   UNL     1      -0.804  10.494  23.339  0.00  0.00    +0.000 A 
ATOM      4  C   UNL     1      -0.131   9.313  23.019  0.00  0.00    +0.000 A 
ATOM      5  C   UNL     1       0.473   9.166  21.771  0.00  0.00    +0.000 A 
ATOM      6  N   UNL     1       1.148   7.950  21.483  0.00  0.00    +0.000 NA
ATOM      7  C   UNL     1       1.721   7.796  20.319  0.00  0.00    +0.000 A 
ATOM      8  N   UNL     1       1.675   8.810  19.361  0.00  0.00    +0.000 N 
ATOM      9  N   UNL     1       2.217   8.795  18.129  0.00  0.00    +0.000 NA
ATOM     10  N   UNL     1       1.905   9.975  17.604  0.00  0.00    +0.000 NA
ATOM     11  N   UNL     1       1.174  10.742  18.488  0.00  0.00    +0.000 NA
ATOM     12  C   UNL     1       1.041  10.005  19.568  0.00  0.00    +0.000 A 
ATOM     13  C   UNL     1       0.392  10.226  20.840  0.00  0.00    +0.000 A 
ATOM     14  C   UNL     1      -0.279  11.408  21.154  0.00  0.00    +0.000 A 
ENDROOT
BRANCH   7  15
ATOM     15  C   UNL     1       2.448   6.570  19.902  0.00  0.00    +0.000 C 
ATOM     16  C   UNL     1       1.757   5.482  19.529  0.00  0.00    +0.000 C 
BRANCH  16  17
ATOM     17  C   UNL     1       2.388   4.237  19.067  0.00  0.00    +0.000 A 
ATOM     18  C   UNL     1       3.731   3.934  19.327  0.00  0.00    +0.000 A 
ATOM     19  C   UNL     1       4.299   2.750  18.854  0.00  0.00    +0.000 A 
ATOM     20  C   UNL     1       3.524   1.845  18.134  0.00  0.00    +0.000 A 
ATOM     21  C   UNL     1       2.178   2.115  17.900  0.00  0.00    +0.000 A 
ATOM     22  C   UNL     1       1.610   3.302  18.370  0.00  0.00    +0.000 A 
ENDBRANCH  16  17
ENDBRANCH   7  15
TORSDOF 2
ENDMDL
MODEL 6
REMARK VINA RESULT:      -7.6      5.075      7.152
REMARK  Name = 
REMARK  2 active torsions:
REMARK  status: ('A' for Active; 'I' for Inactive)
REMARK    1  A    between atoms: C_7  and  C_8
REMARK    2  A    between atoms: C_9  and  C_10
REMARK                            x       y       z     vdW  Elec       q    Type
REMARK                         _______ _______ _______ _____ _____    ______ ____
ROOT
ATOM      1 BR   UNL     1       2.198   1.773  18.278  0.00  0.00    +0.000 Br
ATOM      2  C   UNL     1       3.417   3.216  18.357  0.00  0.00    +0.000 A 
ATOM      3  C   UNL     1       3.447   4.030  19.491  0.00  0.00    +0.000 A 
ATOM      4  C   UNL     1       4.343   5.100  19.559  0.00  0.00    +0.000 A 
ATOM      5  C   UNL     1       5.210   5.359  18.498  0.00  0.00    +0.000 A 
ATOM      6  N   UNL     1       6.106   6.456  18.605  0.00  0.00    +0.000 NA
ATOM      7  C   UNL     1       6.923   6.713  17.619  0.00  0.00    +0.000 A 
ATOM      8  N   UNL     1       6.923   5.924  16.467  0.00  0.00    +0.000 N 
ATOM      9  N   UNL     1       7.700   6.070  15.378  0.00  0.00    +0.000 NA
ATOM     10  N   UNL     1       7.333   5.087  14.563  0.00  0.00    +0.000 NA
ATOM     11  N   UNL     1       6.330   4.320  15.119  0.00  0.00    +0.000 NA
ATOM     12  C   UNL     1       6.090   4.852  16.296  0.00  0.00    +0.000 A 
ATOM     13  C   UNL     1       5.166   4.525  17.357  0.00  0.00    +0.000 A 
ATOM     14  C   UNL     1       4.274   3.455  17.284  0.00  0.00    +0.000 A 
ENDROOT
BRANCH   7  15
ATOM     15  C   UNL     1       7.908   7.825  17.619  0.00  0.00    +0.000 C 
ATOM     16  C   UNL     1       7.529   9.048  18.022  0.00  0.00    +0.000 C 
BRANCH  16  17
ATOM     17  C   UNL     1       8.440  10.200  18.089  0.00  0.00    +0.000 A 
ATOM     18  C   UNL     1       8.166  11.413  17.443  0.00  0.00    +0.000 A 
ATOM     19  C   UNL     1       9.066  12.477  17.516  0.00  0.00    +0.000 A 
ATOM     20  C   UNL     1      10.241  12.348  18.252  0.00  0.00    +0.000 A 
ATOM     21  C   UNL     1      10.508  11.160  18.929  0.00  0.00    +0.000 A 
ATOM     22  C   UNL     1       9.610  10.094  18.855  0.00  0.00    +0.000 A 
ENDBRANCH  16  17
ENDBRANCH   7  15
TORSDOF 2
ENDMDL
MODEL 7
REMARK VINA RESULT:      -7.5      0.985      1.080
REMARK  Name = 
REMARK  2 active torsions:
REMARK  status: ('A' for Active; 'I' for Inactive)
REMARK    1  A    between atoms: C_7  and  C_8
REMARK    2  A    between atoms: C_9  and  C_10
REMARK                            x       y       z     vdW  Elec       q    Type
REMARK                         _______ _______ _______ _____ _____    ______ ____
ROOT
ATOM      1 BR   UNL     1       6.299   3.776  13.673  0.00  0.00    +0.000 Br
ATOM      2  C   UNL     1       5.504   4.735  15.095  0.00  0.00    +0.000 A 
ATOM      3  C   UNL     1       5.914   6.044  15.355  0.00  0.00    +0.000 A 
ATOM      4  C   UNL     1       5.334   6.762  16.404  0.00  0.00    +0.000 A 
ATOM      5  C   UNL     1       4.346   6.175  17.194  0.00  0.00    +0.000 A 
ATOM      6  N   UNL     1       3.781   6.937  18.251  0.00  0.00    +0.000 NA
ATOM      7  C   UNL     1       2.856   6.402  19.002  0.00  0.00    +0.000 A 
ATOM      8  N   UNL     1       2.420   5.095  18.776  0.00  0.00    +0.000 N 
ATOM      9  N   UNL     1       1.484   4.416  19.465  0.00  0.00    +0.000 NA
ATOM     10  N   UNL     1       1.423   3.227  18.875  0.00  0.00    +0.000 NA
ATOM     11  N   UNL     1       2.310   3.140  17.822  0.00  0.00    +0.000 NA
ATOM     12  C   UNL     1       2.917   4.305  17.776  0.00  0.00    +0.000 A 
ATOM     13  C   UNL     1       3.943   4.849  16.917  0.00  0.00    +0.000 A 
ATOM     14  C   UNL     1       4.519   4.127  15.871  0.00  0.00    +0.000 A 
ENDROOT
BRANCH   7  15
ATOM     15  C   UNL     1       2.187   7.101  20.130  0.00  0.00    +0.000 C 
ATOM     16  C   UNL     1       1.565   8.269  19.911  0.00  0.00    +0.000 C 
BRANCH  16  17
ATOM     17  C   UNL     1       0.847   9.016  20.955  0.00  0.00    +0.000 A 
ATOM     18  C   UNL     1       0.888   8.645  22.306  0.00  0.00    +0.000 A 
ATOM     19  C   UNL     1       0.176   9.368  23.264  0.00  0.00    +0.000 A 
ATOM     20  C   UNL     1      -0.568  10.482  22.886  0.00  0.00    +0.000 A 
ATOM     21  C   UNL     1      -0.588  10.884  21.553  0.00  0.00    +0.000 A 
ATOM     22  C   UNL     1       0.121  10.159  20.592  0.00  0.00    +0.000 A 
ENDBRANCH  16  17
ENDBRANCH   7  15
TORSDOF 2
ENDMDL
MODEL 8
REMARK VINA RESULT:      -7.5      4.968      7.134
REMARK  Name = 
REMARK  2 active torsions:
REMARK  status: ('A' for Active; 'I' for Inactive)
REMARK    1  A    between atoms: C_7  and  C_8
REMARK    2  A    between atoms: C_9  and  C_10
REMARK                            x       y       z     vdW  Elec       q    Type
REMARK                         _______ _______ _______ _____ _____    ______ ____
ROOT
ATOM      1 BR   UNL     1       1.970   2.091  18.036  0.00  0.00    +0.000 Br
ATOM      2  C   UNL     1       3.251   3.474  18.179  0.00  0.00    +0.000 A 
ATOM      3  C   UNL     1       3.272   4.276  19.322  0.00  0.00    +0.000 A 
ATOM      4  C   UNL     1       4.214   5.302  19.438  0.00  0.00    +0.000 A 
ATOM      5  C   UNL     1       5.135   5.528  18.416  0.00  0.00    +0.000 A 
ATOM      6  N   UNL     1       6.077   6.580  18.572  0.00  0.00    +0.000 NA
ATOM      7  C   UNL     1       6.945   6.806  17.623  0.00  0.00    +0.000 A 
ATOM      8  N   UNL     1       6.956   6.028  16.464  0.00  0.00    +0.000 N 
ATOM      9  N   UNL     1       7.783   6.147  15.409  0.00  0.00    +0.000 NA
ATOM     10  N   UNL     1       7.405   5.189  14.569  0.00  0.00    +0.000 NA
ATOM     11  N   UNL     1       6.345   4.466  15.075  0.00  0.00    +0.000 NA
ATOM     12  C   UNL     1       6.081   4.999  16.248  0.00  0.00    +0.000 A 
ATOM     13  C   UNL     1       5.100   4.706  17.266  0.00  0.00    +0.000 A 
ATOM     14  C   UNL     1       4.162   3.681  17.145  0.00  0.00    +0.000 A 
ENDROOT
BRANCH   7  15
ATOM     15  C   UNL     1       7.980   7.871  17.675  0.00  0.00    +0.000 C 
ATOM     16  C   UNL     1       7.651   9.097  18.107  0.00  0.00    +0.000 C 
BRANCH  16  17
ATOM     17  C   UNL     1       8.613  10.203  18.226  0.00  0.00    +0.000 A 
ATOM     18  C   UNL     1       9.760  10.117  19.026  0.00  0.00    +0.000 A 
ATOM     19  C   UNL     1      10.638  11.196  19.129  0.00  0.00    +0.000 A 
ATOM     20  C   UNL     1      10.391  12.367  18.417  0.00  0.00    +0.000 A 
ATOM     21  C   UNL     1       9.274  12.453  17.590  0.00  0.00    +0.000 A 
ATOM     22  C   UNL     1       8.392  11.375  17.489  0.00  0.00    +0.000 A 
ENDBRANCH  16  17
ENDBRANCH   7  15
TORSDOF 2
ENDMDL
MODEL 9
REMARK VINA RESULT:      -7.5      3.107      8.042
REMARK  Name = 
REMARK  2 active torsions:
REMARK  status: ('A' for Active; 'I' for Inactive)
REMARK    1  A    between atoms: C_7  and  C_8
REMARK    2  A    between atoms: C_9  and  C_10
REMARK                            x       y       z     vdW  Elec       q    Type
REMARK                         _______ _______ _______ _____ _____    ______ ____
ROOT
ATOM      1 BR   UNL     1       0.320   8.828  21.987  0.00  0.00    +0.000 Br
ATOM      2  C   UNL     1       1.338   8.091  20.575  0.00  0.00    +0.000 A 
ATOM      3  C   UNL     1       1.592   8.858  19.437  0.00  0.00    +0.000 A 
ATOM      4  C   UNL     1       2.343   8.323  18.387  0.00  0.00    +0.000 A 
ATOM      5  C   UNL     1       2.840   7.022  18.471  0.00  0.00    +0.000 A 
ATOM      6  N   UNL     1       3.598   6.514  17.383  0.00  0.00    +0.000 NA
ATOM      7  C   UNL     1       4.069   5.298  17.445  0.00  0.00    +0.000 A 
ATOM      8  N   UNL     1       3.836   4.497  18.565  0.00  0.00    +0.000 N 
ATOM      9  N   UNL     1       4.253   3.234  18.766  0.00  0.00    +0.000 NA
ATOM     10  N   UNL     1       3.786   2.908  19.967  0.00  0.00    +0.000 NA
ATOM     11  N   UNL     1       3.075   3.948  20.530  0.00  0.00    +0.000 NA
ATOM     12  C   UNL     1       3.117   4.922  19.649  0.00  0.00    +0.000 A 
ATOM     13  C   UNL     1       2.573   6.260  19.631  0.00  0.00    +0.000 A 
ATOM     14  C   UNL     1       1.825   6.789  20.682  0.00  0.00    +0.000 A 
ENDROOT
BRANCH   7  15
ATOM     15  C   UNL     1       4.880   4.661  16.375  0.00  0.00    +0.000 C 
ATOM     16  C   UNL     1       4.988   5.257  15.179  0.00  0.00    +0.000 C 
BRANCH  16  17
ATOM     17  C   UNL     1       5.795   4.722  14.073  0.00  0.00    +0.000 A 
ATOM     18  C   UNL     1       7.095   5.171  13.806  0.00  0.00    +0.000 A 
ATOM     19  C   UNL     1       7.822   4.652  12.734  0.00  0.00    +0.000 A 
ATOM     20  C   UNL     1       7.265   3.662  11.928  0.00  0.00    +0.000 A 
ATOM     21  C   UNL     1       5.987   3.180  12.204  0.00  0.00    +0.000 A 
ATOM     22  C   UNL     1       5.258   3.702  13.275  0.00  0.00    +0.000 A 
ENDBRANCH  16  17
ENDBRANCH   7  15
TORSDOF 2
ENDMDL
