MODEL 1
REMARK VINA RESULT:      -7.9      0.000      0.000
REMARK  Name = 
REMARK  8 active torsions:
REMARK  status: ('A' for Active; 'I' for Inactive)
REMARK    1  A    between atoms: C_1  and  C_2
REMARK    2  A    between atoms: C_2  and  O_3
REMARK    3  A    between atoms: O_3  and  C_4
REMARK    4  A    between atoms: C_9  and  N_10
REMARK    5  A    between atoms: C_11  and  C_13
REMARK    6  A    between atoms: C_14  and  N_15
REMARK    7  A    between atoms: C_16  and  C_18
REMARK    8  A    between atoms: C_18  and  C_19
REMARK                            x       y       z     vdW  Elec       q    Type
REMARK                         _______ _______ _______ _____ _____    ______ ____
ROOT
ATOM      1  C   UNL     1       2.401   7.366  19.153  0.00  0.00    +0.000 A 
ATOM      2  C   UNL     1       1.963   6.884  20.383  0.00  0.00    +0.000 A 
ATOM      3  S   UNL     1       1.168   8.038  21.333  0.00  0.00    +0.000 S 
ATOM      4  C   UNL     1       1.286   9.199  20.098  0.00  0.00    +0.000 A 
ATOM      5  C   UNL     1       1.886   8.705  18.947  0.00  0.00    +0.000 A 
ATOM      6  C   UNL     1       1.866   9.524  17.690  0.00  0.00    +0.000 C 
ATOM      7  C   UNL     1       1.771  11.029  17.996  0.00  0.00    +0.000 C 
ATOM      8  C   UNL     1       0.627  11.337  18.973  0.00  0.00    +0.000 C 
ATOM      9  C   UNL     1       0.779  10.594  20.305  0.00  0.00    +0.000 C 
ENDROOT
BRANCH   1  11
ATOM     10  N   UNL     1       4.469   6.749  17.991  0.00  0.00    +0.000 N 
ATOM     11  C   UNL     1       3.137   6.465  18.252  0.00  0.00    +0.000 C 
ATOM     12  O   UNL     1       2.576   5.442  17.847  0.00  0.00    +0.000 OA
ATOM     13  H   UNL     1       4.964   7.366  18.624  0.00  0.00    +0.000 HD
BRANCH  10  19
ATOM     14  C   UNL     1       6.349   5.221  17.548  0.00  0.00    +0.000 A 
ATOM     15  C   UNL     1       7.071   4.427  16.639  0.00  0.00    +0.000 A 
ATOM     16  C   UNL     1       6.810   4.479  15.266  0.00  0.00    +0.000 A 
ATOM     17  C   UNL     1       5.820   5.324  14.795  0.00  0.00    +0.000 A 
ATOM     18  C   UNL     1       5.061   6.079  15.691  0.00  0.00    +0.000 A 
ATOM     19  C   UNL     1       5.286   6.014  17.077  0.00  0.00    +0.000 A 
BRANCH  14  20
ATOM     20  O   UNL     1       6.632   5.257  18.899  0.00  0.00    +0.000 OA
BRANCH  20  22
ATOM     21  C   UNL     1       8.097   7.149  18.577  0.00  0.00    +0.000 C 
ATOM     22  C   UNL     1       7.928   5.788  19.221  0.00  0.00    +0.000 C 
ENDBRANCH  20  22
ENDBRANCH  14  20
ENDBRANCH  10  19
ENDBRANCH   1  11
BRANCH   2  23
ATOM     23  N   UNL     1       2.212   5.630  20.927  0.00  0.00    +0.000 N 
ATOM     24  C   UNL     1       1.278   4.605  20.840  0.00  0.00    +0.000 C 
ATOM     25  O   UNL     1       0.148   4.683  20.363  0.00  0.00    +0.000 OA
ATOM     26  H   UNL     1       3.171   5.313  20.803  0.00  0.00    +0.000 HD
BRANCH  24  27
ATOM     27  C   UNL     1       1.810   3.286  21.396  0.00  0.00    +0.000 C 
BRANCH  27  28
ATOM     28  C   UNL     1       2.608   2.529  20.364  0.00  0.00    +0.000 A 
ATOM     29  C   UNL     1       3.961   2.247  20.596  0.00  0.00    +0.000 A 
ATOM     30  C   UNL     1       4.727   1.607  19.623  0.00  0.00    +0.000 A 
ATOM     31  C   UNL     1       4.147   1.233  18.413  0.00  0.00    +0.000 A 
ATOM     32  C   UNL     1       2.794   1.480  18.183  0.00  0.00    +0.000 A 
ATOM     33  C   UNL     1       2.026   2.125  19.155  0.00  0.00    +0.000 A 
ENDBRANCH  27  28
ENDBRANCH  24  27
ENDBRANCH   2  23
TORSDOF 7
ENDMDL
MODEL 2
REMARK VINA RESULT:      -7.8      0.905      1.337
REMARK  Name = 
REMARK  8 active torsions:
REMARK  status: ('A' for Active; 'I' for Inactive)
REMARK    1  A    between atoms: C_1  and  C_2
REMARK    2  A    between atoms: C_2  and  O_3
REMARK    3  A    between atoms: O_3  and  C_4
REMARK    4  A    between atoms: C_9  and  N_10
REMARK    5  A    between atoms: C_11  and  C_13
REMARK    6  A    between atoms: C_14  and  N_15
REMARK    7  A    between atoms: C_16  and  C_18
REMARK    8  A    between atoms: C_18  and  C_19
REMARK                            x       y       z     vdW  Elec       q    Type
REMARK                         _______ _______ _______ _____ _____    ______ ____
ROOT
ATOM      1  C   UNL     1       2.260   7.463  19.217  0.00  0.00    +0.000 A 
ATOM      2  C   UNL     1       1.939   6.995  20.488  0.00  0.00    +0.000 A 
ATOM      3  S   UNL     1       1.266   8.170  21.505  0.00  0.00    +0.000 S 
ATOM      4  C   UNL     1       1.283   9.323  20.258  0.00  0.00    +0.000 A 
ATOM      5  C   UNL     1       1.754   8.812  19.056  0.00  0.00    +0.000 A 
ATOM      6  C   UNL     1       1.625   9.626  17.802  0.00  0.00    +0.000 C 
ATOM      7  C   UNL     1       1.591  11.134  18.107  0.00  0.00    +0.000 C 
ATOM      8  C   UNL     1       0.558  11.470  19.192  0.00  0.00    +0.000 C 
ATOM      9  C   UNL     1       0.828  10.729  20.506  0.00  0.00    +0.000 C 
ENDROOT
BRANCH   1  11
ATOM     10  N   UNL     1       4.267   6.541  18.153  0.00  0.00    +0.000 N 
ATOM     11  C   UNL     1       2.884   6.544  18.252  0.00  0.00    +0.000 C 
ATOM     12  O   UNL     1       2.164   5.743  17.646  0.00  0.00    +0.000 OA
ATOM     13  H   UNL     1       4.806   6.936  18.914  0.00  0.00    +0.000 HD
BRANCH  10  19
ATOM     14  C   UNL     1       6.200   6.261  16.653  0.00  0.00    +0.000 A 
ATOM     15  C   UNL     1       6.961   5.435  15.806  0.00  0.00    +0.000 A 
ATOM     16  C   UNL     1       6.509   4.165  15.436  0.00  0.00    +0.000 A 
ATOM     17  C   UNL     1       5.293   3.711  15.916  0.00  0.00    +0.000 A 
ATOM     18  C   UNL     1       4.552   4.499  16.798  0.00  0.00    +0.000 A 
ATOM     19  C   UNL     1       5.006   5.764  17.208  0.00  0.00    +0.000 A 
BRANCH  14  20
ATOM     20  O   UNL     1       6.574   7.551  16.975  0.00  0.00    +0.000 OA
BRANCH  20  22
ATOM     21  C   UNL     1       8.144   9.104  17.951  0.00  0.00    +0.000 C 
ATOM     22  C   UNL     1       7.804   7.647  17.711  0.00  0.00    +0.000 C 
ENDBRANCH  20  22
ENDBRANCH  14  20
ENDBRANCH  10  19
ENDBRANCH   1  11
BRANCH   2  23
ATOM     23  N   UNL     1       2.216   5.739  21.012  0.00  0.00    +0.000 N 
ATOM     24  C   UNL     1       1.337   4.676  20.846  0.00  0.00    +0.000 C 
ATOM     25  O   UNL     1       0.232   4.716  20.308  0.00  0.00    +0.000 OA
ATOM     26  H   UNL     1       3.194   5.469  20.934  0.00  0.00    +0.000 HD
BRANCH  24  27
ATOM     27  C   UNL     1       1.898   3.367  21.396  0.00  0.00    +0.000 C 
BRANCH  27  28
ATOM     28  C   UNL     1       2.713   2.633  20.361  0.00  0.00    +0.000 A 
ATOM     29  C   UNL     1       2.149   2.323  19.116  0.00  0.00    +0.000 A 
ATOM     30  C   UNL     1       2.868   1.587  18.176  0.00  0.00    +0.000 A 
ATOM     31  C   UNL     1       4.163   1.162  18.465  0.00  0.00    +0.000 A 
ATOM     32  C   UNL     1       4.746   1.490  19.688  0.00  0.00    +0.000 A 
ATOM     33  C   UNL     1       4.026   2.224  20.633  0.00  0.00    +0.000 A 
ENDBRANCH  27  28
ENDBRANCH  24  27
ENDBRANCH   2  23
TORSDOF 7
ENDMDL
MODEL 3
REMARK VINA RESULT:      -6.8      2.291      7.006
REMARK  Name = 
REMARK  8 active torsions:
REMARK  status: ('A' for Active; 'I' for Inactive)
REMARK    1  A    between atoms: C_1  and  C_2
REMARK    2  A    between atoms: C_2  and  O_3
REMARK    3  A    between atoms: O_3  and  C_4
REMARK    4  A    between atoms: C_9  and  N_10
REMARK    5  A    between atoms: C_11  and  C_13
REMARK    6  A    between atoms: C_14  and  N_15
REMARK    7  A    between atoms: C_16  and  C_18
REMARK    8  A    between atoms: C_18  and  C_19
REMARK                            x       y       z     vdW  Elec       q    Type
REMARK                         _______ _______ _______ _____ _____    ______ ____
ROOT
ATOM      1  C   UNL     1       3.183   5.425  18.366  0.00  0.00    +0.000 A 
ATOM      2  C   UNL     1       3.982   4.776  17.429  0.00  0.00    +0.000 A 
ATOM      3  S   UNL     1       3.993   3.090  17.583  0.00  0.00    +0.000 S 
ATOM      4  C   UNL     1       2.852   3.153  18.839  0.00  0.00    +0.000 A 
ATOM      5  C   UNL     1       2.424   4.445  19.117  0.00  0.00    +0.000 A 
ATOM      6  C   UNL     1       1.259   4.659  20.038  0.00  0.00    +0.000 C 
ATOM      7  C   UNL     1       1.109   3.502  21.040  0.00  0.00    +0.000 C 
ATOM      8  C   UNL     1       1.121   2.137  20.337  0.00  0.00    +0.000 C 
ATOM      9  C   UNL     1       2.406   1.903  19.535  0.00  0.00    +0.000 C 
ENDROOT
BRANCH   1  11
ATOM     10  N   UNL     1       2.009   7.504  18.923  0.00  0.00    +0.000 N 
ATOM     11  C   UNL     1       3.118   6.896  18.356  0.00  0.00    +0.000 C 
ATOM     12  O   UNL     1       4.093   7.529  17.939  0.00  0.00    +0.000 OA
ATOM     13  H   UNL     1       1.437   6.965  19.563  0.00  0.00    +0.000 HD
BRANCH  10  19
ATOM     14  C   UNL     1       1.117   9.532  19.997  0.00  0.00    +0.000 A 
ATOM     15  C   UNL     1       0.987  10.932  20.013  0.00  0.00    +0.000 A 
ATOM     16  C   UNL     1       1.415  11.711  18.933  0.00  0.00    +0.000 A 
ATOM     17  C   UNL     1       1.980  11.092  17.832  0.00  0.00    +0.000 A 
ATOM     18  C   UNL     1       2.162   9.708  17.825  0.00  0.00    +0.000 A 
ATOM     19  C   UNL     1       1.770   8.913  18.916  0.00  0.00    +0.000 A 
BRANCH  14  20
ATOM     20  O   UNL     1       0.634   8.725  21.008  0.00  0.00    +0.000 OA
BRANCH  20  22
ATOM     21  C   UNL     1      -0.217   9.460  23.146  0.00  0.00    +0.000 C 
ATOM     22  C   UNL     1       1.019   9.133  22.331  0.00  0.00    +0.000 C 
ENDBRANCH  20  22
ENDBRANCH  14  20
ENDBRANCH  10  19
ENDBRANCH   1  11
BRANCH   2  23
ATOM     23  N   UNL     1       4.826   5.366  16.497  0.00  0.00    +0.000 N 
ATOM     24  C   UNL     1       6.198   5.150  16.524  0.00  0.00    +0.000 C 
ATOM     25  O   UNL     1       6.822   4.506  17.365  0.00  0.00    +0.000 OA
ATOM     26  H   UNL     1       4.441   5.394  15.556  0.00  0.00    +0.000 HD
BRANCH  24  27
ATOM     27  C   UNL     1       6.911   5.797  15.338  0.00  0.00    +0.000 C 
BRANCH  27  28
ATOM     28  C   UNL     1       6.747   4.982  14.079  0.00  0.00    +0.000 A 
ATOM     29  C   UNL     1       5.714   4.040  13.985  0.00  0.00    +0.000 A 
ATOM     30  C   UNL     1       5.593   3.234  12.855  0.00  0.00    +0.000 A 
ATOM     31  C   UNL     1       6.494   3.369  11.801  0.00  0.00    +0.000 A 
ATOM     32  C   UNL     1       7.507   4.324  11.870  0.00  0.00    +0.000 A 
ATOM     33  C   UNL     1       7.634   5.129  13.004  0.00  0.00    +0.000 A 
ENDBRANCH  27  28
ENDBRANCH  24  27
ENDBRANCH   2  23
TORSDOF 7
ENDMDL
MODEL 4
REMARK VINA RESULT:      -6.7      0.959      1.298
REMARK  Name = 
REMARK  8 active torsions:
REMARK  status: ('A' for Active; 'I' for Inactive)
REMARK    1  A    between atoms: C_1  and  C_2
REMARK    2  A    between atoms: C_2  and  O_3
REMARK    3  A    between atoms: O_3  and  C_4
REMARK    4  A    between atoms: C_9  and  N_10
REMARK    5  A    between atoms: C_11  and  C_13
REMARK    6  A    between atoms: C_14  and  N_15
REMARK    7  A    between atoms: C_16  and  C_18
REMARK    8  A    between atoms: C_18  and  C_19
REMARK                            x       y       z     vdW  Elec       q    Type
REMARK                         _______ _______ _______ _____ _____    ______ ____
ROOT
ATOM      1  C   UNL     1       2.209   7.909  19.259  0.00  0.00    +0.000 A 
ATOM      2  C   UNL     1       1.886   7.204  20.415  0.00  0.00    +0.000 A 
ATOM      3  S   UNL     1       0.864   8.044  21.472  0.00  0.00    +0.000 S 
ATOM      4  C   UNL     1       0.730   9.340  20.382  0.00  0.00    +0.000 A 
ATOM      5  C   UNL     1       1.420   9.123  19.196  0.00  0.00    +0.000 A 
ATOM      6  C   UNL     1       1.225  10.061  18.041  0.00  0.00    +0.000 C 
ATOM      7  C   UNL     1       0.811  11.465  18.516  0.00  0.00    +0.000 C 
ATOM      8  C   UNL     1      -0.371  11.408  19.495  0.00  0.00    +0.000 C 
ATOM      9  C   UNL     1      -0.062  10.562  20.735  0.00  0.00    +0.000 C 
ENDROOT
BRANCH   1  11
ATOM     10  N   UNL     1       3.567   6.007  18.520  0.00  0.00    +0.000 N 
ATOM     11  C   UNL     1       3.119   7.296  18.277  0.00  0.00    +0.000 C 
ATOM     12  O   UNL     1       3.365   7.909  17.234  0.00  0.00    +0.000 OA
ATOM     13  H   UNL     1       3.054   5.433  19.179  0.00  0.00    +0.000 HD
BRANCH  10  19
ATOM     14  C   UNL     1       5.823   5.085  18.162  0.00  0.00    +0.000 A 
ATOM     15  C   UNL     1       6.701   4.313  17.382  0.00  0.00    +0.000 A 
ATOM     16  C   UNL     1       6.327   3.845  16.119  0.00  0.00    +0.000 A 
ATOM     17  C   UNL     1       5.067   4.144  15.631  0.00  0.00    +0.000 A 
ATOM     18  C   UNL     1       4.167   4.866  16.416  0.00  0.00    +0.000 A 
ATOM     19  C   UNL     1       4.513   5.315  17.702  0.00  0.00    +0.000 A 
BRANCH  14  20
ATOM     20  O   UNL     1       6.185   5.632  19.378  0.00  0.00    +0.000 OA
BRANCH  20  22
ATOM     21  C   UNL     1       8.047   6.969  18.618  0.00  0.00    +0.000 C 
ATOM     22  C   UNL     1       7.597   5.849  19.535  0.00  0.00    +0.000 C 
ENDBRANCH  20  22
ENDBRANCH  14  20
ENDBRANCH  10  19
ENDBRANCH   1  11
BRANCH   2  23
ATOM     23  N   UNL     1       2.397   5.977  20.816  0.00  0.00    +0.000 N 
ATOM     24  C   UNL     1       1.597   4.842  20.869  0.00  0.00    +0.000 C 
ATOM     25  O   UNL     1       0.389   4.787  20.649  0.00  0.00    +0.000 OA
ATOM     26  H   UNL     1       3.337   5.792  20.473  0.00  0.00    +0.000 HD
BRANCH  24  27
ATOM     27  C   UNL     1       2.392   3.586  21.219  0.00  0.00    +0.000 C 
BRANCH  27  28
ATOM     28  C   UNL     1       2.866   2.865  19.981  0.00  0.00    +0.000 A 
ATOM     29  C   UNL     1       2.019   2.751  18.871  0.00  0.00    +0.000 A 
ATOM     30  C   UNL     1       2.419   2.031  17.747  0.00  0.00    +0.000 A 
ATOM     31  C   UNL     1       3.673   1.425  17.716  0.00  0.00    +0.000 A 
ATOM     32  C   UNL     1       4.536   1.557  18.802  0.00  0.00    +0.000 A 
ATOM     33  C   UNL     1       4.137   2.275  19.931  0.00  0.00    +0.000 A 
ENDBRANCH  27  28
ENDBRANCH  24  27
ENDBRANCH   2  23
TORSDOF 7
ENDMDL
MODEL 5
REMARK VINA RESULT:      -6.6      4.960      9.029
REMARK  Name = 
REMARK  8 active torsions:
REMARK  status: ('A' for Active; 'I' for Inactive)
REMARK    1  A    between atoms: C_1  and  C_2
REMARK    2  A    between atoms: C_2  and  O_3
REMARK    3  A    between atoms: O_3  and  C_4
REMARK    4  A    between atoms: C_9  and  N_10
REMARK    5  A    between atoms: C_11  and  C_13
REMARK    6  A    between atoms: C_14  and  N_15
REMARK    7  A    between atoms: C_16  and  C_18
REMARK    8  A    between atoms: C_18  and  C_19
REMARK                            x       y       z     vdW  Elec       q    Type
REMARK                         _______ _______ _______ _____ _____    ______ ____
ROOT
ATOM      1  C   UNL     1      -0.696  13.104  19.474  0.00  0.00    +0.000 A 
ATOM      2  C   UNL     1       0.396  12.241  19.434  0.00  0.00    +0.000 A 
ATOM      3  S   UNL     1       1.848  12.988  18.985  0.00  0.00    +0.000 S 
ATOM      4  C   UNL     1       1.097  14.510  18.925  0.00  0.00    +0.000 A 
ATOM      5  C   UNL     1      -0.242  14.468  19.289  0.00  0.00    +0.000 A 
ATOM      6  C   UNL     1      -0.994  15.749  19.507  0.00  0.00    +0.000 C 
ATOM      7  C   UNL     1      -0.392  16.904  18.690  0.00  0.00    +0.000 C 
ATOM      8  C   UNL     1       1.126  17.015  18.895  0.00  0.00    +0.000 C 
ATOM      9  C   UNL     1       1.864  15.728  18.507  0.00  0.00    +0.000 C 
ENDROOT
BRANCH   1  11
ATOM     10  N   UNL     1      -2.998  12.556  18.834  0.00  0.00    +0.000 N 
ATOM     11  C   UNL     1      -2.022  12.565  19.818  0.00  0.00    +0.000 C 
ATOM     12  O   UNL     1      -2.183  12.052  20.930  0.00  0.00    +0.000 OA
ATOM     13  H   UNL     1      -2.709  12.641  17.866  0.00  0.00    +0.000 HD
BRANCH  10  19
ATOM     14  C   UNL     1      -4.858  11.005  18.383  0.00  0.00    +0.000 A 
ATOM     15  C   UNL     1      -6.156  10.557  18.685  0.00  0.00    +0.000 A 
ATOM     16  C   UNL     1      -6.982  11.269  19.560  0.00  0.00    +0.000 A 
ATOM     17  C   UNL     1      -6.511  12.433  20.142  0.00  0.00    +0.000 A 
ATOM     18  C   UNL     1      -5.206  12.861  19.892  0.00  0.00    +0.000 A 
ATOM     19  C   UNL     1      -4.349  12.140  19.042  0.00  0.00    +0.000 A 
BRANCH  14  20
ATOM     20  O   UNL     1      -4.043  10.374  17.463  0.00  0.00    +0.000 OA
BRANCH  20  22
ATOM     21  C   UNL     1      -2.892  10.785  15.380  0.00  0.00    +0.000 C 
ATOM     22  C   UNL     1      -4.221  10.818  16.109  0.00  0.00    +0.000 C 
ENDBRANCH  20  22
ENDBRANCH  14  20
ENDBRANCH  10  19
ENDBRANCH   1  11
BRANCH   2  23
ATOM     23  N   UNL     1       0.380  10.863  19.607  0.00  0.00    +0.000 N 
ATOM     24  C   UNL     1       0.838  10.276  20.780  0.00  0.00    +0.000 C 
ATOM     25  O   UNL     1       1.353  10.853  21.736  0.00  0.00    +0.000 OA
ATOM     26  H   UNL     1      -0.449  10.412  19.228  0.00  0.00    +0.000 HD
BRANCH  24  27
ATOM     27  C   UNL     1       0.615   8.766  20.799  0.00  0.00    +0.000 C 
BRANCH  27  28
ATOM     28  C   UNL     1       1.549   8.053  19.853  0.00  0.00    +0.000 A 
ATOM     29  C   UNL     1       2.100   6.816  20.213  0.00  0.00    +0.000 A 
ATOM     30  C   UNL     1       3.015   6.179  19.377  0.00  0.00    +0.000 A 
ATOM     31  C   UNL     1       3.382   6.766  18.168  0.00  0.00    +0.000 A 
ATOM     32  C   UNL     1       2.818   7.982  17.785  0.00  0.00    +0.000 A 
ATOM     33  C   UNL     1       1.903   8.624  18.622  0.00  0.00    +0.000 A 
ENDBRANCH  27  28
ENDBRANCH  24  27
ENDBRANCH   2  23
TORSDOF 7
ENDMDL
MODEL 6
REMARK VINA RESULT:      -6.4      1.847      6.227
REMARK  Name = 
REMARK  8 active torsions:
REMARK  status: ('A' for Active; 'I' for Inactive)
REMARK    1  A    between atoms: C_1  and  C_2
REMARK    2  A    between atoms: C_2  and  O_3
REMARK    3  A    between atoms: O_3  and  C_4
REMARK    4  A    between atoms: C_9  and  N_10
REMARK    5  A    between atoms: C_11  and  C_13
REMARK    6  A    between atoms: C_14  and  N_15
REMARK    7  A    between atoms: C_16  and  C_18
REMARK    8  A    between atoms: C_18  and  C_19
REMARK                            x       y       z     vdW  Elec       q    Type
REMARK                         _______ _______ _______ _____ _____    ______ ____
ROOT
ATOM      1  C   UNL     1       3.454   5.207  18.313  0.00  0.00    +0.000 A 
ATOM      2  C   UNL     1       2.566   6.182  18.759  0.00  0.00    +0.000 A 
ATOM      3  S   UNL     1       1.707   5.746  20.151  0.00  0.00    +0.000 S 
ATOM      4  C   UNL     1       2.559   4.282  20.273  0.00  0.00    +0.000 A 
ATOM      5  C   UNL     1       3.528   4.137  19.289  0.00  0.00    +0.000 A 
ATOM      6  C   UNL     1       4.519   3.014  19.381  0.00  0.00    +0.000 C 
ATOM      7  C   UNL     1       3.949   1.820  20.167  0.00  0.00    +0.000 C 
ATOM      8  C   UNL     1       3.357   2.259  21.515  0.00  0.00    +0.000 C 
ATOM      9  C   UNL     1       2.238   3.294  21.353  0.00  0.00    +0.000 C 
ENDROOT
BRANCH   1  11
ATOM     10  N   UNL     1       4.753   4.361  16.414  0.00  0.00    +0.000 N 
ATOM     11  C   UNL     1       4.235   5.455  17.090  0.00  0.00    +0.000 C 
ATOM     12  O   UNL     1       4.312   6.610  16.661  0.00  0.00    +0.000 OA
ATOM     13  H   UNL     1       4.356   3.447  16.598  0.00  0.00    +0.000 HD
BRANCH  10  19
ATOM     14  C   UNL     1       6.869   5.040  15.353  0.00  0.00    +0.000 A 
ATOM     15  C   UNL     1       7.717   5.023  14.232  0.00  0.00    +0.000 A 
ATOM     16  C   UNL     1       7.286   4.508  13.006  0.00  0.00    +0.000 A 
ATOM     17  C   UNL     1       6.002   4.005  12.896  0.00  0.00    +0.000 A 
ATOM     18  C   UNL     1       5.167   3.970  14.013  0.00  0.00    +0.000 A 
ATOM     19  C   UNL     1       5.595   4.450  15.263  0.00  0.00    +0.000 A 
BRANCH  14  20
ATOM     20  O   UNL     1       7.231   5.613  16.557  0.00  0.00    +0.000 OA
BRANCH  20  22
ATOM     21  C   UNL     1       7.751   5.362  18.902  0.00  0.00    +0.000 C 
ATOM     22  C   UNL     1       7.668   4.675  17.554  0.00  0.00    +0.000 C 
ENDBRANCH  20  22
ENDBRANCH  14  20
ENDBRANCH  10  19
ENDBRANCH   1  11
BRANCH   2  23
ATOM     23  N   UNL     1       2.250   7.377  18.127  0.00  0.00    +0.000 N 
ATOM     24  C   UNL     1       1.878   8.503  18.852  0.00  0.00    +0.000 C 
ATOM     25  O   UNL     1       1.720   8.571  20.069  0.00  0.00    +0.000 OA
ATOM     26  H   UNL     1       2.846   7.590  17.330  0.00  0.00    +0.000 HD
BRANCH  24  27
ATOM     27  C   UNL     1       1.695   9.731  17.964  0.00  0.00    +0.000 C 
BRANCH  27  28
ATOM     28  C   UNL     1       0.418  10.467  18.287  0.00  0.00    +0.000 A 
ATOM     29  C   UNL     1      -0.811   9.962  17.841  0.00  0.00    +0.000 A 
ATOM     30  C   UNL     1      -1.991  10.666  18.076  0.00  0.00    +0.000 A 
ATOM     31  C   UNL     1      -1.957  11.876  18.766  0.00  0.00    +0.000 A 
ATOM     32  C   UNL     1      -0.744  12.372  19.241  0.00  0.00    +0.000 A 
ATOM     33  C   UNL     1       0.440  11.671  19.004  0.00  0.00    +0.000 A 
ENDBRANCH  27  28
ENDBRANCH  24  27
ENDBRANCH   2  23
TORSDOF 7
ENDMDL
MODEL 7
REMARK VINA RESULT:      -6.4      7.930     11.427
REMARK  Name = 
REMARK  8 active torsions:
REMARK  status: ('A' for Active; 'I' for Inactive)
REMARK    1  A    between atoms: C_1  and  C_2
REMARK    2  A    between atoms: C_2  and  O_3
REMARK    3  A    between atoms: O_3  and  C_4
REMARK    4  A    between atoms: C_9  and  N_10
REMARK    5  A    between atoms: C_11  and  C_13
REMARK    6  A    between atoms: C_14  and  N_15
REMARK    7  A    between atoms: C_16  and  C_18
REMARK    8  A    between atoms: C_18  and  C_19
REMARK                            x       y       z     vdW  Elec       q    Type
REMARK                         _______ _______ _______ _____ _____    ______ ____
ROOT
ATOM      1  C   UNL     1      -3.932  14.407  22.957  0.00  0.00    +0.000 A 
ATOM      2  C   UNL     1      -5.221  14.932  22.945  0.00  0.00    +0.000 A 
ATOM      3  S   UNL     1      -5.437  16.252  23.984  0.00  0.00    +0.000 S 
ATOM      4  C   UNL     1      -3.794  16.237  24.415  0.00  0.00    +0.000 A 
ATOM      5  C   UNL     1      -3.066  15.266  23.741  0.00  0.00    +0.000 A 
ATOM      6  C   UNL     1      -1.568  15.262  23.833  0.00  0.00    +0.000 C 
ATOM      7  C   UNL     1      -1.080  15.905  25.142  0.00  0.00    +0.000 C 
ATOM      8  C   UNL     1      -1.728  17.278  25.376  0.00  0.00    +0.000 C 
ATOM      9  C   UNL     1      -3.258  17.201  25.430  0.00  0.00    +0.000 C 
ENDROOT
BRANCH   1  11
ATOM     10  N   UNL     1      -2.549  13.314  21.254  0.00  0.00    +0.000 N 
ATOM     11  C   UNL     1      -3.629  13.234  22.120  0.00  0.00    +0.000 C 
ATOM     12  O   UNL     1      -4.278  12.198  22.293  0.00  0.00    +0.000 OA
ATOM     13  H   UNL     1      -1.849  14.028  21.418  0.00  0.00    +0.000 HD
BRANCH  10  19
ATOM     14  C   UNL     1      -1.156  11.380  20.634  0.00  0.00    +0.000 A 
ATOM     15  C   UNL     1      -0.886  10.321  19.750  0.00  0.00    +0.000 A 
ATOM     16  C   UNL     1      -1.560  10.206  18.530  0.00  0.00    +0.000 A 
ATOM     17  C   UNL     1      -2.513  11.151  18.190  0.00  0.00    +0.000 A 
ATOM     18  C   UNL     1      -2.826  12.179  19.080  0.00  0.00    +0.000 A 
ATOM     19  C   UNL     1      -2.184  12.290  20.326  0.00  0.00    +0.000 A 
BRANCH  14  20
ATOM     20  O   UNL     1      -0.455  11.572  21.808  0.00  0.00    +0.000 OA
BRANCH  20  22
ATOM     21  C   UNL     1      -0.057   9.614  23.165  0.00  0.00    +0.000 C 
ATOM     22  C   UNL     1      -0.949  10.816  22.926  0.00  0.00    +0.000 C 
ENDBRANCH  20  22
ENDBRANCH  14  20
ENDBRANCH  10  19
ENDBRANCH   1  11
BRANCH   2  23
ATOM     23  N   UNL     1      -6.326  14.423  22.276  0.00  0.00    +0.000 N 
ATOM     24  C   UNL     1      -6.616  14.794  20.968  0.00  0.00    +0.000 C 
ATOM     25  O   UNL     1      -6.012  15.625  20.293  0.00  0.00    +0.000 OA
ATOM     26  H   UNL     1      -6.500  13.438  22.463  0.00  0.00    +0.000 HD
BRANCH  24  27
ATOM     27  C   UNL     1      -7.801  14.021  20.394  0.00  0.00    +0.000 C 
BRANCH  27  28
ATOM     28  C   UNL     1      -7.391  12.653  19.911  0.00  0.00    +0.000 A 
ATOM     29  C   UNL     1      -6.822  12.501  18.639  0.00  0.00    +0.000 A 
ATOM     30  C   UNL     1      -6.501  11.235  18.154  0.00  0.00    +0.000 A 
ATOM     31  C   UNL     1      -6.734  10.108  18.938  0.00  0.00    +0.000 A 
ATOM     32  C   UNL     1      -7.271  10.248  20.216  0.00  0.00    +0.000 A 
ATOM     33  C   UNL     1      -7.597  11.515  20.703  0.00  0.00    +0.000 A 
ENDBRANCH  27  28
ENDBRANCH  24  27
ENDBRANCH   2  23
TORSDOF 7
ENDMDL
MODEL 8
REMARK VINA RESULT:      -6.4      2.172      6.994
REMARK  Name = 
REMARK  8 active torsions:
REMARK  status: ('A' for Active; 'I' for Inactive)
REMARK    1  A    between atoms: C_1  and  C_2
REMARK    2  A    between atoms: C_2  and  O_3
REMARK    3  A    between atoms: O_3  and  C_4
REMARK    4  A    between atoms: C_9  and  N_10
REMARK    5  A    between atoms: C_11  and  C_13
REMARK    6  A    between atoms: C_14  and  N_15
REMARK    7  A    between atoms: C_16  and  C_18
REMARK    8  A    between atoms: C_18  and  C_19
REMARK                            x       y       z     vdW  Elec       q    Type
REMARK                         _______ _______ _______ _____ _____    ______ ____
ROOT
ATOM      1  C   UNL     1       3.193   5.537  18.652  0.00  0.00    +0.000 A 
ATOM      2  C   UNL     1       4.172   4.919  17.879  0.00  0.00    +0.000 A 
ATOM      3  S   UNL     1       4.515   3.327  18.345  0.00  0.00    +0.000 S 
ATOM      4  C   UNL     1       3.299   3.366  19.530  0.00  0.00    +0.000 A 
ATOM      5  C   UNL     1       2.599   4.565  19.548  0.00  0.00    +0.000 A 
ATOM      6  C   UNL     1       1.352   4.686  20.375  0.00  0.00    +0.000 C 
ATOM      7  C   UNL     1       1.370   3.718  21.570  0.00  0.00    +0.000 C 
ATOM      8  C   UNL     1       1.709   2.284  21.135  0.00  0.00    +0.000 C 
ATOM      9  C   UNL     1       3.068   2.192  20.432  0.00  0.00    +0.000 C 
ENDROOT
BRANCH   1  11
ATOM     10  N   UNL     1       2.187   7.659  19.357  0.00  0.00    +0.000 N 
ATOM     11  C   UNL     1       2.832   6.935  18.365  0.00  0.00    +0.000 C 
ATOM     12  O   UNL     1       3.205   7.437  17.300  0.00  0.00    +0.000 OA
ATOM     13  H   UNL     1       2.240   7.322  20.312  0.00  0.00    +0.000 HD
BRANCH  10  19
ATOM     14  C   UNL     1       0.853   9.567  20.158  0.00  0.00    +0.000 A 
ATOM     15  C   UNL     1       0.477  10.915  20.029  0.00  0.00    +0.000 A 
ATOM     16  C   UNL     1       0.862  11.672  18.918  0.00  0.00    +0.000 A 
ATOM     17  C   UNL     1       1.632  11.082  17.931  0.00  0.00    +0.000 A 
ATOM     18  C   UNL     1       2.055   9.760  18.070  0.00  0.00    +0.000 A 
ATOM     19  C   UNL     1       1.706   8.994  19.196  0.00  0.00    +0.000 A 
BRANCH  14  20
ATOM     20  O   UNL     1       0.424   8.766  21.199  0.00  0.00    +0.000 OA
BRANCH  20  22
ATOM     21  C   UNL     1      -0.386   9.692  23.277  0.00  0.00    +0.000 C 
ATOM     22  C   UNL     1       0.827   9.218  22.502  0.00  0.00    +0.000 C 
ENDBRANCH  20  22
ENDBRANCH  14  20
ENDBRANCH  10  19
ENDBRANCH   1  11
BRANCH   2  23
ATOM     23  N   UNL     1       4.942   5.502  16.881  0.00  0.00    +0.000 N 
ATOM     24  C   UNL     1       6.306   5.256  16.782  0.00  0.00    +0.000 C 
ATOM     25  O   UNL     1       6.988   4.588  17.558  0.00  0.00    +0.000 OA
ATOM     26  H   UNL     1       4.475   5.549  15.978  0.00  0.00    +0.000 HD
BRANCH  24  27
ATOM     27  C   UNL     1       6.924   5.901  15.544  0.00  0.00    +0.000 C 
BRANCH  27  28
ATOM     28  C   UNL     1       6.754   5.033  14.322  0.00  0.00    +0.000 A 
ATOM     29  C   UNL     1       7.637   5.167  13.241  0.00  0.00    +0.000 A 
ATOM     30  C   UNL     1       7.451   4.419  12.080  0.00  0.00    +0.000 A 
ATOM     31  C   UNL     1       6.388   3.522  11.990  0.00  0.00    +0.000 A 
ATOM     32  C   UNL     1       5.523   3.358  13.069  0.00  0.00    +0.000 A 
ATOM     33  C   UNL     1       5.704   4.109  14.233  0.00  0.00    +0.000 A 
ENDBRANCH  27  28
ENDBRANCH  24  27
ENDBRANCH   2  23
TORSDOF 7
ENDMDL
MODEL 9
REMARK VINA RESULT:      -6.3      4.970      8.568
REMARK  Name = 
REMARK  8 active torsions:
REMARK  status: ('A' for Active; 'I' for Inactive)
REMARK    1  A    between atoms: C_1  and  C_2
REMARK    2  A    between atoms: C_2  and  O_3
REMARK    3  A    between atoms: O_3  and  C_4
REMARK    4  A    between atoms: C_9  and  N_10
REMARK    5  A    between atoms: C_11  and  C_13
REMARK    6  A    between atoms: C_14  and  N_15
REMARK    7  A    between atoms: C_16  and  C_18
REMARK    8  A    between atoms: C_18  and  C_19
REMARK                            x       y       z     vdW  Elec       q    Type
REMARK                         _______ _______ _______ _____ _____    ______ ____
ROOT
ATOM      1  C   UNL     1      -0.409  12.669  20.421  0.00  0.00    +0.000 A 
ATOM      2  C   UNL     1       0.051  11.360  20.533  0.00  0.00    +0.000 A 
ATOM      3  S   UNL     1      -0.602  10.509  21.844  0.00  0.00    +0.000 S 
ATOM      4  C   UNL     1      -1.600  11.821  22.253  0.00  0.00    +0.000 A 
ATOM      5  C   UNL     1      -1.478  12.889  21.375  0.00  0.00    +0.000 A 
ATOM      6  C   UNL     1      -2.446  14.034  21.457  0.00  0.00    +0.000 C 
ATOM      7  C   UNL     1      -3.020  14.188  22.876  0.00  0.00    +0.000 C 
ATOM      8  C   UNL     1      -3.563  12.856  23.417  0.00  0.00    +0.000 C 
ATOM      9  C   UNL     1      -2.490  11.762  23.458  0.00  0.00    +0.000 C 
ENDROOT
BRANCH   1  11
ATOM     10  N   UNL     1       1.090  14.451  19.656  0.00  0.00    +0.000 N 
ATOM     11  C   UNL     1       0.112  13.521  19.340  0.00  0.00    +0.000 C 
ATOM     12  O   UNL     1      -0.263  13.306  18.183  0.00  0.00    +0.000 OA
ATOM     13  H   UNL     1       1.611  14.331  20.518  0.00  0.00    +0.000 HD
BRANCH  10  19
ATOM     14  C   UNL     1       0.987  16.630  18.513  0.00  0.00    +0.000 A 
ATOM     15  C   UNL     1       1.594  17.585  17.678  0.00  0.00    +0.000 A 
ATOM     16  C   UNL     1       2.780  17.299  16.994  0.00  0.00    +0.000 A 
ATOM     17  C   UNL     1       3.368  16.055  17.145  0.00  0.00    +0.000 A 
ATOM     18  C   UNL     1       2.803  15.117  18.010  0.00  0.00    +0.000 A 
ATOM     19  C   UNL     1       1.631  15.398  18.733  0.00  0.00    +0.000 A 
BRANCH  14  20
ATOM     20  O   UNL     1      -0.224  16.846  19.140  0.00  0.00    +0.000 OA
BRANCH  20  22
ATOM     21  C   UNL     1      -0.649  17.272  21.478  0.00  0.00    +0.000 C 
ATOM     22  C   UNL     1      -0.194  17.860  20.157  0.00  0.00    +0.000 C 
ENDBRANCH  20  22
ENDBRANCH  14  20
ENDBRANCH  10  19
ENDBRANCH   1  11
BRANCH   2  23
ATOM     23  N   UNL     1       1.040  10.752  19.771  0.00  0.00    +0.000 N 
ATOM     24  C   UNL     1       0.731  10.033  18.623  0.00  0.00    +0.000 C 
ATOM     25  O   UNL     1      -0.395   9.791  18.192  0.00  0.00    +0.000 OA
ATOM     26  H   UNL     1       1.888  11.308  19.681  0.00  0.00    +0.000 HD
BRANCH  24  27
ATOM     27  C   UNL     1       1.978   9.558  17.881  0.00  0.00    +0.000 C 
BRANCH  27  28
ATOM     28  C   UNL     1       2.438   8.208  18.371  0.00  0.00    +0.000 A 
ATOM     29  C   UNL     1       3.339   7.456  17.606  0.00  0.00    +0.000 A 
ATOM     30  C   UNL     1       3.720   6.179  18.015  0.00  0.00    +0.000 A 
ATOM     31  C   UNL     1       3.214   5.645  19.198  0.00  0.00    +0.000 A 
ATOM     32  C   UNL     1       2.340   6.396  19.983  0.00  0.00    +0.000 A 
ATOM     33  C   UNL     1       1.954   7.674  19.574  0.00  0.00    +0.000 A 
ENDBRANCH  27  28
ENDBRANCH  24  27
ENDBRANCH   2  23
TORSDOF 7
ENDMDL
