MODEL 1
REMARK VINA RESULT:      -5.3      0.000      0.000
REMARK  Name = 
REMARK  3 active torsions:
REMARK  status: ('A' for Active; 'I' for Inactive)
REMARK    1  A    between atoms: C_1  and  C_2
REMARK    2  A    between atoms: C_2  and  C_4
REMARK    3  A    between atoms: C_9  and  N_10
REMARK                            x       y       z     vdW  Elec       q    Type
REMARK                         _______ _______ _______ _____ _____    ______ ____
ROOT
ATOM      1  C   UNL     1       6.084   5.113  16.457  0.00  0.00    +0.000 A 
ATOM      2  C   UNL     1       4.775   5.616  16.517  0.00  0.00    +0.000 A 
ATOM      3  C   UNL     1       4.150   5.811  17.749  0.00  0.00    +0.000 A 
ATOM      4  C   UNL     1       4.820   5.494  18.925  0.00  0.00    +0.000 A 
ATOM      5  C   UNL     1       6.126   5.004  18.872  0.00  0.00    +0.000 A 
ATOM      6  C   UNL     1       6.796   4.856  17.649  0.00  0.00    +0.000 A 
ENDROOT
BRANCH   1   8
ATOM      7  C   UNL     1       6.103   3.944  14.150  0.00  0.00    +0.000 C 
ATOM      8  C   UNL     1       6.740   4.900  15.129  0.00  0.00    +0.000 C 
ATOM      9  O   UNL     1       7.797   5.471  14.864  0.00  0.00    +0.000 OA
ENDBRANCH   1   8
BRANCH   6  10
ATOM     10  N   UNL     1       8.058   4.229  17.654  0.00  0.00    +0.000 N 
ATOM     11  H   UNL     1       8.360   3.918  18.571  0.00  0.00    +0.000 HD
ATOM     12  H   UNL     1       8.766   4.824  17.204  0.00  0.00    +0.000 HD
ENDBRANCH   6  10
TORSDOF 2
ENDMDL
MODEL 2
REMARK VINA RESULT:      -5.2      3.166      3.735
REMARK  Name = 
REMARK  3 active torsions:
REMARK  status: ('A' for Active; 'I' for Inactive)
REMARK    1  A    between atoms: C_1  and  C_2
REMARK    2  A    between atoms: C_2  and  C_4
REMARK    3  A    between atoms: C_9  and  N_10
REMARK                            x       y       z     vdW  Elec       q    Type
REMARK                         _______ _______ _______ _____ _____    ______ ____
ROOT
ATOM      1  C   UNL     1       4.165   3.839  18.359  0.00  0.00    +0.000 A 
ATOM      2  C   UNL     1       3.134   4.488  17.662  0.00  0.00    +0.000 A 
ATOM      3  C   UNL     1       1.829   3.998  17.716  0.00  0.00    +0.000 A 
ATOM      4  C   UNL     1       1.547   2.853  18.453  0.00  0.00    +0.000 A 
ATOM      5  C   UNL     1       2.566   2.209  19.156  0.00  0.00    +0.000 A 
ATOM      6  C   UNL     1       3.873   2.717  19.165  0.00  0.00    +0.000 A 
ENDROOT
BRANCH   1   8
ATOM      7  C   UNL     1       6.210   4.522  16.932  0.00  0.00    +0.000 C 
ATOM      8  C   UNL     1       5.562   4.370  18.286  0.00  0.00    +0.000 C 
ATOM      9  O   UNL     1       6.174   4.640  19.319  0.00  0.00    +0.000 OA
ENDBRANCH   1   8
BRANCH   6  10
ATOM     10  N   UNL     1       4.881   1.947  19.781  0.00  0.00    +0.000 N 
ATOM     11  H   UNL     1       4.657   1.655  20.726  0.00  0.00    +0.000 HD
ATOM     12  H   UNL     1       5.789   2.427  19.738  0.00  0.00    +0.000 HD
ENDBRANCH   6  10
TORSDOF 2
ENDMDL
MODEL 3
REMARK VINA RESULT:      -5.2      3.544      4.390
REMARK  Name = 
REMARK  3 active torsions:
REMARK  status: ('A' for Active; 'I' for Inactive)
REMARK    1  A    between atoms: C_1  and  C_2
REMARK    2  A    between atoms: C_2  and  C_4
REMARK    3  A    between atoms: C_9  and  N_10
REMARK                            x       y       z     vdW  Elec       q    Type
REMARK                         _______ _______ _______ _____ _____    ______ ____
ROOT
ATOM      1  C   UNL     1       3.013   3.835  18.987  0.00  0.00    +0.000 A 
ATOM      2  C   UNL     1       1.697   4.300  19.144  0.00  0.00    +0.000 A 
ATOM      3  C   UNL     1       0.948   3.930  20.260  0.00  0.00    +0.000 A 
ATOM      4  C   UNL     1       1.498   3.085  21.217  0.00  0.00    +0.000 A 
ATOM      5  C   UNL     1       2.808   2.628  21.072  0.00  0.00    +0.000 A 
ATOM      6  C   UNL     1       3.602   3.035  19.990  0.00  0.00    +0.000 A 
ENDROOT
BRANCH   1   8
ATOM      7  C   UNL     1       3.976   5.701  17.477  0.00  0.00    +0.000 C 
ATOM      8  C   UNL     1       3.804   4.233  17.781  0.00  0.00    +0.000 C 
ATOM      9  O   UNL     1       4.271   3.371  17.037  0.00  0.00    +0.000 OA
ENDBRANCH   1   8
BRANCH   6  10
ATOM     10  N   UNL     1       4.866   2.432  19.829  0.00  0.00    +0.000 N 
ATOM     11  H   UNL     1       5.626   2.949  20.256  0.00  0.00    +0.000 HD
ATOM     12  H   UNL     1       5.054   2.229  18.839  0.00  0.00    +0.000 HD
ENDBRANCH   6  10
TORSDOF 2
ENDMDL
MODEL 4
REMARK VINA RESULT:      -5.1      4.345      5.491
REMARK  Name = 
REMARK  3 active torsions:
REMARK  status: ('A' for Active; 'I' for Inactive)
REMARK    1  A    between atoms: C_1  and  C_2
REMARK    2  A    between atoms: C_2  and  C_4
REMARK    3  A    between atoms: C_9  and  N_10
REMARK                            x       y       z     vdW  Elec       q    Type
REMARK                         _______ _______ _______ _____ _____    ______ ____
ROOT
ATOM      1  C   UNL     1       2.188   3.602  18.578  0.00  0.00    +0.000 A 
ATOM      2  C   UNL     1       2.211   5.003  18.483  0.00  0.00    +0.000 A 
ATOM      3  C   UNL     1       3.220   5.644  17.764  0.00  0.00    +0.000 A 
ATOM      4  C   UNL     1       4.218   4.896  17.150  0.00  0.00    +0.000 A 
ATOM      5  C   UNL     1       4.195   3.503  17.233  0.00  0.00    +0.000 A 
ATOM      6  C   UNL     1       3.158   2.834  17.899  0.00  0.00    +0.000 A 
ENDROOT
BRANCH   1   8
ATOM      7  C   UNL     1       1.094   3.074  20.861  0.00  0.00    +0.000 C 
ATOM      8  C   UNL     1       1.105   2.927  19.359  0.00  0.00    +0.000 C 
ATOM      9  O   UNL     1       0.266   2.238  18.781  0.00  0.00    +0.000 OA
ENDBRANCH   1   8
BRANCH   6  10
ATOM     10  N   UNL     1       3.266   1.438  18.063  0.00  0.00    +0.000 N 
ATOM     11  H   UNL     1       2.843   1.089  18.916  0.00  0.00    +0.000 HD
ATOM     12  H   UNL     1       4.243   1.131  17.972  0.00  0.00    +0.000 HD
ENDBRANCH   6  10
TORSDOF 2
ENDMDL
MODEL 5
REMARK VINA RESULT:      -5.1      3.461      4.212
REMARK  Name = 
REMARK  3 active torsions:
REMARK  status: ('A' for Active; 'I' for Inactive)
REMARK    1  A    between atoms: C_1  and  C_2
REMARK    2  A    between atoms: C_2  and  C_4
REMARK    3  A    between atoms: C_9  and  N_10
REMARK                            x       y       z     vdW  Elec       q    Type
REMARK                         _______ _______ _______ _____ _____    ______ ____
ROOT
ATOM      1  C   UNL     1       3.670   3.851  19.369  0.00  0.00    +0.000 A 
ATOM      2  C   UNL     1       2.519   4.654  19.401  0.00  0.00    +0.000 A 
ATOM      3  C   UNL     1       1.496   4.383  20.309  0.00  0.00    +0.000 A 
ATOM      4  C   UNL     1       1.606   3.304  21.178  0.00  0.00    +0.000 A 
ATOM      5  C   UNL     1       2.752   2.507  21.158  0.00  0.00    +0.000 A 
ATOM      6  C   UNL     1       3.820   2.796  20.296  0.00  0.00    +0.000 A 
ENDROOT
BRANCH   1   8
ATOM      7  C   UNL     1       4.394   4.312  16.930  0.00  0.00    +0.000 C 
ATOM      8  C   UNL     1       4.758   4.148  18.385  0.00  0.00    +0.000 C 
ATOM      9  O   UNL     1       5.927   4.217  18.760  0.00  0.00    +0.000 OA
ENDBRANCH   1   8
BRANCH   6  10
ATOM     10  N   UNL     1       4.886   1.877  20.228  0.00  0.00    +0.000 N 
ATOM     11  H   UNL     1       5.723   2.179  20.715  0.00  0.00    +0.000 HD
ATOM     12  H   UNL     1       5.087   1.618  19.253  0.00  0.00    +0.000 HD
ENDBRANCH   6  10
TORSDOF 2
ENDMDL
MODEL 6
REMARK VINA RESULT:      -5.1      2.645      3.326
REMARK  Name = 
REMARK  3 active torsions:
REMARK  status: ('A' for Active; 'I' for Inactive)
REMARK    1  A    between atoms: C_1  and  C_2
REMARK    2  A    between atoms: C_2  and  C_4
REMARK    3  A    between atoms: C_9  and  N_10
REMARK                            x       y       z     vdW  Elec       q    Type
REMARK                         _______ _______ _______ _____ _____    ______ ____
ROOT
ATOM      1  C   UNL     1       4.983   4.939  18.715  0.00  0.00    +0.000 A 
ATOM      2  C   UNL     1       4.230   5.983  18.154  0.00  0.00    +0.000 A 
ATOM      3  C   UNL     1       2.847   5.864  18.025  0.00  0.00    +0.000 A 
ATOM      4  C   UNL     1       2.208   4.702  18.440  0.00  0.00    +0.000 A 
ATOM      5  C   UNL     1       2.948   3.664  19.008  0.00  0.00    +0.000 A 
ATOM      6  C   UNL     1       4.332   3.785  19.203  0.00  0.00    +0.000 A 
ENDROOT
BRANCH   1   8
ATOM      7  C   UNL     1       7.326   4.805  17.629  0.00  0.00    +0.000 C 
ATOM      8  C   UNL     1       6.467   5.075  18.841  0.00  0.00    +0.000 C 
ATOM      9  O   UNL     1       6.971   5.366  19.925  0.00  0.00    +0.000 OA
ENDBRANCH   1   8
BRANCH   6  10
ATOM     10  N   UNL     1       5.040   2.652  19.654  0.00  0.00    +0.000 N 
ATOM     11  H   UNL     1       4.782   2.350  20.586  0.00  0.00    +0.000 HD
ATOM     12  H   UNL     1       6.055   2.795  19.568  0.00  0.00    +0.000 HD
ENDBRANCH   6  10
TORSDOF 2
ENDMDL
MODEL 7
REMARK VINA RESULT:      -5.1      3.633      4.618
REMARK  Name = 
REMARK  3 active torsions:
REMARK  status: ('A' for Active; 'I' for Inactive)
REMARK    1  A    between atoms: C_1  and  C_2
REMARK    2  A    between atoms: C_2  and  C_4
REMARK    3  A    between atoms: C_9  and  N_10
REMARK                            x       y       z     vdW  Elec       q    Type
REMARK                         _______ _______ _______ _____ _____    ______ ____
ROOT
ATOM      1  C   UNL     1       3.441   4.033  19.439  0.00  0.00    +0.000 A 
ATOM      2  C   UNL     1       2.557   4.848  20.164  0.00  0.00    +0.000 A 
ATOM      3  C   UNL     1       1.321   4.353  20.579  0.00  0.00    +0.000 A 
ATOM      4  C   UNL     1       0.953   3.050  20.262  0.00  0.00    +0.000 A 
ATOM      5  C   UNL     1       1.831   2.232  19.551  0.00  0.00    +0.000 A 
ATOM      6  C   UNL     1       3.104   2.688  19.176  0.00  0.00    +0.000 A 
ENDROOT
BRANCH   1   8
ATOM      7  C   UNL     1       4.779   5.807  18.116  0.00  0.00    +0.000 C 
ATOM      8  C   UNL     1       4.761   4.579  18.993  0.00  0.00    +0.000 C 
ATOM      9  O   UNL     1       5.804   4.008  19.310  0.00  0.00    +0.000 OA
ENDBRANCH   1   8
BRANCH   6  10
ATOM     10  N   UNL     1       3.886   1.862  18.344  0.00  0.00    +0.000 N 
ATOM     11  H   UNL     1       4.883   1.929  18.517  0.00  0.00    +0.000 HD
ATOM     12  H   UNL     1       3.662   2.019  17.353  0.00  0.00    +0.000 HD
ENDBRANCH   6  10
TORSDOF 2
ENDMDL
MODEL 8
REMARK VINA RESULT:      -5.0      1.736      1.949
REMARK  Name = 
REMARK  3 active torsions:
REMARK  status: ('A' for Active; 'I' for Inactive)
REMARK    1  A    between atoms: C_1  and  C_2
REMARK    2  A    between atoms: C_2  and  C_4
REMARK    3  A    between atoms: C_9  and  N_10
REMARK                            x       y       z     vdW  Elec       q    Type
REMARK                         _______ _______ _______ _____ _____    ______ ____
ROOT
ATOM      1  C   UNL     1       5.413   4.881  16.424  0.00  0.00    +0.000 A 
ATOM      2  C   UNL     1       4.398   3.954  16.710  0.00  0.00    +0.000 A 
ATOM      3  C   UNL     1       3.290   4.334  17.468  0.00  0.00    +0.000 A 
ATOM      4  C   UNL     1       3.195   5.632  17.956  0.00  0.00    +0.000 A 
ATOM      5  C   UNL     1       4.195   6.560  17.666  0.00  0.00    +0.000 A 
ATOM      6  C   UNL     1       5.288   6.219  16.856  0.00  0.00    +0.000 A 
ENDROOT
BRANCH   1   8
ATOM      7  C   UNL     1       6.383   3.979  14.203  0.00  0.00    +0.000 C 
ATOM      8  C   UNL     1       6.600   4.459  15.617  0.00  0.00    +0.000 C 
ATOM      9  O   UNL     1       7.724   4.473  16.118  0.00  0.00    +0.000 OA
ENDBRANCH   1   8
BRANCH   6  10
ATOM     10  N   UNL     1       6.329   7.159  16.714  0.00  0.00    +0.000 N 
ATOM     11  H   UNL     1       6.953   7.206  17.512  0.00  0.00    +0.000 HD
ATOM     12  H   UNL     1       5.957   8.085  16.468  0.00  0.00    +0.000 HD
ENDBRANCH   6  10
TORSDOF 2
ENDMDL
MODEL 9
REMARK VINA RESULT:      -5.0      1.800      2.460
REMARK  Name = 
REMARK  3 active torsions:
REMARK  status: ('A' for Active; 'I' for Inactive)
REMARK    1  A    between atoms: C_1  and  C_2
REMARK    2  A    between atoms: C_2  and  C_4
REMARK    3  A    between atoms: C_9  and  N_10
REMARK                            x       y       z     vdW  Elec       q    Type
REMARK                         _______ _______ _______ _____ _____    ______ ____
ROOT
ATOM      1  C   UNL     1       5.439   5.608  17.074  0.00  0.00    +0.000 A 
ATOM      2  C   UNL     1       4.509   6.482  17.658  0.00  0.00    +0.000 A 
ATOM      3  C   UNL     1       3.224   6.037  17.970  0.00  0.00    +0.000 A 
ATOM      4  C   UNL     1       2.855   4.727  17.689  0.00  0.00    +0.000 A 
ATOM      5  C   UNL     1       3.779   3.851  17.118  0.00  0.00    +0.000 A 
ATOM      6  C   UNL     1       5.094   4.257  16.851  0.00  0.00    +0.000 A 
ENDROOT
BRANCH   1   8
ATOM      7  C   UNL     1       7.503   7.037  17.696  0.00  0.00    +0.000 C 
ATOM      8  C   UNL     1       6.812   6.099  16.736  0.00  0.00    +0.000 C 
ATOM      9  O   UNL     1       7.343   5.768  15.677  0.00  0.00    +0.000 OA
ENDBRANCH   1   8
BRANCH   6  10
ATOM     10  N   UNL     1       5.935   3.369  16.150  0.00  0.00    +0.000 N 
ATOM     11  H   UNL     1       6.264   2.588  16.706  0.00  0.00    +0.000 HD
ATOM     12  H   UNL     1       6.713   3.873  15.704  0.00  0.00    +0.000 HD
ENDBRANCH   6  10
TORSDOF 2
ENDMDL
