MODEL 1
REMARK VINA RESULT:      -9.1      0.000      0.000
REMARK  Name = 
REMARK  7 active torsions:
REMARK  status: ('A' for Active; 'I' for Inactive)
REMARK    1  A    between atoms: C_1  and  C_2
REMARK    2  A    between atoms: C_2  and  C_3
REMARK    3  A    between atoms: C_2  and  C_13
REMARK    4  A    between atoms: C_3  and  C_4
REMARK    5  A    between atoms: C_4  and  C_5
REMARK    6  A    between atoms: C_5  and  C_6
REMARK    7  A    between atoms: C_15  and  O_16
REMARK                            x       y       z     vdW  Elec       q    Type
REMARK                         _______ _______ _______ _____ _____    ______ ____
ROOT
ATOM      1  C   UNL     1       2.335   7.010  19.433  0.00  0.00    +0.000 A 
ATOM      2  C   UNL     1       2.283   7.900  18.348  0.00  0.00    +0.000 A 
ATOM      3  C   UNL     1       1.671   9.148  18.474  0.00  0.00    +0.000 A 
ATOM      4  C   UNL     1       1.097   9.542  19.685  0.00  0.00    +0.000 A 
ATOM      5  C   UNL     1       0.394  10.792  19.909  0.00  0.00    +0.000 A 
ATOM      6  C   UNL     1      -0.144  11.070  21.097  0.00  0.00    +0.000 A 
ATOM      7  C   UNL     1      -0.057  10.174  22.250  0.00  0.00    +0.000 A 
ATOM      8  O   UNL     1      -0.554  10.455  23.336  0.00  0.00    +0.000 OA
ATOM      9  O   UNL     1       0.624   8.980  22.029  0.00  0.00    +0.000 OA
ATOM     10  C   UNL     1       1.179   8.655  20.766  0.00  0.00    +0.000 A 
ATOM     11  C   UNL     1       1.786   7.405  20.660  0.00  0.00    +0.000 A 
ATOM     12  C   UNL     1      -0.856  12.372  21.120  0.00  0.00    +0.000 C 
ATOM     13  C   UNL     1      -0.664  12.905  19.695  0.00  0.00    +0.000 C 
ATOM     14  C   UNL     1       0.144  11.865  18.913  0.00  0.00    +0.000 C 
ENDROOT
BRANCH   1  16
ATOM     15  C   UNL     1       2.434   4.715  20.392  0.00  0.00    +0.000 C 
ATOM     16  C   UNL     1       2.965   5.637  19.285  0.00  0.00    +0.000 C 
BRANCH  16  17
ATOM     17  C   UNL     1       2.721   5.030  17.887  0.00  0.00    +0.000 C 
BRANCH  17  18
ATOM     18  C   UNL     1       3.666   3.862  17.573  0.00  0.00    +0.000 C 
BRANCH  18  19
ATOM     19  C   UNL     1       4.719   4.258  16.539  0.00  0.00    +0.000 C 
BRANCH  19  20
ATOM     20  C   UNL     1       5.769   5.170  17.127  0.00  0.00    +0.000 A 
ATOM     21  C   UNL     1       5.827   6.521  16.749  0.00  0.00    +0.000 A 
ATOM     22  C   UNL     1       6.795   7.365  17.293  0.00  0.00    +0.000 A 
ATOM     23  C   UNL     1       7.710   6.858  18.208  0.00  0.00    +0.000 A 
ATOM     24  F   UNL     1       8.635   7.671  18.735  0.00  0.00    +0.000 F 
ATOM     25  C   UNL     1       7.679   5.521  18.584  0.00  0.00    +0.000 A 
ATOM     26  C   UNL     1       6.711   4.675  18.042  0.00  0.00    +0.000 A 
ENDBRANCH  19  20
ENDBRANCH  18  19
ENDBRANCH  17  18
ENDBRANCH  16  17
ENDBRANCH   1  16
BRANCH   3  27
ATOM     27  O   UNL     1       1.635   9.976  17.386  0.00  0.00    +0.000 OA
ATOM     28  H   UNL     1       1.434  10.879  17.679  0.00  0.00    +0.000 HD
ENDBRANCH   3  27
TORSDOF 6
ENDMDL
MODEL 2
REMARK VINA RESULT:      -8.8      2.575      4.396
REMARK  Name = 
REMARK  7 active torsions:
REMARK  status: ('A' for Active; 'I' for Inactive)
REMARK    1  A    between atoms: C_1  and  C_2
REMARK    2  A    between atoms: C_2  and  C_3
REMARK    3  A    between atoms: C_2  and  C_13
REMARK    4  A    between atoms: C_3  and  C_4
REMARK    5  A    between atoms: C_4  and  C_5
REMARK    6  A    between atoms: C_5  and  C_6
REMARK    7  A    between atoms: C_15  and  O_16
REMARK                            x       y       z     vdW  Elec       q    Type
REMARK                         _______ _______ _______ _____ _____    ______ ____
ROOT
ATOM      1  C   UNL     1       3.168   6.964  18.053  0.00  0.00    +0.000 A 
ATOM      2  C   UNL     1       2.848   6.454  19.322  0.00  0.00    +0.000 A 
ATOM      3  C   UNL     1       2.043   7.177  20.204  0.00  0.00    +0.000 A 
ATOM      4  C   UNL     1       1.535   8.428  19.842  0.00  0.00    +0.000 A 
ATOM      5  C   UNL     1       0.733   9.282  20.699  0.00  0.00    +0.000 A 
ATOM      6  C   UNL     1       0.313  10.474  20.273  0.00  0.00    +0.000 A 
ATOM      7  C   UNL     1       0.597  10.999  18.938  0.00  0.00    +0.000 A 
ATOM      8  O   UNL     1       0.193  12.095  18.567  0.00  0.00    +0.000 OA
ATOM      9  O   UNL     1       1.361  10.170  18.120  0.00  0.00    +0.000 OA
ATOM     10  C   UNL     1       1.840   8.913  18.564  0.00  0.00    +0.000 A 
ATOM     11  C   UNL     1       2.641   8.204  17.670  0.00  0.00    +0.000 A 
ATOM     12  C   UNL     1      -0.455  11.218  21.302  0.00  0.00    +0.000 C 
ATOM     13  C   UNL     1      -0.466  10.259  22.498  0.00  0.00    +0.000 C 
ATOM     14  C   UNL     1       0.318   9.005  22.098  0.00  0.00    +0.000 C 
ENDROOT
BRANCH   1  16
ATOM     15  C   UNL     1       5.042   7.174  16.429  0.00  0.00    +0.000 C 
ATOM     16  C   UNL     1       4.075   6.196  17.110  0.00  0.00    +0.000 C 
BRANCH  16  17
ATOM     17  C   UNL     1       4.840   5.064  17.829  0.00  0.00    +0.000 C 
BRANCH  17  18
ATOM     18  C   UNL     1       4.645   3.697  17.159  0.00  0.00    +0.000 C 
BRANCH  18  19
ATOM     19  C   UNL     1       3.170   3.297  17.122  0.00  0.00    +0.000 C 
BRANCH  19  20
ATOM     20  C   UNL     1       2.604   3.110  18.509  0.00  0.00    +0.000 A 
ATOM     21  C   UNL     1       1.246   3.360  18.760  0.00  0.00    +0.000 A 
ATOM     22  C   UNL     1       0.722   3.186  20.041  0.00  0.00    +0.000 A 
ATOM     23  C   UNL     1       1.554   2.770  21.072  0.00  0.00    +0.000 A 
ATOM     24  F   UNL     1       1.049   2.597  22.301  0.00  0.00    +0.000 F 
ATOM     25  C   UNL     1       2.905   2.532  20.848  0.00  0.00    +0.000 A 
ATOM     26  C   UNL     1       3.432   2.704  19.568  0.00  0.00    +0.000 A 
ENDBRANCH  19  20
ENDBRANCH  18  19
ENDBRANCH  17  18
ENDBRANCH  16  17
ENDBRANCH   1  16
BRANCH   3  27
ATOM     27  O   UNL     1       1.769   6.644  21.432  0.00  0.00    +0.000 OA
ATOM     28  H   UNL     1       0.876   6.909  21.704  0.00  0.00    +0.000 HD
ENDBRANCH   3  27
TORSDOF 6
ENDMDL
MODEL 3
REMARK VINA RESULT:      -8.7      0.641      1.101
REMARK  Name = 
REMARK  7 active torsions:
REMARK  status: ('A' for Active; 'I' for Inactive)
REMARK    1  A    between atoms: C_1  and  C_2
REMARK    2  A    between atoms: C_2  and  C_3
REMARK    3  A    between atoms: C_2  and  C_13
REMARK    4  A    between atoms: C_3  and  C_4
REMARK    5  A    between atoms: C_4  and  C_5
REMARK    6  A    between atoms: C_5  and  C_6
REMARK    7  A    between atoms: C_15  and  O_16
REMARK                            x       y       z     vdW  Elec       q    Type
REMARK                         _______ _______ _______ _____ _____    ______ ____
ROOT
ATOM      1  C   UNL     1       2.138   6.895  19.655  0.00  0.00    +0.000 A 
ATOM      2  C   UNL     1       2.214   7.722  18.523  0.00  0.00    +0.000 A 
ATOM      3  C   UNL     1       1.732   9.031  18.557  0.00  0.00    +0.000 A 
ATOM      4  C   UNL     1       1.162   9.550  19.722  0.00  0.00    +0.000 A 
ATOM      5  C   UNL     1       0.585  10.876  19.851  0.00  0.00    +0.000 A 
ATOM      6  C   UNL     1       0.040  11.275  21.001  0.00  0.00    +0.000 A 
ATOM      7  C   UNL     1      -0.004  10.443  22.203  0.00  0.00    +0.000 A 
ATOM      8  O   UNL     1      -0.504  10.835  23.252  0.00  0.00    +0.000 OA
ATOM      9  O   UNL     1       0.557   9.175  22.073  0.00  0.00    +0.000 OA
ATOM     10  C   UNL     1       1.116   8.723  20.852  0.00  0.00    +0.000 A 
ATOM     11  C   UNL     1       1.594   7.414  20.837  0.00  0.00    +0.000 A 
ATOM     12  C   UNL     1      -0.533  12.642  20.926  0.00  0.00    +0.000 C 
ATOM     13  C   UNL     1      -0.241  13.070  19.483  0.00  0.00    +0.000 C 
ATOM     14  C   UNL     1       0.481  11.910  18.789  0.00  0.00    +0.000 C 
ENDROOT
BRANCH   1  16
ATOM     15  C   UNL     1       2.108   4.706  20.838  0.00  0.00    +0.000 C 
ATOM     16  C   UNL     1       2.627   5.459  19.606  0.00  0.00    +0.000 C 
BRANCH  16  17
ATOM     17  C   UNL     1       2.215   4.746  18.301  0.00  0.00    +0.000 C 
BRANCH  17  18
ATOM     18  C   UNL     1       3.419   4.270  17.477  0.00  0.00    +0.000 C 
BRANCH  18  19
ATOM     19  C   UNL     1       4.663   4.104  18.350  0.00  0.00    +0.000 C 
BRANCH  19  20
ATOM     20  C   UNL     1       5.654   5.222  18.134  0.00  0.00    +0.000 A 
ATOM     21  C   UNL     1       6.838   5.276  18.886  0.00  0.00    +0.000 A 
ATOM     22  C   UNL     1       7.755   6.308  18.686  0.00  0.00    +0.000 A 
ATOM     23  C   UNL     1       7.486   7.290  17.741  0.00  0.00    +0.000 A 
ATOM     24  F   UNL     1       8.370   8.277  17.545  0.00  0.00    +0.000 F 
ATOM     25  C   UNL     1       6.313   7.264  16.997  0.00  0.00    +0.000 A 
ATOM     26  C   UNL     1       5.395   6.233  17.195  0.00  0.00    +0.000 A 
ENDBRANCH  19  20
ENDBRANCH  18  19
ENDBRANCH  17  18
ENDBRANCH  16  17
ENDBRANCH   1  16
BRANCH   3  27
ATOM     27  O   UNL     1       1.817   9.794  17.426  0.00  0.00    +0.000 OA
ATOM     28  H   UNL     1       1.684  10.727  17.659  0.00  0.00    +0.000 HD
ENDBRANCH   3  27
TORSDOF 6
ENDMDL
MODEL 4
REMARK VINA RESULT:      -8.7      0.757      1.270
REMARK  Name = 
REMARK  7 active torsions:
REMARK  status: ('A' for Active; 'I' for Inactive)
REMARK    1  A    between atoms: C_1  and  C_2
REMARK    2  A    between atoms: C_2  and  C_3
REMARK    3  A    between atoms: C_2  and  C_13
REMARK    4  A    between atoms: C_3  and  C_4
REMARK    5  A    between atoms: C_4  and  C_5
REMARK    6  A    between atoms: C_5  and  C_6
REMARK    7  A    between atoms: C_15  and  O_16
REMARK                            x       y       z     vdW  Elec       q    Type
REMARK                         _______ _______ _______ _____ _____    ______ ____
ROOT
ATOM      1  C   UNL     1       2.592   6.036  19.200  0.00  0.00    +0.000 A 
ATOM      2  C   UNL     1       2.644   6.959  18.142  0.00  0.00    +0.000 A 
ATOM      3  C   UNL     1       2.130   8.248  18.290  0.00  0.00    +0.000 A 
ATOM      4  C   UNL     1       1.552   8.651  19.496  0.00  0.00    +0.000 A 
ATOM      5  C   UNL     1       0.944   9.947  19.740  0.00  0.00    +0.000 A 
ATOM      6  C   UNL     1       0.394  10.233  20.920  0.00  0.00    +0.000 A 
ATOM      7  C   UNL     1       0.375   9.299  22.047  0.00  0.00    +0.000 A 
ATOM      8  O   UNL     1      -0.131   9.588  23.126  0.00  0.00    +0.000 OA
ATOM      9  O   UNL     1       0.966   8.061  21.807  0.00  0.00    +0.000 OA
ATOM     10  C   UNL     1       1.530   7.730  20.551  0.00  0.00    +0.000 A 
ATOM     11  C   UNL     1       2.040   6.439  20.422  0.00  0.00    +0.000 A 
ATOM     12  C   UNL     1      -0.213  11.586  20.964  0.00  0.00    +0.000 C 
ATOM     13  C   UNL     1       0.064  12.143  19.563  0.00  0.00    +0.000 C 
ATOM     14  C   UNL     1       0.811  11.065  18.771  0.00  0.00    +0.000 C 
ENDROOT
BRANCH   1  16
ATOM     15  C   UNL     1       2.520   3.725  20.120  0.00  0.00    +0.000 C 
ATOM     16  C   UNL     1       3.116   4.622  19.027  0.00  0.00    +0.000 C 
BRANCH  16  17
ATOM     17  C   UNL     1       2.821   4.059  17.620  0.00  0.00    +0.000 C 
BRANCH  17  18
ATOM     18  C   UNL     1       4.053   3.418  16.967  0.00  0.00    +0.000 C 
BRANCH  18  19
ATOM     19  C   UNL     1       4.790   4.411  16.068  0.00  0.00    +0.000 C 
BRANCH  19  20
ATOM     20  C   UNL     1       5.796   5.228  16.842  0.00  0.00    +0.000 A 
ATOM     21  C   UNL     1       6.597   4.623  17.823  0.00  0.00    +0.000 A 
ATOM     22  C   UNL     1       7.528   5.377  18.538  0.00  0.00    +0.000 A 
ATOM     23  C   UNL     1       7.654   6.736  18.278  0.00  0.00    +0.000 A 
ATOM     24  F   UNL     1       8.553   7.458  18.960  0.00  0.00    +0.000 F 
ATOM     25  C   UNL     1       6.861   7.357  17.321  0.00  0.00    +0.000 A 
ATOM     26  C   UNL     1       5.929   6.605  16.605  0.00  0.00    +0.000 A 
ENDBRANCH  19  20
ENDBRANCH  18  19
ENDBRANCH  17  18
ENDBRANCH  16  17
ENDBRANCH   1  16
BRANCH   3  27
ATOM     27  O   UNL     1       2.192   9.107  17.228  0.00  0.00    +0.000 OA
ATOM     28  H   UNL     1       1.512   8.864  16.580  0.00  0.00    +0.000 HD
ENDBRANCH   3  27
TORSDOF 6
ENDMDL
MODEL 5
REMARK VINA RESULT:      -8.7      2.544      4.547
REMARK  Name = 
REMARK  7 active torsions:
REMARK  status: ('A' for Active; 'I' for Inactive)
REMARK    1  A    between atoms: C_1  and  C_2
REMARK    2  A    between atoms: C_2  and  C_3
REMARK    3  A    between atoms: C_2  and  C_13
REMARK    4  A    between atoms: C_3  and  C_4
REMARK    5  A    between atoms: C_4  and  C_5
REMARK    6  A    between atoms: C_5  and  C_6
REMARK    7  A    between atoms: C_15  and  O_16
REMARK                            x       y       z     vdW  Elec       q    Type
REMARK                         _______ _______ _______ _____ _____    ______ ____
ROOT
ATOM      1  C   UNL     1       3.632   6.673  17.987  0.00  0.00    +0.000 A 
ATOM      2  C   UNL     1       3.210   6.096  19.195  0.00  0.00    +0.000 A 
ATOM      3  C   UNL     1       2.319   6.766  20.037  0.00  0.00    +0.000 A 
ATOM      4  C   UNL     1       1.826   8.028  19.694  0.00  0.00    +0.000 A 
ATOM      5  C   UNL     1       0.940   8.830  20.516  0.00  0.00    +0.000 A 
ATOM      6  C   UNL     1       0.540  10.037  20.114  0.00  0.00    +0.000 A 
ATOM      7  C   UNL     1       0.934  10.631  18.837  0.00  0.00    +0.000 A 
ATOM      8  O   UNL     1       0.548  11.741  18.486  0.00  0.00    +0.000 OA
ATOM      9  O   UNL     1       1.779   9.853  18.051  0.00  0.00    +0.000 OA
ATOM     10  C   UNL     1       2.236   8.580  18.473  0.00  0.00    +0.000 A 
ATOM     11  C   UNL     1       3.123   7.925  17.620  0.00  0.00    +0.000 A 
ATOM     12  C   UNL     1      -0.326  10.720  21.106  0.00  0.00    +0.000 C 
ATOM     13  C   UNL     1      -0.428   9.702  22.248  0.00  0.00    +0.000 C 
ATOM     14  C   UNL     1       0.406   8.478  21.858  0.00  0.00    +0.000 C 
ENDROOT
BRANCH   1  16
ATOM     15  C   UNL     1       5.934   5.734  17.868  0.00  0.00    +0.000 C 
ATOM     16  C   UNL     1       4.631   5.963  17.092  0.00  0.00    +0.000 C 
BRANCH  16  17
ATOM     17  C   UNL     1       4.072   4.637  16.533  0.00  0.00    +0.000 C 
BRANCH  17  18
ATOM     18  C   UNL     1       4.694   3.402  17.200  0.00  0.00    +0.000 C 
BRANCH  18  19
ATOM     19  C   UNL     1       3.658   2.296  17.406  0.00  0.00    +0.000 C 
BRANCH  19  20
ATOM     20  C   UNL     1       2.919   2.456  18.712  0.00  0.00    +0.000 A 
ATOM     21  C   UNL     1       3.618   2.437  19.929  0.00  0.00    +0.000 A 
ATOM     22  C   UNL     1       2.936   2.586  21.137  0.00  0.00    +0.000 A 
ATOM     23  C   UNL     1       1.556   2.745  21.130  0.00  0.00    +0.000 A 
ATOM     24  F   UNL     1       0.903   2.895  22.290  0.00  0.00    +0.000 F 
ATOM     25  C   UNL     1       0.843   2.751  19.937  0.00  0.00    +0.000 A 
ATOM     26  C   UNL     1       1.523   2.603  18.728  0.00  0.00    +0.000 A 
ENDBRANCH  19  20
ENDBRANCH  18  19
ENDBRANCH  17  18
ENDBRANCH  16  17
ENDBRANCH   1  16
BRANCH   3  27
ATOM     27  O   UNL     1       1.946   6.169  21.209  0.00  0.00    +0.000 OA
ATOM     28  H   UNL     1       1.662   6.851  21.839  0.00  0.00    +0.000 HD
ENDBRANCH   3  27
TORSDOF 6
ENDMDL
MODEL 6
REMARK VINA RESULT:      -8.7      0.972      1.134
REMARK  Name = 
REMARK  7 active torsions:
REMARK  status: ('A' for Active; 'I' for Inactive)
REMARK    1  A    between atoms: C_1  and  C_2
REMARK    2  A    between atoms: C_2  and  C_3
REMARK    3  A    between atoms: C_2  and  C_13
REMARK    4  A    between atoms: C_3  and  C_4
REMARK    5  A    between atoms: C_4  and  C_5
REMARK    6  A    between atoms: C_5  and  C_6
REMARK    7  A    between atoms: C_15  and  O_16
REMARK                            x       y       z     vdW  Elec       q    Type
REMARK                         _______ _______ _______ _____ _____    ______ ____
ROOT
ATOM      1  C   UNL     1       2.081   6.151  19.617  0.00  0.00    +0.000 A 
ATOM      2  C   UNL     1       2.301   6.956  18.488  0.00  0.00    +0.000 A 
ATOM      3  C   UNL     1       2.012   8.322  18.514  0.00  0.00    +0.000 A 
ATOM      4  C   UNL     1       1.499   8.920  19.668  0.00  0.00    +0.000 A 
ATOM      5  C   UNL     1       1.118  10.316  19.786  0.00  0.00    +0.000 A 
ATOM      6  C   UNL     1       0.613  10.792  20.924  0.00  0.00    +0.000 A 
ATOM      7  C   UNL     1       0.423   9.977  22.124  0.00  0.00    +0.000 A 
ATOM      8  O   UNL     1      -0.038  10.439  23.162  0.00  0.00    +0.000 OA
ATOM      9  O   UNL     1       0.796   8.641  22.004  0.00  0.00    +0.000 OA
ATOM     10  C   UNL     1       1.309   8.110  20.795  0.00  0.00    +0.000 A 
ATOM     11  C   UNL     1       1.593   6.746  20.788  0.00  0.00    +0.000 A 
ATOM     12  C   UNL     1       0.245  12.227  20.839  0.00  0.00    +0.000 C 
ATOM     13  C   UNL     1       0.627  12.605  19.403  0.00  0.00    +0.000 C 
ATOM     14  C   UNL     1       1.188  11.352  18.724  0.00  0.00    +0.000 C 
ENDROOT
BRANCH   1  16
ATOM     15  C   UNL     1       1.906   4.025  20.899  0.00  0.00    +0.000 C 
ATOM     16  C   UNL     1       2.358   4.660  19.577  0.00  0.00    +0.000 C 
BRANCH  16  17
ATOM     17  C   UNL     1       1.684   3.974  18.369  0.00  0.00    +0.000 C 
BRANCH  17  18
ATOM     18  C   UNL     1       2.687   3.565  17.282  0.00  0.00    +0.000 C 
BRANCH  18  19
ATOM     19  C   UNL     1       4.069   3.284  17.873  0.00  0.00    +0.000 C 
BRANCH  19  20
ATOM     20  C   UNL     1       5.006   4.454  17.690  0.00  0.00    +0.000 A 
ATOM     21  C   UNL     1       4.918   5.260  16.544  0.00  0.00    +0.000 A 
ATOM     22  C   UNL     1       5.782   6.342  16.375  0.00  0.00    +0.000 A 
ATOM     23  C   UNL     1       6.738   6.614  17.345  0.00  0.00    +0.000 A 
ATOM     24  F   UNL     1       7.564   7.657  17.185  0.00  0.00    +0.000 F 
ATOM     25  C   UNL     1       6.852   5.819  18.479  0.00  0.00    +0.000 A 
ATOM     26  C   UNL     1       5.988   4.737  18.651  0.00  0.00    +0.000 A 
ENDBRANCH  19  20
ENDBRANCH  18  19
ENDBRANCH  17  18
ENDBRANCH  16  17
ENDBRANCH   1  16
BRANCH   3  27
ATOM     27  O   UNL     1       2.232   9.062  17.386  0.00  0.00    +0.000 OA
ATOM     28  H   UNL     1       3.179   9.050  17.175  0.00  0.00    +0.000 HD
ENDBRANCH   3  27
TORSDOF 6
ENDMDL
MODEL 7
REMARK VINA RESULT:      -8.5      1.758      2.350
REMARK  Name = 
REMARK  7 active torsions:
REMARK  status: ('A' for Active; 'I' for Inactive)
REMARK    1  A    between atoms: C_1  and  C_2
REMARK    2  A    between atoms: C_2  and  C_3
REMARK    3  A    between atoms: C_2  and  C_13
REMARK    4  A    between atoms: C_3  and  C_4
REMARK    5  A    between atoms: C_4  and  C_5
REMARK    6  A    between atoms: C_5  and  C_6
REMARK    7  A    between atoms: C_15  and  O_16
REMARK                            x       y       z     vdW  Elec       q    Type
REMARK                         _______ _______ _______ _____ _____    ______ ____
ROOT
ATOM      1  C   UNL     1       2.058   7.852  18.662  0.00  0.00    +0.000 A 
ATOM      2  C   UNL     1       1.426   8.883  17.949  0.00  0.00    +0.000 A 
ATOM      3  C   UNL     1       0.683   9.862  18.611  0.00  0.00    +0.000 A 
ATOM      4  C   UNL     1       0.552   9.839  20.002  0.00  0.00    +0.000 A 
ATOM      5  C   UNL     1      -0.236  10.774  20.783  0.00  0.00    +0.000 A 
ATOM      6  C   UNL     1      -0.320  10.657  22.109  0.00  0.00    +0.000 A 
ATOM      7  C   UNL     1       0.371   9.617  22.870  0.00  0.00    +0.000 A 
ATOM      8  O   UNL     1       0.284   9.533  24.090  0.00  0.00    +0.000 OA
ATOM      9  O   UNL     1       1.131   8.727  22.114  0.00  0.00    +0.000 OA
ATOM     10  C   UNL     1       1.210   8.819  20.703  0.00  0.00    +0.000 A 
ATOM     11  C   UNL     1       1.957   7.835  20.059  0.00  0.00    +0.000 A 
ATOM     12  C   UNL     1      -1.203  11.677  22.726  0.00  0.00    +0.000 C 
ATOM     13  C   UNL     1      -1.677  12.506  21.526  0.00  0.00    +0.000 C 
ATOM     14  C   UNL     1      -1.048  11.905  20.265  0.00  0.00    +0.000 C 
ENDROOT
BRANCH   1  16
ATOM     15  C   UNL     1       4.171   7.339  17.450  0.00  0.00    +0.000 C 
ATOM     16  C   UNL     1       2.833   6.766  17.939  0.00  0.00    +0.000 C 
BRANCH  16  17
ATOM     17  C   UNL     1       3.049   5.518  18.821  0.00  0.00    +0.000 C 
BRANCH  17  18
ATOM     18  C   UNL     1       4.517   5.320  19.222  0.00  0.00    +0.000 C 
BRANCH  18  19
ATOM     19  C   UNL     1       5.091   4.033  18.627  0.00  0.00    +0.000 C 
BRANCH  19  20
ATOM     20  C   UNL     1       5.675   4.261  17.254  0.00  0.00    +0.000 A 
ATOM     21  C   UNL     1       4.913   3.992  16.105  0.00  0.00    +0.000 A 
ATOM     22  C   UNL     1       5.451   4.204  14.836  0.00  0.00    +0.000 A 
ATOM     23  C   UNL     1       6.752   4.676  14.713  0.00  0.00    +0.000 A 
ATOM     24  F   UNL     1       7.266   4.886  13.494  0.00  0.00    +0.000 F 
ATOM     25  C   UNL     1       7.528   4.935  15.836  0.00  0.00    +0.000 A 
ATOM     26  C   UNL     1       6.991   4.725  17.107  0.00  0.00    +0.000 A 
ENDBRANCH  19  20
ENDBRANCH  18  19
ENDBRANCH  17  18
ENDBRANCH  16  17
ENDBRANCH   1  16
BRANCH   3  27
ATOM     27  O   UNL     1       0.076  10.839  17.872  0.00  0.00    +0.000 OA
ATOM     28  H   UNL     1      -0.606  11.271  18.412  0.00  0.00    +0.000 HD
ENDBRANCH   3  27
TORSDOF 6
ENDMDL
MODEL 8
REMARK VINA RESULT:      -8.5      1.679      2.298
REMARK  Name = 
REMARK  7 active torsions:
REMARK  status: ('A' for Active; 'I' for Inactive)
REMARK    1  A    between atoms: C_1  and  C_2
REMARK    2  A    between atoms: C_2  and  C_3
REMARK    3  A    between atoms: C_2  and  C_13
REMARK    4  A    between atoms: C_3  and  C_4
REMARK    5  A    between atoms: C_4  and  C_5
REMARK    6  A    between atoms: C_5  and  C_6
REMARK    7  A    between atoms: C_15  and  O_16
REMARK                            x       y       z     vdW  Elec       q    Type
REMARK                         _______ _______ _______ _____ _____    ______ ____
ROOT
ATOM      1  C   UNL     1       1.998   7.893  18.673  0.00  0.00    +0.000 A 
ATOM      2  C   UNL     1       1.393   8.943  17.964  0.00  0.00    +0.000 A 
ATOM      3  C   UNL     1       0.671   9.935  18.629  0.00  0.00    +0.000 A 
ATOM      4  C   UNL     1       0.536   9.907  20.019  0.00  0.00    +0.000 A 
ATOM      5  C   UNL     1      -0.232  10.857  20.803  0.00  0.00    +0.000 A 
ATOM      6  C   UNL     1      -0.324  10.735  22.128  0.00  0.00    +0.000 A 
ATOM      7  C   UNL     1       0.340   9.674  22.886  0.00  0.00    +0.000 A 
ATOM      8  O   UNL     1       0.248   9.586  24.105  0.00  0.00    +0.000 OA
ATOM      9  O   UNL     1       1.080   8.771  22.127  0.00  0.00    +0.000 OA
ATOM     10  C   UNL     1       1.166   8.869  20.717  0.00  0.00    +0.000 A 
ATOM     11  C   UNL     1       1.892   7.870  20.069  0.00  0.00    +0.000 A 
ATOM     12  C   UNL     1      -1.184  11.772  22.748  0.00  0.00    +0.000 C 
ATOM     13  C   UNL     1      -1.635  12.619  21.551  0.00  0.00    +0.000 C 
ATOM     14  C   UNL     1      -1.016  12.010  20.289  0.00  0.00    +0.000 C 
ENDROOT
BRANCH   1  16
ATOM     15  C   UNL     1       4.069   7.355  17.402  0.00  0.00    +0.000 C 
ATOM     16  C   UNL     1       2.749   6.793  17.946  0.00  0.00    +0.000 C 
BRANCH  16  17
ATOM     17  C   UNL     1       2.995   5.562  18.845  0.00  0.00    +0.000 C 
BRANCH  17  18
ATOM     18  C   UNL     1       2.971   4.241  18.064  0.00  0.00    +0.000 C 
BRANCH  18  19
ATOM     19  C   UNL     1       4.328   3.538  18.114  0.00  0.00    +0.000 C 
BRANCH  19  20
ATOM     20  C   UNL     1       5.242   4.002  17.006  0.00  0.00    +0.000 A 
ATOM     21  C   UNL     1       6.552   4.416  17.294  0.00  0.00    +0.000 A 
ATOM     22  C   UNL     1       7.398   4.843  16.271  0.00  0.00    +0.000 A 
ATOM     23  C   UNL     1       6.934   4.865  14.962  0.00  0.00    +0.000 A 
ATOM     24  F   UNL     1       7.749   5.269  13.979  0.00  0.00    +0.000 F 
ATOM     25  C   UNL     1       5.636   4.473  14.657  0.00  0.00    +0.000 A 
ATOM     26  C   UNL     1       4.788   4.045  15.679  0.00  0.00    +0.000 A 
ENDBRANCH  19  20
ENDBRANCH  18  19
ENDBRANCH  17  18
ENDBRANCH  16  17
ENDBRANCH   1  16
BRANCH   3  27
ATOM     27  O   UNL     1       0.089  10.931  17.894  0.00  0.00    +0.000 OA
ATOM     28  H   UNL     1       0.779  11.425  17.423  0.00  0.00    +0.000 HD
ENDBRANCH   3  27
TORSDOF 6
ENDMDL
MODEL 9
REMARK VINA RESULT:      -8.4      1.478      1.798
REMARK  Name = 
REMARK  7 active torsions:
REMARK  status: ('A' for Active; 'I' for Inactive)
REMARK    1  A    between atoms: C_1  and  C_2
REMARK    2  A    between atoms: C_2  and  C_3
REMARK    3  A    between atoms: C_2  and  C_13
REMARK    4  A    between atoms: C_3  and  C_4
REMARK    5  A    between atoms: C_4  and  C_5
REMARK    6  A    between atoms: C_5  and  C_6
REMARK    7  A    between atoms: C_15  and  O_16
REMARK                            x       y       z     vdW  Elec       q    Type
REMARK                         _______ _______ _______ _____ _____    ______ ____
ROOT
ATOM      1  C   UNL     1       2.147   7.095  19.523  0.00  0.00    +0.000 A 
ATOM      2  C   UNL     1       2.194   7.954  18.413  0.00  0.00    +0.000 A 
ATOM      3  C   UNL     1       1.683   9.251  18.489  0.00  0.00    +0.000 A 
ATOM      4  C   UNL     1       1.113   9.725  19.674  0.00  0.00    +0.000 A 
ATOM      5  C   UNL     1       0.509  11.034  19.845  0.00  0.00    +0.000 A 
ATOM      6  C   UNL     1      -0.033  11.389  21.010  0.00  0.00    +0.000 A 
ATOM      7  C   UNL     1      -0.046  10.523  22.189  0.00  0.00    +0.000 A 
ATOM      8  O   UNL     1      -0.544  10.874  23.253  0.00  0.00    +0.000 OA
ATOM      9  O   UNL     1       0.541   9.272  22.018  0.00  0.00    +0.000 OA
ATOM     10  C   UNL     1       1.097   8.866  20.780  0.00  0.00    +0.000 A 
ATOM     11  C   UNL     1       1.604   7.569  20.723  0.00  0.00    +0.000 A 
ATOM     12  C   UNL     1      -0.637  12.744  20.979  0.00  0.00    +0.000 C 
ATOM     13  C   UNL     1      -0.368  13.218  19.546  0.00  0.00    +0.000 C 
ATOM     14  C   UNL     1       0.372  12.094  18.813  0.00  0.00    +0.000 C 
ENDROOT
BRANCH   1  16
ATOM     15  C   UNL     1       2.179   4.874  20.645  0.00  0.00    +0.000 C 
ATOM     16  C   UNL     1       2.667   5.672  19.429  0.00  0.00    +0.000 C 
BRANCH  16  17
ATOM     17  C   UNL     1       2.256   4.987  18.109  0.00  0.00    +0.000 C 
BRANCH  17  18
ATOM     18  C   UNL     1       3.014   3.676  17.858  0.00  0.00    +0.000 C 
BRANCH  18  19
ATOM     19  C   UNL     1       4.492   3.805  18.227  0.00  0.00    +0.000 C 
BRANCH  19  20
ATOM     20  C   UNL     1       5.337   4.181  17.034  0.00  0.00    +0.000 A 
ATOM     21  C   UNL     1       4.830   4.039  15.733  0.00  0.00    +0.000 A 
ATOM     22  C   UNL     1       5.610   4.387  14.630  0.00  0.00    +0.000 A 
ATOM     23  C   UNL     1       6.898   4.869  14.825  0.00  0.00    +0.000 A 
ATOM     24  F   UNL     1       7.645   5.209  13.766  0.00  0.00    +0.000 F 
ATOM     25  C   UNL     1       7.425   5.002  16.105  0.00  0.00    +0.000 A 
ATOM     26  C   UNL     1       6.647   4.656  17.209  0.00  0.00    +0.000 A 
ENDBRANCH  19  20
ENDBRANCH  18  19
ENDBRANCH  17  18
ENDBRANCH  16  17
ENDBRANCH   1  16
BRANCH   3  27
ATOM     27  O   UNL     1       1.740  10.047  17.378  0.00  0.00    +0.000 OA
ATOM     28  H   UNL     1       1.112   9.717  16.716  0.00  0.00    +0.000 HD
ENDBRANCH   3  27
TORSDOF 6
ENDMDL
