MODEL 1
REMARK VINA RESULT:      -7.6      0.000      0.000
REMARK  Name = 
REMARK  4 active torsions:
REMARK  status: ('A' for Active; 'I' for Inactive)
REMARK    1  A    between atoms: C_2  and  C_3
REMARK    2  A    between atoms: C_3  and  C_14
REMARK    3  A    between atoms: N_4  and  N_5
REMARK    4  A    between atoms: N_5  and  C_6
REMARK                            x       y       z     vdW  Elec       q    Type
REMARK                         _______ _______ _______ _____ _____    ______ ____
ROOT
ATOM      1  C   UNL     1       5.425   4.790  17.957  0.00  0.00    +0.000 C 
ATOM      2  N   UNL     1       5.410   4.230  16.779  0.00  0.00    +0.000 NA
ENDROOT
BRANCH   1   3
ATOM      3  C   UNL     1       4.200   5.177  18.602  0.00  0.00    +0.000 A 
ATOM      4  N   UNL     1       3.734   6.408  18.555  0.00  0.00    +0.000 NA
ATOM      5  N   UNL     1       2.524   6.432  19.194  0.00  0.00    +0.000 NA
ATOM      6  C   UNL     1       2.269   5.222  19.655  0.00  0.00    +0.000 A 
ATOM      7  N   UNL     1       3.332   4.406  19.340  0.00  0.00    +0.000 N 
ATOM      8  C   UNL     1       3.555   3.043  19.786  0.00  0.00    +0.000 C 
ATOM      9  C   UNL     1       3.094   2.789  21.218  0.00  0.00    +0.000 C 
ATOM     10  C   UNL     1       1.591   2.533  21.337  0.00  0.00    +0.000 C 
ATOM     11  C   UNL     1       0.715   3.361  20.397  0.00  0.00    +0.000 C 
ATOM     12  C   UNL     1       1.051   4.847  20.429  0.00  0.00    +0.000 C 
ENDBRANCH   1   3
BRANCH   1  14
ATOM     13  N   UNL     1       7.764   5.206  19.037  0.00  0.00    +0.000 NA
ATOM     14  C   UNL     1       6.705   5.003  18.601  0.00  0.00    +0.000 C 
ENDBRANCH   1  14
BRANCH   2  15
ATOM     15  N   UNL     1       6.574   3.852  16.173  0.00  0.00    +0.000 N 
ATOM     16  H   UNL     1       7.120   3.063  16.529  0.00  0.00    +0.000 HD
BRANCH  15  17
ATOM     17  C   UNL     1       6.651   4.035  14.775  0.00  0.00    +0.000 A 
ATOM     18  C   UNL     1       5.854   3.291  13.895  0.00  0.00    +0.000 A 
ATOM     19  C   UNL     1       5.937   3.491  12.518  0.00  0.00    +0.000 A 
ATOM     20 CL   UNL     1       4.937   2.572  11.460  0.00  0.00    +0.000 Cl
ATOM     21  C   UNL     1       6.821   4.426  11.990  0.00  0.00    +0.000 A 
ATOM     22  C   UNL     1       7.614   5.169  12.859  0.00  0.00    +0.000 A 
ATOM     23 CL   UNL     1       8.732   6.313  12.221  0.00  0.00    +0.000 Cl
ATOM     24  C   UNL     1       7.524   4.991  14.242  0.00  0.00    +0.000 A 
ENDBRANCH  15  17
ENDBRANCH   2  15
TORSDOF 4
ENDMDL
MODEL 2
REMARK VINA RESULT:      -7.5      0.040      1.877
REMARK  Name = 
REMARK  4 active torsions:
REMARK  status: ('A' for Active; 'I' for Inactive)
REMARK    1  A    between atoms: C_2  and  C_3
REMARK    2  A    between atoms: C_3  and  C_14
REMARK    3  A    between atoms: N_4  and  N_5
REMARK    4  A    between atoms: N_5  and  C_6
REMARK                            x       y       z     vdW  Elec       q    Type
REMARK                         _______ _______ _______ _____ _____    ______ ____
ROOT
ATOM      1  C   UNL     1       5.393   4.786  17.930  0.00  0.00    +0.000 C 
ATOM      2  N   UNL     1       5.376   4.187  16.771  0.00  0.00    +0.000 NA
ENDROOT
BRANCH   1   3
ATOM      3  C   UNL     1       4.167   5.167  18.578  0.00  0.00    +0.000 A 
ATOM      4  N   UNL     1       3.691   6.394  18.524  0.00  0.00    +0.000 NA
ATOM      5  N   UNL     1       2.484   6.412  19.168  0.00  0.00    +0.000 NA
ATOM      6  C   UNL     1       2.242   5.203  19.639  0.00  0.00    +0.000 A 
ATOM      7  N   UNL     1       3.311   4.394  19.326  0.00  0.00    +0.000 N 
ATOM      8  C   UNL     1       3.547   3.036  19.781  0.00  0.00    +0.000 C 
ATOM      9  C   UNL     1       3.095   2.790  21.218  0.00  0.00    +0.000 C 
ATOM     10  C   UNL     1       1.596   2.521  21.346  0.00  0.00    +0.000 C 
ATOM     11  C   UNL     1       0.708   3.334  20.403  0.00  0.00    +0.000 C 
ATOM     12  C   UNL     1       1.031   4.823  20.422  0.00  0.00    +0.000 C 
ENDBRANCH   1   3
BRANCH   1  14
ATOM     13  N   UNL     1       7.735   5.177  19.013  0.00  0.00    +0.000 NA
ATOM     14  C   UNL     1       6.676   5.048  18.549  0.00  0.00    +0.000 C 
ENDBRANCH   1  14
BRANCH   2  15
ATOM     15  N   UNL     1       6.541   3.814  16.162  0.00  0.00    +0.000 N 
ATOM     16  H   UNL     1       7.079   3.013  16.503  0.00  0.00    +0.000 HD
BRANCH  15  17
ATOM     17  C   UNL     1       6.627   4.029  14.770  0.00  0.00    +0.000 A 
ATOM     18  C   UNL     1       7.513   4.972  14.230  0.00  0.00    +0.000 A 
ATOM     19  C   UNL     1       7.592   5.165  12.851  0.00  0.00    +0.000 A 
ATOM     20 CL   UNL     1       8.698   6.320  12.214  0.00  0.00    +0.000 Cl
ATOM     21  C   UNL     1       6.785   4.434  11.986  0.00  0.00    +0.000 A 
ATOM     22  C   UNL     1       5.905   3.496  12.516  0.00  0.00    +0.000 A 
ATOM     23 CL   UNL     1       4.880   2.601  11.461  0.00  0.00    +0.000 Cl
ATOM     24  C   UNL     1       5.832   3.280  13.895  0.00  0.00    +0.000 A 
ENDBRANCH  15  17
ENDBRANCH   2  15
TORSDOF 4
ENDMDL
MODEL 3
REMARK VINA RESULT:      -7.5      4.817      8.079
REMARK  Name = 
REMARK  4 active torsions:
REMARK  status: ('A' for Active; 'I' for Inactive)
REMARK    1  A    between atoms: C_2  and  C_3
REMARK    2  A    between atoms: C_3  and  C_14
REMARK    3  A    between atoms: N_4  and  N_5
REMARK    4  A    between atoms: N_5  and  C_6
REMARK                            x       y       z     vdW  Elec       q    Type
REMARK                         _______ _______ _______ _____ _____    ______ ____
ROOT
ATOM      1  C   UNL     1       2.509   4.997  19.923  0.00  0.00    +0.000 C 
ATOM      2  N   UNL     1       2.198   6.263  19.986  0.00  0.00    +0.000 NA
ENDROOT
BRANCH   1   3
ATOM      3  C   UNL     1       3.054   4.433  18.719  0.00  0.00    +0.000 A 
ATOM      4  N   UNL     1       2.428   3.503  18.027  0.00  0.00    +0.000 NA
ATOM      5  N   UNL     1       3.165   3.237  16.906  0.00  0.00    +0.000 NA
ATOM      6  C   UNL     1       4.252   3.984  16.930  0.00  0.00    +0.000 A 
ATOM      7  N   UNL     1       4.242   4.725  18.090  0.00  0.00    +0.000 N 
ATOM      8  C   UNL     1       5.310   5.559  18.609  0.00  0.00    +0.000 C 
ATOM      9  C   UNL     1       6.704   4.992  18.350  0.00  0.00    +0.000 C 
ATOM     10  C   UNL     1       7.226   5.280  16.942  0.00  0.00    +0.000 C 
ATOM     11  C   UNL     1       6.171   5.229  15.836  0.00  0.00    +0.000 C 
ATOM     12  C   UNL     1       5.319   3.967  15.888  0.00  0.00    +0.000 C 
ENDBRANCH   1   3
BRANCH   1  14
ATOM     13  N   UNL     1       2.134   3.448  21.990  0.00  0.00    +0.000 NA
ATOM     14  C   UNL     1       2.298   4.179  21.100  0.00  0.00    +0.000 C 
ENDBRANCH   1  14
BRANCH   2  15
ATOM     15  N   UNL     1       1.692   6.800  21.135  0.00  0.00    +0.000 N 
ATOM     16  H   UNL     1       2.100   6.573  22.046  0.00  0.00    +0.000 HD
BRANCH  15  17
ATOM     17  C   UNL     1       1.150   8.100  21.044  0.00  0.00    +0.000 A 
ATOM     18  C   UNL     1       0.360   8.636  22.071  0.00  0.00    +0.000 A 
ATOM     19  C   UNL     1      -0.160   9.925  21.968  0.00  0.00    +0.000 A 
ATOM     20 CL   UNL     1      -1.116  10.564  23.250  0.00  0.00    +0.000 Cl
ATOM     21  C   UNL     1       0.085  10.700  20.840  0.00  0.00    +0.000 A 
ATOM     22  C   UNL     1       0.869  10.174  19.818  0.00  0.00    +0.000 A 
ATOM     23 CL   UNL     1       1.160  11.110  18.403  0.00  0.00    +0.000 Cl
ATOM     24  C   UNL     1       1.412   8.891  19.919  0.00  0.00    +0.000 A 
ENDBRANCH  15  17
ENDBRANCH   2  15
TORSDOF 4
ENDMDL
MODEL 4
REMARK VINA RESULT:      -7.5      4.822      8.140
REMARK  Name = 
REMARK  4 active torsions:
REMARK  status: ('A' for Active; 'I' for Inactive)
REMARK    1  A    between atoms: C_2  and  C_3
REMARK    2  A    between atoms: C_3  and  C_14
REMARK    3  A    between atoms: N_4  and  N_5
REMARK    4  A    between atoms: N_5  and  C_6
REMARK                            x       y       z     vdW  Elec       q    Type
REMARK                         _______ _______ _______ _____ _____    ______ ____
ROOT
ATOM      1  C   UNL     1       2.501   5.017  19.856  0.00  0.00    +0.000 C 
ATOM      2  N   UNL     1       2.199   6.284  19.933  0.00  0.00    +0.000 NA
ENDROOT
BRANCH   1   3
ATOM      3  C   UNL     1       3.054   4.466  18.649  0.00  0.00    +0.000 A 
ATOM      4  N   UNL     1       2.411   3.581  17.916  0.00  0.00    +0.000 NA
ATOM      5  N   UNL     1       3.165   3.317  16.805  0.00  0.00    +0.000 NA
ATOM      6  C   UNL     1       4.280   4.019  16.879  0.00  0.00    +0.000 A 
ATOM      7  N   UNL     1       4.269   4.727  18.060  0.00  0.00    +0.000 N 
ATOM      8  C   UNL     1       5.356   5.503  18.628  0.00  0.00    +0.000 C 
ATOM      9  C   UNL     1       6.732   4.888  18.388  0.00  0.00    +0.000 C 
ATOM     10  C   UNL     1       7.301   5.194  17.003  0.00  0.00    +0.000 C 
ATOM     11  C   UNL     1       6.275   5.216  15.870  0.00  0.00    +0.000 C 
ATOM     12  C   UNL     1       5.372   3.989  15.864  0.00  0.00    +0.000 C 
ENDBRANCH   1   3
BRANCH   1  14
ATOM     13  N   UNL     1       2.153   3.565  21.997  0.00  0.00    +0.000 NA
ATOM     14  C   UNL     1       2.272   4.184  21.019  0.00  0.00    +0.000 C 
ENDBRANCH   1  14
BRANCH   2  15
ATOM     15  N   UNL     1       1.684   6.809  21.085  0.00  0.00    +0.000 N 
ATOM     16  H   UNL     1       2.079   6.563  21.997  0.00  0.00    +0.000 HD
BRANCH  15  17
ATOM     17  C   UNL     1       1.158   8.116  21.007  0.00  0.00    +0.000 A 
ATOM     18  C   UNL     1       1.411   8.942  19.903  0.00  0.00    +0.000 A 
ATOM     19  C   UNL     1       0.875  10.227  19.839  0.00  0.00    +0.000 A 
ATOM     20 CL   UNL     1       1.191  11.216  18.466  0.00  0.00    +0.000 Cl
ATOM     21  C   UNL     1       0.087  10.719  20.875  0.00  0.00    +0.000 A 
ATOM     22  C   UNL     1      -0.169   9.903  21.972  0.00  0.00    +0.000 A 
ATOM     23 CL   UNL     1      -1.120  10.505  23.274  0.00  0.00    +0.000 Cl
ATOM     24  C   UNL     1       0.346   8.606  22.038  0.00  0.00    +0.000 A 
ENDBRANCH  15  17
ENDBRANCH   2  15
TORSDOF 4
ENDMDL
MODEL 5
REMARK VINA RESULT:      -7.4      4.618      8.068
REMARK  Name = 
REMARK  4 active torsions:
REMARK  status: ('A' for Active; 'I' for Inactive)
REMARK    1  A    between atoms: C_2  and  C_3
REMARK    2  A    between atoms: C_3  and  C_14
REMARK    3  A    between atoms: N_4  and  N_5
REMARK    4  A    between atoms: N_5  and  C_6
REMARK                            x       y       z     vdW  Elec       q    Type
REMARK                         _______ _______ _______ _____ _____    ______ ____
ROOT
ATOM      1  C   UNL     1       3.689   5.225  19.739  0.00  0.00    +0.000 C 
ATOM      2  N   UNL     1       3.139   6.404  19.841  0.00  0.00    +0.000 NA
ENDROOT
BRANCH   1   3
ATOM      3  C   UNL     1       4.987   5.069  19.142  0.00  0.00    +0.000 A 
ATOM      4  N   UNL     1       6.089   4.975  19.858  0.00  0.00    +0.000 NA
ATOM      5  N   UNL     1       7.136   4.759  19.005  0.00  0.00    +0.000 NA
ATOM      6  C   UNL     1       6.675   4.753  17.768  0.00  0.00    +0.000 A 
ATOM      7  N   UNL     1       5.320   4.994  17.810  0.00  0.00    +0.000 N 
ATOM      8  C   UNL     1       4.436   5.232  16.684  0.00  0.00    +0.000 C 
ATOM      9  C   UNL     1       5.086   6.035  15.560  0.00  0.00    +0.000 C 
ATOM     10  C   UNL     1       5.959   5.188  14.634  0.00  0.00    +0.000 C 
ATOM     11  C   UNL     1       6.750   4.076  15.325  0.00  0.00    +0.000 C 
ATOM     12  C   UNL     1       7.514   4.567  16.550  0.00  0.00    +0.000 C 
ENDBRANCH   1   3
BRANCH   1  14
ATOM     13  N   UNL     1       2.302   3.212  20.653  0.00  0.00    +0.000 NA
ATOM     14  C   UNL     1       2.963   4.081  20.252  0.00  0.00    +0.000 C 
ENDBRANCH   1  14
BRANCH   2  15
ATOM     15  N   UNL     1       1.911   6.552  20.420  0.00  0.00    +0.000 N 
ATOM     16  H   UNL     1       1.595   5.913  21.154  0.00  0.00    +0.000 HD
BRANCH  15  17
ATOM     17  C   UNL     1       1.419   7.869  20.539  0.00  0.00    +0.000 A 
ATOM     18  C   UNL     1       1.611   8.816  19.522  0.00  0.00    +0.000 A 
ATOM     19  C   UNL     1       1.110  10.110  19.653  0.00  0.00    +0.000 A 
ATOM     20 CL   UNL     1       1.349  11.248  18.384  0.00  0.00    +0.000 Cl
ATOM     21  C   UNL     1       0.420  10.491  20.798  0.00  0.00    +0.000 A 
ATOM     22  C   UNL     1       0.225   9.556  21.810  0.00  0.00    +0.000 A 
ATOM     23 CL   UNL     1      -0.604  10.019  23.246  0.00  0.00    +0.000 Cl
ATOM     24  C   UNL     1       0.705   8.250  21.681  0.00  0.00    +0.000 A 
ENDBRANCH  15  17
ENDBRANCH   2  15
TORSDOF 4
ENDMDL
MODEL 6
REMARK VINA RESULT:      -7.2      2.278      3.235
REMARK  Name = 
REMARK  4 active torsions:
REMARK  status: ('A' for Active; 'I' for Inactive)
REMARK    1  A    between atoms: C_2  and  C_3
REMARK    2  A    between atoms: C_3  and  C_14
REMARK    3  A    between atoms: N_4  and  N_5
REMARK    4  A    between atoms: N_5  and  C_6
REMARK                            x       y       z     vdW  Elec       q    Type
REMARK                         _______ _______ _______ _____ _____    ______ ____
ROOT
ATOM      1  C   UNL     1       5.643   4.686  16.016  0.00  0.00    +0.000 C 
ATOM      2  N   UNL     1       6.214   3.875  15.168  0.00  0.00    +0.000 NA
ENDROOT
BRANCH   1   3
ATOM      3  C   UNL     1       5.354   4.261  17.359  0.00  0.00    +0.000 A 
ATOM      4  N   UNL     1       6.259   4.274  18.315  0.00  0.00    +0.000 NA
ATOM      5  N   UNL     1       5.655   3.889  19.481  0.00  0.00    +0.000 NA
ATOM      6  C   UNL     1       4.391   3.613  19.227  0.00  0.00    +0.000 A 
ATOM      7  N   UNL     1       4.170   3.791  17.879  0.00  0.00    +0.000 N 
ATOM      8  C   UNL     1       2.974   3.450  17.132  0.00  0.00    +0.000 C 
ATOM      9  C   UNL     1       2.298   2.171  17.617  0.00  0.00    +0.000 C 
ATOM     10  C   UNL     1       1.414   2.378  18.847  0.00  0.00    +0.000 C 
ATOM     11  C   UNL     1       1.947   3.385  19.867  0.00  0.00    +0.000 C 
ATOM     12  C   UNL     1       3.404   3.137  20.239  0.00  0.00    +0.000 C 
ENDBRANCH   1   3
BRANCH   1  14
ATOM     13  N   UNL     1       5.062   7.128  15.303  0.00  0.00    +0.000 NA
ATOM     14  C   UNL     1       5.316   6.025  15.572  0.00  0.00    +0.000 C 
ENDBRANCH   1  14
BRANCH   2  15
ATOM     15  N   UNL     1       6.499   4.284  13.897  0.00  0.00    +0.000 N 
ATOM     16  H   UNL     1       7.413   4.682  13.665  0.00  0.00    +0.000 HD
BRANCH  15  17
ATOM     17  C   UNL     1       5.891   3.564  12.847  0.00  0.00    +0.000 A 
ATOM     18  C   UNL     1       4.842   4.114  12.095  0.00  0.00    +0.000 A 
ATOM     19  C   UNL     1       4.259   3.392  11.055  0.00  0.00    +0.000 A 
ATOM     20 CL   UNL     1       2.982   4.096  10.140  0.00  0.00    +0.000 Cl
ATOM     21  C   UNL     1       4.697   2.109  10.750  0.00  0.00    +0.000 A 
ATOM     22  C   UNL     1       5.738   1.558  11.491  0.00  0.00    +0.000 A 
ATOM     23 CL   UNL     1       6.276  -0.040  11.143  0.00  0.00    +0.000 Cl
ATOM     24  C   UNL     1       6.344   2.280  12.523  0.00  0.00    +0.000 A 
ENDBRANCH  15  17
ENDBRANCH   2  15
TORSDOF 4
ENDMDL
MODEL 7
REMARK VINA RESULT:      -7.1      4.659      8.065
REMARK  Name = 
REMARK  4 active torsions:
REMARK  status: ('A' for Active; 'I' for Inactive)
REMARK    1  A    between atoms: C_2  and  C_3
REMARK    2  A    between atoms: C_3  and  C_14
REMARK    3  A    between atoms: N_4  and  N_5
REMARK    4  A    between atoms: N_5  and  C_6
REMARK                            x       y       z     vdW  Elec       q    Type
REMARK                         _______ _______ _______ _____ _____    ______ ____
ROOT
ATOM      1  C   UNL     1       3.432   5.283  19.625  0.00  0.00    +0.000 C 
ATOM      2  N   UNL     1       3.056   6.429  20.124  0.00  0.00    +0.000 NA
ENDROOT
BRANCH   1   3
ATOM      3  C   UNL     1       4.766   5.104  19.120  0.00  0.00    +0.000 A 
ATOM      4  N   UNL     1       5.812   4.982  19.911  0.00  0.00    +0.000 NA
ATOM      5  N   UNL     1       6.912   4.750  19.131  0.00  0.00    +0.000 NA
ATOM      6  C   UNL     1       6.539   4.760  17.866  0.00  0.00    +0.000 A 
ATOM      7  N   UNL     1       5.190   5.029  17.814  0.00  0.00    +0.000 N 
ATOM      8  C   UNL     1       4.392   5.292  16.630  0.00  0.00    +0.000 C 
ATOM      9  C   UNL     1       5.136   6.088  15.560  0.00  0.00    +0.000 C 
ATOM     10  C   UNL     1       6.055   5.228  14.692  0.00  0.00    +0.000 C 
ATOM     11  C   UNL     1       6.773   4.097  15.429  0.00  0.00    +0.000 C 
ATOM     12  C   UNL     1       7.458   4.563  16.708  0.00  0.00    +0.000 C 
ENDBRANCH   1   3
BRANCH   1  14
ATOM     13  N   UNL     1       1.657   3.370  19.649  0.00  0.00    +0.000 NA
ATOM     14  C   UNL     1       2.474   4.196  19.604  0.00  0.00    +0.000 C 
ENDBRANCH   1  14
BRANCH   2  15
ATOM     15  N   UNL     1       1.792   6.594  20.615  0.00  0.00    +0.000 N 
ATOM     16  H   UNL     1       1.425   5.972  21.340  0.00  0.00    +0.000 HD
BRANCH  15  17
ATOM     17  C   UNL     1       1.300   7.915  20.672  0.00  0.00    +0.000 A 
ATOM     18  C   UNL     1       0.560   8.373  21.771  0.00  0.00    +0.000 A 
ATOM     19  C   UNL     1       0.089   9.685  21.814  0.00  0.00    +0.000 A 
ATOM     20 CL   UNL     1      -0.806  10.225  23.181  0.00  0.00    +0.000 Cl
ATOM     21  C   UNL     1       0.336  10.561  20.763  0.00  0.00    +0.000 A 
ATOM     22  C   UNL     1       1.071  10.113  19.671  0.00  0.00    +0.000 A 
ATOM     23 CL   UNL     1       1.363  11.177  18.349  0.00  0.00    +0.000 Cl
ATOM     24  C   UNL     1       1.565   8.806  19.625  0.00  0.00    +0.000 A 
ENDBRANCH  15  17
ENDBRANCH   2  15
TORSDOF 4
ENDMDL
MODEL 8
REMARK VINA RESULT:      -7.1      4.789      7.002
REMARK  Name = 
REMARK  4 active torsions:
REMARK  status: ('A' for Active; 'I' for Inactive)
REMARK    1  A    between atoms: C_2  and  C_3
REMARK    2  A    between atoms: C_3  and  C_14
REMARK    3  A    between atoms: N_4  and  N_5
REMARK    4  A    between atoms: N_5  and  C_6
REMARK                            x       y       z     vdW  Elec       q    Type
REMARK                         _______ _______ _______ _____ _____    ______ ____
ROOT
ATOM      1  C   UNL     1       3.879   6.374  17.807  0.00  0.00    +0.000 C 
ATOM      2  N   UNL     1       2.968   7.206  18.233  0.00  0.00    +0.000 NA
ENDROOT
BRANCH   1   3
ATOM      3  C   UNL     1       4.138   5.147  18.510  0.00  0.00    +0.000 A 
ATOM      4  N   UNL     1       5.291   4.516  18.430  0.00  0.00    +0.000 NA
ATOM      5  N   UNL     1       5.246   3.435  19.267  0.00  0.00    +0.000 NA
ATOM      6  C   UNL     1       4.055   3.392  19.833  0.00  0.00    +0.000 A 
ATOM      7  N   UNL     1       3.304   4.436  19.342  0.00  0.00    +0.000 N 
ATOM      8  C   UNL     1       1.891   4.682  19.562  0.00  0.00    +0.000 C 
ATOM      9  C   UNL     1       1.054   3.406  19.621  0.00  0.00    +0.000 C 
ATOM     10  C   UNL     1       1.098   2.713  20.983  0.00  0.00    +0.000 C 
ATOM     11  C   UNL     1       2.451   2.764  21.694  0.00  0.00    +0.000 C 
ATOM     12  C   UNL     1       3.609   2.345  20.796  0.00  0.00    +0.000 C 
ENDBRANCH   1   3
BRANCH   1  14
ATOM     13  N   UNL     1       5.207   6.898  15.623  0.00  0.00    +0.000 NA
ATOM     14  C   UNL     1       4.613   6.715  16.606  0.00  0.00    +0.000 C 
ENDBRANCH   1  14
BRANCH   2  15
ATOM     15  N   UNL     1       2.714   8.366  17.557  0.00  0.00    +0.000 N 
ATOM     16  H   UNL     1       2.503   8.356  16.556  0.00  0.00    +0.000 HD
BRANCH  15  17
ATOM     17  C   UNL     1       2.075   9.395  18.281  0.00  0.00    +0.000 A 
ATOM     18  C   UNL     1       2.229  10.743  17.925  0.00  0.00    +0.000 A 
ATOM     19  C   UNL     1       1.582  11.746  18.646  0.00  0.00    +0.000 A 
ATOM     20 CL   UNL     1       1.779  13.392  18.180  0.00  0.00    +0.000 Cl
ATOM     21  C   UNL     1       0.781  11.431  19.738  0.00  0.00    +0.000 A 
ATOM     22  C   UNL     1       0.624  10.096  20.094  0.00  0.00    +0.000 A 
ATOM     23 CL   UNL     1      -0.344   9.690  21.460  0.00  0.00    +0.000 Cl
ATOM     24  C   UNL     1       1.250   9.080  19.367  0.00  0.00    +0.000 A 
ENDBRANCH  15  17
ENDBRANCH   2  15
TORSDOF 4
ENDMDL
MODEL 9
REMARK VINA RESULT:      -7.1      3.259      7.158
REMARK  Name = 
REMARK  4 active torsions:
REMARK  status: ('A' for Active; 'I' for Inactive)
REMARK    1  A    between atoms: C_2  and  C_3
REMARK    2  A    between atoms: C_3  and  C_14
REMARK    3  A    between atoms: N_4  and  N_5
REMARK    4  A    between atoms: N_5  and  C_6
REMARK                            x       y       z     vdW  Elec       q    Type
REMARK                         _______ _______ _______ _____ _____    ______ ____
ROOT
ATOM      1  C   UNL     1       6.793   4.533  17.107  0.00  0.00    +0.000 C 
ATOM      2  N   UNL     1       5.721   3.837  17.368  0.00  0.00    +0.000 NA
ENDROOT
BRANCH   1   3
ATOM      3  C   UNL     1       7.130   4.885  15.754  0.00  0.00    +0.000 A 
ATOM      4  N   UNL     1       7.954   5.870  15.463  0.00  0.00    +0.000 NA
ATOM      5  N   UNL     1       8.125   5.898  14.107  0.00  0.00    +0.000 NA
ATOM      6  C   UNL     1       7.381   4.950  13.570  0.00  0.00    +0.000 A 
ATOM      7  N   UNL     1       6.697   4.313  14.581  0.00  0.00    +0.000 N 
ATOM      8  C   UNL     1       5.648   3.319  14.440  0.00  0.00    +0.000 C 
ATOM      9  C   UNL     1       4.728   3.570  13.249  0.00  0.00    +0.000 C 
ATOM     10  C   UNL     1       5.305   3.080  11.921  0.00  0.00    +0.000 C 
ATOM     11  C   UNL     1       6.815   3.264  11.762  0.00  0.00    +0.000 C 
ATOM     12  C   UNL     1       7.280   4.674  12.108  0.00  0.00    +0.000 C 
ENDBRANCH   1   3
BRANCH   1  14
ATOM     13  N   UNL     1       8.223   5.298  19.151  0.00  0.00    +0.000 NA
ATOM     14  C   UNL     1       7.630   4.948  18.215  0.00  0.00    +0.000 C 
ENDBRANCH   1  14
BRANCH   2  15
ATOM     15  N   UNL     1       5.396   3.514  18.654  0.00  0.00    +0.000 N 
ATOM     16  H   UNL     1       6.123   3.356  19.357  0.00  0.00    +0.000 HD
BRANCH  15  17
ATOM     17  C   UNL     1       4.199   4.062  19.164  0.00  0.00    +0.000 A 
ATOM     18  C   UNL     1       3.319   3.298  19.943  0.00  0.00    +0.000 A 
ATOM     19  C   UNL     1       2.146   3.859  20.446  0.00  0.00    +0.000 A 
ATOM     20 CL   UNL     1       1.089   2.902  21.411  0.00  0.00    +0.000 Cl
ATOM     21  C   UNL     1       1.820   5.183  20.175  0.00  0.00    +0.000 A 
ATOM     22  C   UNL     1       2.690   5.946  19.403  0.00  0.00    +0.000 A 
ATOM     23 CL   UNL     1       2.289   7.580  19.036  0.00  0.00    +0.000 Cl
ATOM     24  C   UNL     1       3.879   5.401  18.911  0.00  0.00    +0.000 A 
ENDBRANCH  15  17
ENDBRANCH   2  15
TORSDOF 4
ENDMDL
