MODEL 1
REMARK VINA RESULT:      -9.3      0.000      0.000
REMARK  Name = 
REMARK  8 active torsions:
REMARK  status: ('A' for Active; 'I' for Inactive)
REMARK    1  A    between atoms: C_1  and  C_2
REMARK    2  A    between atoms: C_2  and  C_3
REMARK    3  A    between atoms: C_2  and  N_4
REMARK    4  A    between atoms: C_2  and  C_15
REMARK    5  A    between atoms: N_4  and  C_5
REMARK    6  A    between atoms: C_9  and  S_10
REMARK    7  A    between atoms: S_10  and  N_11
REMARK    8  A    between atoms: C_21  and  C_22
REMARK                            x       y       z     vdW  Elec       q    Type
REMARK                         _______ _______ _______ _____ _____    ______ ____
ROOT
ATOM      1  C   UNL     1       1.201   9.914  18.873  0.00  0.00    +0.000 C 
ATOM      2  O   UNL     1       1.438  10.099  17.682  0.00  0.00    +0.000 OA
ATOM      3  N   UNL     1       1.522   8.784  19.582  0.00  0.00    +0.000 N 
ATOM      4  C   UNL     1       2.202   7.676  19.156  0.00  0.00    +0.000 A 
ATOM      5  N   UNL     1       2.097   6.572  19.853  0.00  0.00    +0.000 NA
ATOM      6  C   UNL     1       2.790   5.561  19.232  0.00  0.00    +0.000 A 
ATOM      7  C   UNL     1       2.800   4.190  19.580  0.00  0.00    +0.000 A 
ATOM      8  C   UNL     1       3.630   3.273  18.857  0.00  0.00    +0.000 A 
ATOM      9  C   UNL     1       4.385   3.772  17.793  0.00  0.00    +0.000 A 
ATOM     10  N   UNL     1       5.254   3.227  16.887  0.00  0.00    +0.000 N 
ATOM     11  N   UNL     1       5.741   4.121  15.994  0.00  0.00    +0.000 NA
ATOM     12  C   UNL     1       5.161   5.285  16.338  0.00  0.00    +0.000 A 
ATOM     13  C   UNL     1       4.312   5.105  17.448  0.00  0.00    +0.000 A 
ATOM     14  C   UNL     1       3.523   5.984  18.138  0.00  0.00    +0.000 A 
ATOM     15  S   UNL     1       3.248   7.599  17.796  0.00  0.00    +0.000 S 
ATOM     16  H   UNL     1       1.150   8.702  20.521  0.00  0.00    +0.000 HD
ATOM     17  H   UNL     1       5.554   2.260  16.816  0.00  0.00    +0.000 HD
ENDROOT
BRANCH   7  18
ATOM     18  C   UNL     1       1.897   3.668  20.664  0.00  0.00    +0.000 C 
ATOM     19  F   UNL     1       0.583   4.009  20.548  0.00  0.00    +0.000 F 
ATOM     20  F   UNL     1       1.909   2.303  20.706  0.00  0.00    +0.000 F 
ATOM     21  F   UNL     1       2.278   4.077  21.906  0.00  0.00    +0.000 F 
ENDBRANCH   7  18
BRANCH   1  23
ATOM     22  C   UNL     1       1.404  11.869  20.444  0.00  0.00    +0.000 C 
ATOM     23  C   UNL     1       0.388  10.948  19.728  0.00  0.00    +0.000 C 
ATOM     24  C   UNL     1      -0.444  10.235  20.802  0.00  0.00    +0.000 C 
BRANCH  23  25
ATOM     25  N   UNL     1      -0.477  11.854  18.905  0.00  0.00    +0.000 N 
ATOM     26  H   UNL     1      -0.442  12.808  19.267  0.00  0.00    +0.000 HD
BRANCH  25  27
ATOM     27  C   UNL     1      -1.791  11.530  18.549  0.00  0.00    +0.000 A 
ATOM     28  C   UNL     1      -2.018  10.516  17.599  0.00  0.00    +0.000 A 
ATOM     29  C   UNL     1      -3.312  10.091  17.262  0.00  0.00    +0.000 A 
ATOM     30  C   UNL     1      -4.414  10.647  17.898  0.00  0.00    +0.000 A 
ATOM     31  C   UNL     1      -4.200  11.644  18.844  0.00  0.00    +0.000 A 
ATOM     32  C   UNL     1      -2.911  12.077  19.171  0.00  0.00    +0.000 A 
BRANCH  31  33
ATOM     33  S   UNL     1      -5.571  12.424  19.631  0.00  0.00    +0.000 S 
ATOM     34  O   UNL     1      -6.685  12.477  18.719  0.00  0.00    +0.000 OA
ATOM     35  O   UNL     1      -5.698  11.930  20.984  0.00  0.00    +0.000 OA
BRANCH  33  36
ATOM     36  N   UNL     1      -4.973  13.985  19.752  0.00  0.00    +0.000 NA
ATOM     37  H   UNL     1      -4.820  14.238  20.726  0.00  0.00    +0.000 HD
ATOM     38  H   UNL     1      -4.177  14.122  19.130  0.00  0.00    +0.000 HD
ENDBRANCH  33  36
ENDBRANCH  31  33
ENDBRANCH  25  27
ENDBRANCH  23  25
ENDBRANCH   1  23
TORSDOF 6
ENDMDL
MODEL 2
REMARK VINA RESULT:      -9.3      0.847      1.045
REMARK  Name = 
REMARK  8 active torsions:
REMARK  status: ('A' for Active; 'I' for Inactive)
REMARK    1  A    between atoms: C_1  and  C_2
REMARK    2  A    between atoms: C_2  and  C_3
REMARK    3  A    between atoms: C_2  and  N_4
REMARK    4  A    between atoms: C_2  and  C_15
REMARK    5  A    between atoms: N_4  and  C_5
REMARK    6  A    between atoms: C_9  and  S_10
REMARK    7  A    between atoms: S_10  and  N_11
REMARK    8  A    between atoms: C_21  and  C_22
REMARK                            x       y       z     vdW  Elec       q    Type
REMARK                         _______ _______ _______ _____ _____    ______ ____
ROOT
ATOM      1  C   UNL     1       1.529   9.674  18.556  0.00  0.00    +0.000 C 
ATOM      2  O   UNL     1       1.964  10.031  17.464  0.00  0.00    +0.000 OA
ATOM      3  N   UNL     1       1.721   8.439  19.123  0.00  0.00    +0.000 N 
ATOM      4  C   UNL     1       2.457   7.389  18.649  0.00  0.00    +0.000 A 
ATOM      5  N   UNL     1       2.231   6.195  19.138  0.00  0.00    +0.000 NA
ATOM      6  C   UNL     1       3.012   5.270  18.490  0.00  0.00    +0.000 A 
ATOM      7  C   UNL     1       2.957   3.862  18.617  0.00  0.00    +0.000 A 
ATOM      8  C   UNL     1       3.891   3.040  17.907  0.00  0.00    +0.000 A 
ATOM      9  C   UNL     1       4.817   3.672  17.073  0.00  0.00    +0.000 A 
ATOM     10  N   UNL     1       5.822   3.244  16.249  0.00  0.00    +0.000 N 
ATOM     11  N   UNL     1       6.456   4.248  15.598  0.00  0.00    +0.000 NA
ATOM     12  C   UNL     1       5.833   5.364  16.019  0.00  0.00    +0.000 A 
ATOM     13  C   UNL     1       4.810   5.043  16.932  0.00  0.00    +0.000 A 
ATOM     14  C   UNL     1       3.920   5.831  17.611  0.00  0.00    +0.000 A 
ATOM     15  S   UNL     1       3.715   7.487  17.484  0.00  0.00    +0.000 S 
ATOM     16  H   UNL     1       1.196   8.227  19.964  0.00  0.00    +0.000 HD
ATOM     17  H   UNL     1       6.124   2.291  16.079  0.00  0.00    +0.000 HD
ENDROOT
BRANCH   7  18
ATOM     18  C   UNL     1       1.881   3.209  19.443  0.00  0.00    +0.000 C 
ATOM     19  F   UNL     1       1.765   3.664  20.721  0.00  0.00    +0.000 F 
ATOM     20  F   UNL     1       0.648   3.391  18.886  0.00  0.00    +0.000 F 
ATOM     21  F   UNL     1       2.044   1.861  19.543  0.00  0.00    +0.000 F 
ENDBRANCH   7  18
BRANCH   1  23
ATOM     22  C   UNL     1       1.488  11.479  20.307  0.00  0.00    +0.000 C 
ATOM     23  C   UNL     1       0.589  10.590  19.415  0.00  0.00    +0.000 C 
ATOM     24  C   UNL     1      -0.305   9.747  20.333  0.00  0.00    +0.000 C 
BRANCH  23  25
ATOM     25  N   UNL     1      -0.236  11.535  18.596  0.00  0.00    +0.000 N 
ATOM     26  H   UNL     1      -0.215  12.471  19.001  0.00  0.00    +0.000 HD
BRANCH  25  27
ATOM     27  C   UNL     1      -1.533  11.232  18.166  0.00  0.00    +0.000 A 
ATOM     28  C   UNL     1      -1.730  10.174  17.259  0.00  0.00    +0.000 A 
ATOM     29  C   UNL     1      -3.012   9.770  16.856  0.00  0.00    +0.000 A 
ATOM     30  C   UNL     1      -4.135  10.394  17.383  0.00  0.00    +0.000 A 
ATOM     31  C   UNL     1      -3.951  11.435  18.287  0.00  0.00    +0.000 A 
ATOM     32  C   UNL     1      -2.673  11.847  18.679  0.00  0.00    +0.000 A 
BRANCH  31  33
ATOM     33  S   UNL     1      -5.345  12.300  18.934  0.00  0.00    +0.000 S 
ATOM     34  O   UNL     1      -6.021  12.992  17.867  0.00  0.00    +0.000 OA
ATOM     35  O   UNL     1      -6.043  11.454  19.877  0.00  0.00    +0.000 OA
BRANCH  33  36
ATOM     36  N   UNL     1      -4.554  13.466  19.841  0.00  0.00    +0.000 NA
ATOM     37  H   UNL     1      -3.642  13.130  20.143  0.00  0.00    +0.000 HD
ATOM     38  H   UNL     1      -4.557  14.366  19.363  0.00  0.00    +0.000 HD
ENDBRANCH  33  36
ENDBRANCH  31  33
ENDBRANCH  25  27
ENDBRANCH  23  25
ENDBRANCH   1  23
TORSDOF 6
ENDMDL
MODEL 3
REMARK VINA RESULT:      -9.3      1.258      1.594
REMARK  Name = 
REMARK  8 active torsions:
REMARK  status: ('A' for Active; 'I' for Inactive)
REMARK    1  A    between atoms: C_1  and  C_2
REMARK    2  A    between atoms: C_2  and  C_3
REMARK    3  A    between atoms: C_2  and  N_4
REMARK    4  A    between atoms: C_2  and  C_15
REMARK    5  A    between atoms: N_4  and  C_5
REMARK    6  A    between atoms: C_9  and  S_10
REMARK    7  A    between atoms: S_10  and  N_11
REMARK    8  A    between atoms: C_21  and  C_22
REMARK                            x       y       z     vdW  Elec       q    Type
REMARK                         _______ _______ _______ _____ _____    ______ ____
ROOT
ATOM      1  C   UNL     1       1.456   9.670  18.525  0.00  0.00    +0.000 C 
ATOM      2  O   UNL     1       1.986  10.124  17.514  0.00  0.00    +0.000 OA
ATOM      3  N   UNL     1       1.613   8.391  18.998  0.00  0.00    +0.000 N 
ATOM      4  C   UNL     1       2.407   7.392  18.506  0.00  0.00    +0.000 A 
ATOM      5  N   UNL     1       2.155   6.158  18.866  0.00  0.00    +0.000 NA
ATOM      6  C   UNL     1       3.008   5.299  18.216  0.00  0.00    +0.000 A 
ATOM      7  C   UNL     1       2.963   3.885  18.215  0.00  0.00    +0.000 A 
ATOM      8  C   UNL     1       3.973   3.136  17.528  0.00  0.00    +0.000 A 
ATOM      9  C   UNL     1       4.962   3.846  16.843  0.00  0.00    +0.000 A 
ATOM     10  N   UNL     1       6.046   3.499  16.084  0.00  0.00    +0.000 N 
ATOM     11  N   UNL     1       6.723   4.562  15.586  0.00  0.00    +0.000 NA
ATOM     12  C   UNL     1       6.046   5.632  16.041  0.00  0.00    +0.000 A 
ATOM     13  C   UNL     1       4.947   5.223  16.822  0.00  0.00    +0.000 A 
ATOM     14  C   UNL     1       3.985   5.943  17.480  0.00  0.00    +0.000 A 
ATOM     15  S   UNL     1       3.767   7.602  17.479  0.00  0.00    +0.000 S 
ATOM     16  H   UNL     1       1.016   8.101  19.764  0.00  0.00    +0.000 HD
ATOM     17  H   UNL     1       6.378   2.567  15.861  0.00  0.00    +0.000 HD
ENDROOT
BRANCH   7  18
ATOM     18  C   UNL     1       1.825   3.154  18.876  0.00  0.00    +0.000 C 
ATOM     19  F   UNL     1       1.923   1.796  18.879  0.00  0.00    +0.000 F 
ATOM     20  F   UNL     1       1.705   3.507  20.190  0.00  0.00    +0.000 F 
ATOM     21  F   UNL     1       0.621   3.438  18.308  0.00  0.00    +0.000 F 
ENDBRANCH   7  18
BRANCH   1  23
ATOM     22  C   UNL     1       0.346  11.915  18.751  0.00  0.00    +0.000 C 
ATOM     23  C   UNL     1       0.426  10.499  19.368  0.00  0.00    +0.000 C 
ATOM     24  C   UNL     1       0.898  10.641  20.821  0.00  0.00    +0.000 C 
BRANCH  23  25
ATOM     25  N   UNL     1      -0.967   9.950  19.316  0.00  0.00    +0.000 N 
ATOM     26  H   UNL     1      -0.958   8.938  19.447  0.00  0.00    +0.000 HD
BRANCH  25  27
ATOM     27  C   UNL     1      -1.878  10.290  18.310  0.00  0.00    +0.000 A 
ATOM     28  C   UNL     1      -1.632   9.875  16.987  0.00  0.00    +0.000 A 
ATOM     29  C   UNL     1      -2.547  10.114  15.951  0.00  0.00    +0.000 A 
ATOM     30  C   UNL     1      -3.755  10.744  16.223  0.00  0.00    +0.000 A 
ATOM     31  C   UNL     1      -4.012  11.149  17.527  0.00  0.00    +0.000 A 
ATOM     32  C   UNL     1      -3.094  10.924  18.558  0.00  0.00    +0.000 A 
BRANCH  31  33
ATOM     33  S   UNL     1      -5.504  12.009  17.908  0.00  0.00    +0.000 S 
ATOM     34  O   UNL     1      -5.858  12.870  16.809  0.00  0.00    +0.000 OA
ATOM     35  O   UNL     1      -6.447  11.096  18.514  0.00  0.00    +0.000 OA
BRANCH  33  36
ATOM     36  N   UNL     1      -4.948  13.002  19.139  0.00  0.00    +0.000 NA
ATOM     37  H   UNL     1      -5.465  13.878  19.156  0.00  0.00    +0.000 HD
ATOM     38  H   UNL     1      -4.902  12.498  20.024  0.00  0.00    +0.000 HD
ENDBRANCH  33  36
ENDBRANCH  31  33
ENDBRANCH  25  27
ENDBRANCH  23  25
ENDBRANCH   1  23
TORSDOF 6
ENDMDL
MODEL 4
REMARK VINA RESULT:      -9.2      0.736      1.071
REMARK  Name = 
REMARK  8 active torsions:
REMARK  status: ('A' for Active; 'I' for Inactive)
REMARK    1  A    between atoms: C_1  and  C_2
REMARK    2  A    between atoms: C_2  and  C_3
REMARK    3  A    between atoms: C_2  and  N_4
REMARK    4  A    between atoms: C_2  and  C_15
REMARK    5  A    between atoms: N_4  and  C_5
REMARK    6  A    between atoms: C_9  and  S_10
REMARK    7  A    between atoms: S_10  and  N_11
REMARK    8  A    between atoms: C_21  and  C_22
REMARK                            x       y       z     vdW  Elec       q    Type
REMARK                         _______ _______ _______ _____ _____    ______ ____
ROOT
ATOM      1  C   UNL     1       1.117   9.884  18.934  0.00  0.00    +0.000 C 
ATOM      2  O   UNL     1       1.349  10.076  17.744  0.00  0.00    +0.000 OA
ATOM      3  N   UNL     1       1.459   8.756  19.639  0.00  0.00    +0.000 N 
ATOM      4  C   UNL     1       2.158   7.662  19.209  0.00  0.00    +0.000 A 
ATOM      5  N   UNL     1       2.074   6.554  19.902  0.00  0.00    +0.000 NA
ATOM      6  C   UNL     1       2.783   5.558  19.276  0.00  0.00    +0.000 A 
ATOM      7  C   UNL     1       2.818   4.186  19.619  0.00  0.00    +0.000 A 
ATOM      8  C   UNL     1       3.663   3.286  18.892  0.00  0.00    +0.000 A 
ATOM      9  C   UNL     1       4.408   3.802  17.829  0.00  0.00    +0.000 A 
ATOM     10  N   UNL     1       5.285   3.275  16.920  0.00  0.00    +0.000 N 
ATOM     11  N   UNL     1       5.754   4.181  16.029  0.00  0.00    +0.000 NA
ATOM     12  C   UNL     1       5.154   5.334  16.378  0.00  0.00    +0.000 A 
ATOM     13  C   UNL     1       4.311   5.134  17.489  0.00  0.00    +0.000 A 
ATOM     14  C   UNL     1       3.507   5.998  18.183  0.00  0.00    +0.000 A 
ATOM     15  S   UNL     1       3.202   7.609  17.847  0.00  0.00    +0.000 S 
ATOM     16  H   UNL     1       1.090   8.665  20.578  0.00  0.00    +0.000 HD
ATOM     17  H   UNL     1       5.601   2.314  16.845  0.00  0.00    +0.000 HD
ENDROOT
BRANCH   7  18
ATOM     18  C   UNL     1       1.925   3.645  20.703  0.00  0.00    +0.000 C 
ATOM     19  F   UNL     1       2.209   4.070  21.965  0.00  0.00    +0.000 F 
ATOM     20  F   UNL     1       0.622   3.993  20.493  0.00  0.00    +0.000 F 
ATOM     21  F   UNL     1       1.936   2.284  20.759  0.00  0.00    +0.000 F 
ENDBRANCH   7  18
BRANCH   1  23
ATOM     22  C   UNL     1       1.288  11.833  20.515  0.00  0.00    +0.000 C 
ATOM     23  C   UNL     1       0.287  10.900  19.794  0.00  0.00    +0.000 C 
ATOM     24  C   UNL     1      -0.534  10.168  20.863  0.00  0.00    +0.000 C 
BRANCH  23  25
ATOM     25  N   UNL     1      -0.591  11.796  18.975  0.00  0.00    +0.000 N 
ATOM     26  H   UNL     1      -0.691  12.707  19.425  0.00  0.00    +0.000 HD
BRANCH  25  27
ATOM     27  C   UNL     1      -1.826  11.384  18.460  0.00  0.00    +0.000 A 
ATOM     28  C   UNL     1      -1.866  10.337  17.520  0.00  0.00    +0.000 A 
ATOM     29  C   UNL     1      -3.077   9.825  17.030  0.00  0.00    +0.000 A 
ATOM     30  C   UNL     1      -4.284  10.327  17.500  0.00  0.00    +0.000 A 
ATOM     31  C   UNL     1      -4.255  11.356  18.435  0.00  0.00    +0.000 A 
ATOM     32  C   UNL     1      -3.048  11.875  18.914  0.00  0.00    +0.000 A 
BRANCH  31  33
ATOM     33  S   UNL     1      -5.761  12.068  19.013  0.00  0.00    +0.000 S 
ATOM     34  O   UNL     1      -6.252  11.312  20.137  0.00  0.00    +0.000 OA
ATOM     35  O   UNL     1      -5.636  13.508  19.040  0.00  0.00    +0.000 OA
BRANCH  33  36
ATOM     36  N   UNL     1      -6.758  11.704  17.715  0.00  0.00    +0.000 NA
ATOM     37  H   UNL     1      -7.546  12.347  17.675  0.00  0.00    +0.000 HD
ATOM     38  H   UNL     1      -6.220  11.611  16.855  0.00  0.00    +0.000 HD
ENDBRANCH  33  36
ENDBRANCH  31  33
ENDBRANCH  25  27
ENDBRANCH  23  25
ENDBRANCH   1  23
TORSDOF 6
ENDMDL
MODEL 5
REMARK VINA RESULT:      -9.2      1.069      1.329
REMARK  Name = 
REMARK  8 active torsions:
REMARK  status: ('A' for Active; 'I' for Inactive)
REMARK    1  A    between atoms: C_1  and  C_2
REMARK    2  A    between atoms: C_2  and  C_3
REMARK    3  A    between atoms: C_2  and  N_4
REMARK    4  A    between atoms: C_2  and  C_15
REMARK    5  A    between atoms: N_4  and  C_5
REMARK    6  A    between atoms: C_9  and  S_10
REMARK    7  A    between atoms: S_10  and  N_11
REMARK    8  A    between atoms: C_21  and  C_22
REMARK                            x       y       z     vdW  Elec       q    Type
REMARK                         _______ _______ _______ _____ _____    ______ ____
ROOT
ATOM      1  C   UNL     1       1.228   9.938  18.608  0.00  0.00    +0.000 C 
ATOM      2  O   UNL     1       1.580  10.148  17.450  0.00  0.00    +0.000 OA
ATOM      3  N   UNL     1       1.471   8.787  19.316  0.00  0.00    +0.000 N 
ATOM      4  C   UNL     1       2.179   7.683  18.930  0.00  0.00    +0.000 A 
ATOM      5  N   UNL     1       1.999   6.564  19.587  0.00  0.00    +0.000 NA
ATOM      6  C   UNL     1       2.739   5.560  19.009  0.00  0.00    +0.000 A 
ATOM      7  C   UNL     1       2.705   4.182  19.323  0.00  0.00    +0.000 A 
ATOM      8  C   UNL     1       3.592   3.273  18.660  0.00  0.00    +0.000 A 
ATOM      9  C   UNL     1       4.449   3.789  17.685  0.00  0.00    +0.000 A 
ATOM     10  N   UNL     1       5.396   3.256  16.853  0.00  0.00    +0.000 N 
ATOM     11  N   UNL     1       5.973   4.166  16.032  0.00  0.00    +0.000 NA
ATOM     12  C   UNL     1       5.373   5.328  16.348  0.00  0.00    +0.000 A 
ATOM     13  C   UNL     1       4.421   5.130  17.368  0.00  0.00    +0.000 A 
ATOM     14  C   UNL     1       3.577   6.001  18.001  0.00  0.00    +0.000 A 
ATOM     15  S   UNL     1       3.349   7.627  17.674  0.00  0.00    +0.000 S 
ATOM     16  H   UNL     1       1.011   8.687  20.213  0.00  0.00    +0.000 HD
ATOM     17  H   UNL     1       5.693   2.288  16.787  0.00  0.00    +0.000 HD
ENDROOT
BRANCH   7  18
ATOM     18  C   UNL     1       1.698   3.644  20.303  0.00  0.00    +0.000 C 
ATOM     19  F   UNL     1       0.405   4.006  20.075  0.00  0.00    +0.000 F 
ATOM     20  F   UNL     1       1.691   2.278  20.309  0.00  0.00    +0.000 F 
ATOM     21  F   UNL     1       1.966   4.015  21.586  0.00  0.00    +0.000 F 
ENDBRANCH   7  18
BRANCH   1  23
ATOM     22  C   UNL     1       0.309  12.279  18.601  0.00  0.00    +0.000 C 
ATOM     23  C   UNL     1       0.346  10.960  19.407  0.00  0.00    +0.000 C 
ATOM     24  C   UNL     1       0.963  11.258  20.779  0.00  0.00    +0.000 C 
BRANCH  23  25
ATOM     25  N   UNL     1      -1.082  10.529  19.552  0.00  0.00    +0.000 N 
ATOM     26  H   UNL     1      -1.133   9.587  19.943  0.00  0.00    +0.000 HD
BRANCH  25  27
ATOM     27  C   UNL     1      -2.024  10.669  18.527  0.00  0.00    +0.000 A 
ATOM     28  C   UNL     1      -1.816  10.006  17.303  0.00  0.00    +0.000 A 
ATOM     29  C   UNL     1      -2.763  10.041  16.268  0.00  0.00    +0.000 A 
ATOM     30  C   UNL     1      -3.964  10.715  16.449  0.00  0.00    +0.000 A 
ATOM     31  C   UNL     1      -4.183  11.366  17.658  0.00  0.00    +0.000 A 
ATOM     32  C   UNL     1      -3.234  11.342  18.685  0.00  0.00    +0.000 A 
BRANCH  31  33
ATOM     33  S   UNL     1      -5.666  12.287  17.909  0.00  0.00    +0.000 S 
ATOM     34  O   UNL     1      -5.625  12.923  19.201  0.00  0.00    +0.000 OA
ATOM     35  O   UNL     1      -6.000  13.005  16.700  0.00  0.00    +0.000 OA
BRANCH  33  36
ATOM     36  N   UNL     1      -6.762  11.025  18.028  0.00  0.00    +0.000 NA
ATOM     37  H   UNL     1      -7.332  10.962  17.187  0.00  0.00    +0.000 HD
ATOM     38  H   UNL     1      -6.299  10.163  18.313  0.00  0.00    +0.000 HD
ENDBRANCH  33  36
ENDBRANCH  31  33
ENDBRANCH  25  27
ENDBRANCH  23  25
ENDBRANCH   1  23
TORSDOF 6
ENDMDL
MODEL 6
REMARK VINA RESULT:      -9.0      1.961      2.455
REMARK  Name = 
REMARK  8 active torsions:
REMARK  status: ('A' for Active; 'I' for Inactive)
REMARK    1  A    between atoms: C_1  and  C_2
REMARK    2  A    between atoms: C_2  and  C_3
REMARK    3  A    between atoms: C_2  and  N_4
REMARK    4  A    between atoms: C_2  and  C_15
REMARK    5  A    between atoms: N_4  and  C_5
REMARK    6  A    between atoms: C_9  and  S_10
REMARK    7  A    between atoms: S_10  and  N_11
REMARK    8  A    between atoms: C_21  and  C_22
REMARK                            x       y       z     vdW  Elec       q    Type
REMARK                         _______ _______ _______ _____ _____    ______ ____
ROOT
ATOM      1  C   UNL     1       1.398   8.903  19.992  0.00  0.00    +0.000 C 
ATOM      2  O   UNL     1       1.469   9.526  18.935  0.00  0.00    +0.000 OA
ATOM      3  N   UNL     1       1.890   7.640  20.205  0.00  0.00    +0.000 N 
ATOM      4  C   UNL     1       2.594   6.844  19.344  0.00  0.00    +0.000 A 
ATOM      5  N   UNL     1       2.662   5.560  19.594  0.00  0.00    +0.000 NA
ATOM      6  C   UNL     1       3.346   4.924  18.586  0.00  0.00    +0.000 A 
ATOM      7  C   UNL     1       3.504   3.530  18.405  0.00  0.00    +0.000 A 
ATOM      8  C   UNL     1       4.304   3.033  17.325  0.00  0.00    +0.000 A 
ATOM      9  C   UNL     1       4.879   3.963  16.456  0.00  0.00    +0.000 A 
ATOM     10  N   UNL     1       5.666   3.880  15.339  0.00  0.00    +0.000 N 
ATOM     11  N   UNL     1       5.968   5.084  14.796  0.00  0.00    +0.000 NA
ATOM     12  C   UNL     1       5.349   5.974  15.593  0.00  0.00    +0.000 A 
ATOM     13  C   UNL     1       4.663   5.312  16.631  0.00  0.00    +0.000 A 
ATOM     14  C   UNL     1       3.901   5.791  17.663  0.00  0.00    +0.000 A 
ATOM     15  S   UNL     1       3.463   7.378  17.963  0.00  0.00    +0.000 S 
ATOM     16  H   UNL     1       1.647   7.187  21.078  0.00  0.00    +0.000 HD
ATOM     17  H   UNL     1       6.028   3.044  14.892  0.00  0.00    +0.000 HD
ENDROOT
BRANCH   7  18
ATOM     18  C   UNL     1       2.786   2.555  19.299  0.00  0.00    +0.000 C 
ATOM     19  F   UNL     1       1.435   2.710  19.370  0.00  0.00    +0.000 F 
ATOM     20  F   UNL     1       2.977   1.268  18.884  0.00  0.00    +0.000 F 
ATOM     21  F   UNL     1       3.233   2.596  20.584  0.00  0.00    +0.000 F 
ENDBRANCH   7  18
BRANCH   1  23
ATOM     22  C   UNL     1       1.566   9.372  22.457  0.00  0.00    +0.000 C 
ATOM     23  C   UNL     1       0.622   9.463  21.235  0.00  0.00    +0.000 C 
ATOM     24  C   UNL     1      -0.620   8.614  21.531  0.00  0.00    +0.000 C 
BRANCH  23  25
ATOM     25  N   UNL     1       0.256  10.910  21.108  0.00  0.00    +0.000 N 
ATOM     26  H   UNL     1       0.517  11.421  21.952  0.00  0.00    +0.000 HD
BRANCH  25  27
ATOM     27  C   UNL     1      -1.001  11.338  20.664  0.00  0.00    +0.000 A 
ATOM     28  C   UNL     1      -1.759  12.206  21.472  0.00  0.00    +0.000 A 
ATOM     29  C   UNL     1      -2.988  12.734  21.047  0.00  0.00    +0.000 A 
ATOM     30  C   UNL     1      -3.472  12.432  19.780  0.00  0.00    +0.000 A 
ATOM     31  C   UNL     1      -2.727  11.582  18.971  0.00  0.00    +0.000 A 
ATOM     32  C   UNL     1      -1.508  11.046  19.400  0.00  0.00    +0.000 A 
BRANCH  31  33
ATOM     33  S   UNL     1      -3.331  11.121  17.380  0.00  0.00    +0.000 S 
ATOM     34  O   UNL     1      -3.307   9.686  17.253  0.00  0.00    +0.000 OA
ATOM     35  O   UNL     1      -4.501  11.909  17.060  0.00  0.00    +0.000 OA
BRANCH  33  36
ATOM     36  N   UNL     1      -2.087  11.711  16.426  0.00  0.00    +0.000 NA
ATOM     37  H   UNL     1      -1.258  11.127  16.511  0.00  0.00    +0.000 HD
ATOM     38  H   UNL     1      -2.407  11.888  15.474  0.00  0.00    +0.000 HD
ENDBRANCH  33  36
ENDBRANCH  31  33
ENDBRANCH  25  27
ENDBRANCH  23  25
ENDBRANCH   1  23
TORSDOF 6
ENDMDL
MODEL 7
REMARK VINA RESULT:      -9.0      1.097      1.554
REMARK  Name = 
REMARK  8 active torsions:
REMARK  status: ('A' for Active; 'I' for Inactive)
REMARK    1  A    between atoms: C_1  and  C_2
REMARK    2  A    between atoms: C_2  and  C_3
REMARK    3  A    between atoms: C_2  and  N_4
REMARK    4  A    between atoms: C_2  and  C_15
REMARK    5  A    between atoms: N_4  and  C_5
REMARK    6  A    between atoms: C_9  and  S_10
REMARK    7  A    between atoms: S_10  and  N_11
REMARK    8  A    between atoms: C_21  and  C_22
REMARK                            x       y       z     vdW  Elec       q    Type
REMARK                         _______ _______ _______ _____ _____    ______ ____
ROOT
ATOM      1  C   UNL     1       1.186   9.843  19.070  0.00  0.00    +0.000 C 
ATOM      2  O   UNL     1       1.400  10.051  17.878  0.00  0.00    +0.000 OA
ATOM      3  N   UNL     1       1.522   8.699  19.750  0.00  0.00    +0.000 N 
ATOM      4  C   UNL     1       2.195   7.601  19.289  0.00  0.00    +0.000 A 
ATOM      5  N   UNL     1       2.105   6.483  19.966  0.00  0.00    +0.000 NA
ATOM      6  C   UNL     1       2.786   5.485  19.311  0.00  0.00    +0.000 A 
ATOM      7  C   UNL     1       2.804   4.108  19.632  0.00  0.00    +0.000 A 
ATOM      8  C   UNL     1       3.621   3.206  18.875  0.00  0.00    +0.000 A 
ATOM      9  C   UNL     1       4.354   3.727  17.807  0.00  0.00    +0.000 A 
ATOM     10  N   UNL     1       5.206   3.201  16.873  0.00  0.00    +0.000 N 
ATOM     11  N   UNL     1       5.674   4.113  15.988  0.00  0.00    +0.000 NA
ATOM     12  C   UNL     1       5.100   5.270  16.367  0.00  0.00    +0.000 A 
ATOM     13  C   UNL     1       4.273   5.066  17.490  0.00  0.00    +0.000 A 
ATOM     14  C   UNL     1       3.497   5.931  18.212  0.00  0.00    +0.000 A 
ATOM     15  S   UNL     1       3.213   7.552  17.908  0.00  0.00    +0.000 S 
ATOM     16  H   UNL     1       1.169   8.598  20.694  0.00  0.00    +0.000 HD
ATOM     17  H   UNL     1       5.505   2.236  16.777  0.00  0.00    +0.000 HD
ENDROOT
BRANCH   7  18
ATOM     18  C   UNL     1       1.923   3.563  20.723  0.00  0.00    +0.000 C 
ATOM     19  F   UNL     1       0.602   3.880  20.624  0.00  0.00    +0.000 F 
ATOM     20  F   UNL     1       1.961   2.199  20.758  0.00  0.00    +0.000 F 
ATOM     21  F   UNL     1       2.310   3.972  21.963  0.00  0.00    +0.000 F 
ENDBRANCH   7  18
BRANCH   1  23
ATOM     22  C   UNL     1       1.419  11.731  20.715  0.00  0.00    +0.000 C 
ATOM     23  C   UNL     1       0.389  10.858  19.961  0.00  0.00    +0.000 C 
ATOM     24  C   UNL     1      -0.460  10.121  21.004  0.00  0.00    +0.000 C 
BRANCH  23  25
ATOM     25  N   UNL     1      -0.455  11.811  19.170  0.00  0.00    +0.000 N 
ATOM     26  H   UNL     1       0.010  12.716  19.087  0.00  0.00    +0.000 HD
BRANCH  25  27
ATOM     27  C   UNL     1      -1.820  12.001  19.418  0.00  0.00    +0.000 A 
ATOM     28  C   UNL     1      -2.223  12.640  20.606  0.00  0.00    +0.000 A 
ATOM     29  C   UNL     1      -3.570  12.931  20.872  0.00  0.00    +0.000 A 
ATOM     30  C   UNL     1      -4.546  12.622  19.933  0.00  0.00    +0.000 A 
ATOM     31  C   UNL     1      -4.157  11.998  18.753  0.00  0.00    +0.000 A 
ATOM     32  C   UNL     1      -2.816  11.695  18.493  0.00  0.00    +0.000 A 
BRANCH  31  33
ATOM     33  S   UNL     1      -5.367  11.528  17.561  0.00  0.00    +0.000 S 
ATOM     34  O   UNL     1      -4.712  11.069  16.363  0.00  0.00    +0.000 OA
ATOM     35  O   UNL     1      -6.418  10.775  18.209  0.00  0.00    +0.000 OA
BRANCH  33  36
ATOM     36  N   UNL     1      -6.013  13.035  17.210  0.00  0.00    +0.000 NA
ATOM     37  H   UNL     1      -5.611  13.409  16.353  0.00  0.00    +0.000 HD
ATOM     38  H   UNL     1      -7.032  13.015  17.248  0.00  0.00    +0.000 HD
ENDBRANCH  33  36
ENDBRANCH  31  33
ENDBRANCH  25  27
ENDBRANCH  23  25
ENDBRANCH   1  23
TORSDOF 6
ENDMDL
MODEL 8
REMARK VINA RESULT:      -8.8      1.324      1.824
REMARK  Name = 
REMARK  8 active torsions:
REMARK  status: ('A' for Active; 'I' for Inactive)
REMARK    1  A    between atoms: C_1  and  C_2
REMARK    2  A    between atoms: C_2  and  C_3
REMARK    3  A    between atoms: C_2  and  N_4
REMARK    4  A    between atoms: C_2  and  C_15
REMARK    5  A    between atoms: N_4  and  C_5
REMARK    6  A    between atoms: C_9  and  S_10
REMARK    7  A    between atoms: S_10  and  N_11
REMARK    8  A    between atoms: C_21  and  C_22
REMARK                            x       y       z     vdW  Elec       q    Type
REMARK                         _______ _______ _______ _____ _____    ______ ____
ROOT
ATOM      1  C   UNL     1       1.508   9.612  18.738  0.00  0.00    +0.000 C 
ATOM      2  O   UNL     1       1.923  10.028  17.659  0.00  0.00    +0.000 OA
ATOM      3  N   UNL     1       1.720   8.352  19.239  0.00  0.00    +0.000 N 
ATOM      4  C   UNL     1       2.459   7.335  18.701  0.00  0.00    +0.000 A 
ATOM      5  N   UNL     1       2.252   6.115  19.132  0.00  0.00    +0.000 NA
ATOM      6  C   UNL     1       3.033   5.232  18.426  0.00  0.00    +0.000 A 
ATOM      7  C   UNL     1       2.993   3.820  18.483  0.00  0.00    +0.000 A 
ATOM      8  C   UNL     1       3.925   3.045  17.719  0.00  0.00    +0.000 A 
ATOM      9  C   UNL     1       4.832   3.727  16.905  0.00  0.00    +0.000 A 
ATOM     10  N   UNL     1       5.829   3.353  16.047  0.00  0.00    +0.000 N 
ATOM     11  N   UNL     1       6.444   4.395  15.439  0.00  0.00    +0.000 NA
ATOM     12  C   UNL     1       5.816   5.482  15.925  0.00  0.00    +0.000 A 
ATOM     13  C   UNL     1       4.809   5.104  16.835  0.00  0.00    +0.000 A 
ATOM     14  C   UNL     1       3.922   5.847  17.565  0.00  0.00    +0.000 A 
ATOM     15  S   UNL     1       3.699   7.505  17.526  0.00  0.00    +0.000 S 
ATOM     16  H   UNL     1       1.210   8.092  20.075  0.00  0.00    +0.000 HD
ATOM     17  H   UNL     1       6.138   2.412  15.823  0.00  0.00    +0.000 HD
ENDROOT
BRANCH   7  18
ATOM     18  C   UNL     1       1.936   3.114  19.290  0.00  0.00    +0.000 C 
ATOM     19  F   UNL     1       1.830   3.507  20.589  0.00  0.00    +0.000 F 
ATOM     20  F   UNL     1       0.694   3.307  18.756  0.00  0.00    +0.000 F 
ATOM     21  F   UNL     1       2.116   1.765  19.323  0.00  0.00    +0.000 F 
ENDBRANCH   7  18
BRANCH   1  23
ATOM     22  C   UNL     1       1.474  11.280  20.620  0.00  0.00    +0.000 C 
ATOM     23  C   UNL     1       0.572  10.474  19.656  0.00  0.00    +0.000 C 
ATOM     24  C   UNL     1      -0.341   9.576  20.501  0.00  0.00    +0.000 C 
BRANCH  23  25
ATOM     25  N   UNL     1      -0.233  11.488  18.903  0.00  0.00    +0.000 N 
ATOM     26  H   UNL     1       0.290  12.359  18.805  0.00  0.00    +0.000 HD
BRANCH  25  27
ATOM     27  C   UNL     1      -1.571  11.770  19.205  0.00  0.00    +0.000 A 
ATOM     28  C   UNL     1      -1.878  12.476  20.383  0.00  0.00    +0.000 A 
ATOM     29  C   UNL     1      -3.190  12.860  20.699  0.00  0.00    +0.000 A 
ATOM     30  C   UNL     1      -4.227  12.577  19.819  0.00  0.00    +0.000 A 
ATOM     31  C   UNL     1      -3.933  11.887  18.648  0.00  0.00    +0.000 A 
ATOM     32  C   UNL     1      -2.626  11.493  18.339  0.00  0.00    +0.000 A 
BRANCH  31  33
ATOM     33  S   UNL     1      -5.225  11.449  17.532  0.00  0.00    +0.000 S 
ATOM     34  O   UNL     1      -4.656  11.011  16.283  0.00  0.00    +0.000 OA
ATOM     35  O   UNL     1      -6.234  10.688  18.234  0.00  0.00    +0.000 OA
BRANCH  33  36
ATOM     36  N   UNL     1      -5.883  12.966  17.257  0.00  0.00    +0.000 NA
ATOM     37  H   UNL     1      -6.102  13.090  16.271  0.00  0.00    +0.000 HD
ATOM     38  H   UNL     1      -6.644  13.158  17.906  0.00  0.00    +0.000 HD
ENDBRANCH  33  36
ENDBRANCH  31  33
ENDBRANCH  25  27
ENDBRANCH  23  25
ENDBRANCH   1  23
TORSDOF 6
ENDMDL
MODEL 9
REMARK VINA RESULT:      -8.8      1.368      1.764
REMARK  Name = 
REMARK  8 active torsions:
REMARK  status: ('A' for Active; 'I' for Inactive)
REMARK    1  A    between atoms: C_1  and  C_2
REMARK    2  A    between atoms: C_2  and  C_3
REMARK    3  A    between atoms: C_2  and  N_4
REMARK    4  A    between atoms: C_2  and  C_15
REMARK    5  A    between atoms: N_4  and  C_5
REMARK    6  A    between atoms: C_9  and  S_10
REMARK    7  A    between atoms: S_10  and  N_11
REMARK    8  A    between atoms: C_21  and  C_22
REMARK                            x       y       z     vdW  Elec       q    Type
REMARK                         _______ _______ _______ _____ _____    ______ ____
ROOT
ATOM      1  C   UNL     1       1.622   9.854  18.342  0.00  0.00    +0.000 C 
ATOM      2  O   UNL     1       2.278  10.344  17.426  0.00  0.00    +0.000 OA
ATOM      3  N   UNL     1       1.697   8.551  18.765  0.00  0.00    +0.000 N 
ATOM      4  C   UNL     1       2.526   7.558  18.321  0.00  0.00    +0.000 A 
ATOM      5  N   UNL     1       2.210   6.315  18.586  0.00  0.00    +0.000 NA
ATOM      6  C   UNL     1       3.119   5.467  18.000  0.00  0.00    +0.000 A 
ATOM      7  C   UNL     1       3.049   4.057  17.922  0.00  0.00    +0.000 A 
ATOM      8  C   UNL     1       4.120   3.317  17.323  0.00  0.00    +0.000 A 
ATOM      9  C   UNL     1       5.198   4.035  16.799  0.00  0.00    +0.000 A 
ATOM     10  N   UNL     1       6.360   3.699  16.158  0.00  0.00    +0.000 N 
ATOM     11  N   UNL     1       7.111   4.768  15.799  0.00  0.00    +0.000 NA
ATOM     12  C   UNL     1       6.403   5.831  16.224  0.00  0.00    +0.000 A 
ATOM     13  C   UNL     1       5.210   5.412  16.846  0.00  0.00    +0.000 A 
ATOM     14  C   UNL     1       4.190   6.122  17.420  0.00  0.00    +0.000 A 
ATOM     15  S   UNL     1       4.004   7.784  17.476  0.00  0.00    +0.000 S 
ATOM     16  H   UNL     1       1.007   8.239  19.438  0.00  0.00    +0.000 HD
ATOM     17  H   UNL     1       6.699   2.771  15.929  0.00  0.00    +0.000 HD
ENDROOT
BRANCH   7  18
ATOM     18  C   UNL     1       1.827   3.323  18.404  0.00  0.00    +0.000 C 
ATOM     19  F   UNL     1       1.562   3.434  19.735  0.00  0.00    +0.000 F 
ATOM     20  F   UNL     1       0.699   3.770  17.776  0.00  0.00    +0.000 F 
ATOM     21  F   UNL     1       1.883   1.987  18.147  0.00  0.00    +0.000 F 
ENDBRANCH   7  18
BRANCH   1  23
ATOM     22  C   UNL     1       1.221  11.604  20.104  0.00  0.00    +0.000 C 
ATOM     23  C   UNL     1       0.513  10.667  19.097  0.00  0.00    +0.000 C 
ATOM     24  C   UNL     1      -0.408   9.730  19.888  0.00  0.00    +0.000 C 
BRANCH  23  25
ATOM     25  N   UNL     1      -0.287  11.561  18.199  0.00  0.00    +0.000 N 
ATOM     26  H   UNL     1       0.127  12.493  18.161  0.00  0.00    +0.000 HD
BRANCH  25  27
ATOM     27  C   UNL     1      -1.681  11.664  18.279  0.00  0.00    +0.000 A 
ATOM     28  C   UNL     1      -2.474  11.086  17.269  0.00  0.00    +0.000 A 
ATOM     29  C   UNL     1      -3.876  11.085  17.335  0.00  0.00    +0.000 A 
ATOM     30  C   UNL     1      -4.519  11.632  18.437  0.00  0.00    +0.000 A 
ATOM     31  C   UNL     1      -3.745  12.198  19.444  0.00  0.00    +0.000 A 
ATOM     32  C   UNL     1      -2.348  12.211  19.372  0.00  0.00    +0.000 A 
BRANCH  31  33
ATOM     33  S   UNL     1      -4.519  12.961  20.832  0.00  0.00    +0.000 S 
ATOM     34  O   UNL     1      -3.707  12.765  22.006  0.00  0.00    +0.000 OA
ATOM     35  O   UNL     1      -5.029  14.259  20.448  0.00  0.00    +0.000 OA
BRANCH  33  36
ATOM     36  N   UNL     1      -5.853  11.959  20.995  0.00  0.00    +0.000 NA
ATOM     37  H   UNL     1      -6.715  12.480  20.849  0.00  0.00    +0.000 HD
ATOM     38  H   UNL     1      -5.747  11.114  20.435  0.00  0.00    +0.000 HD
ENDBRANCH  33  36
ENDBRANCH  31  33
ENDBRANCH  25  27
ENDBRANCH  23  25
ENDBRANCH   1  23
TORSDOF 6
ENDMDL
