MODEL 1
REMARK VINA RESULT:      -7.5      0.000      0.000
REMARK  Name = 
REMARK  7 active torsions:
REMARK  status: ('A' for Active; 'I' for Inactive)
REMARK    1  A    between atoms: C_1  and  C_2
REMARK    2  A    between atoms: C_2  and  O_4
REMARK    3  A    between atoms: O_4  and  C_5
REMARK    4  A    between atoms: C_5  and  C_6
REMARK    5  A    between atoms: N_8  and  C_9
REMARK    6  A    between atoms: C_12  and  N_13
REMARK    7  A    between atoms: N_14  and  C_15
REMARK                            x       y       z     vdW  Elec       q    Type
REMARK                         _______ _______ _______ _____ _____    ______ ____
ROOT
ATOM      1  C   UNL     1       6.380   5.189  18.303  0.00  0.00    +0.000 A 
ATOM      2  C   UNL     1       7.511   5.502  19.059  0.00  0.00    +0.000 A 
ATOM      3  C   UNL     1       8.151   6.736  18.917  0.00  0.00    +0.000 A 
ATOM      4  C   UNL     1       7.689   7.687  18.008  0.00  0.00    +0.000 A 
ATOM      5  C   UNL     1       6.547   7.380  17.256  0.00  0.00    +0.000 A 
ATOM      6  C   UNL     1       5.906   6.136  17.387  0.00  0.00    +0.000 A 
ENDROOT
BRANCH   1   9
ATOM      7  C   UNL     1       4.600   3.699  19.205  0.00  0.00    +0.000 C 
ATOM      8  O   UNL     1       3.957   4.550  19.820  0.00  0.00    +0.000 OA
ATOM      9  N   UNL     1       5.711   3.946  18.407  0.00  0.00    +0.000 N 
ATOM     10  H   UNL     1       6.048   3.199  17.817  0.00  0.00    +0.000 HD
BRANCH   7  11
ATOM     11  C   UNL     1       4.166   2.233  19.251  0.00  0.00    +0.000 C 
BRANCH  11  12
ATOM     12  O   UNL     1       3.531   1.840  18.030  0.00  0.00    +0.000 OA
BRANCH  12  14
ATOM     13  C   UNL     1       1.339   2.132  18.835  0.00  0.00    +0.000 C 
ATOM     14  C   UNL     1       2.353   2.480  17.790  0.00  0.00    +0.000 C 
ATOM     15  O   UNL     1       2.145   3.232  16.846  0.00  0.00    +0.000 OA
ENDBRANCH  12  14
ENDBRANCH  11  12
ENDBRANCH   7  11
ENDBRANCH   1   9
BRANCH   4  16
ATOM     16  N   UNL     1       8.404   8.897  17.918  0.00  0.00    +0.000 NA
ATOM     17  N   UNL     1       8.927   9.228  19.001  0.00  0.00    +0.000 NA
BRANCH  17  18
ATOM     18  C   UNL     1       9.439  10.544  18.976  0.00  0.00    +0.000 A 
ATOM     19  C   UNL     1       9.806  11.114  20.202  0.00  0.00    +0.000 A 
ATOM     20  C   UNL     1      10.288  12.422  20.274  0.00  0.00    +0.000 A 
ATOM     21  C   UNL     1      10.420  13.179  19.113  0.00  0.00    +0.000 A 
ATOM     22  C   UNL     1      10.079  12.625  17.881  0.00  0.00    +0.000 A 
ATOM     23  C   UNL     1       9.598  11.314  17.813  0.00  0.00    +0.000 A 
ENDBRANCH  17  18
ENDBRANCH   4  16
TORSDOF 6
ENDMDL
MODEL 2
REMARK VINA RESULT:      -7.4      0.919      1.621
REMARK  Name = 
REMARK  7 active torsions:
REMARK  status: ('A' for Active; 'I' for Inactive)
REMARK    1  A    between atoms: C_1  and  C_2
REMARK    2  A    between atoms: C_2  and  O_4
REMARK    3  A    between atoms: O_4  and  C_5
REMARK    4  A    between atoms: C_5  and  C_6
REMARK    5  A    between atoms: N_8  and  C_9
REMARK    6  A    between atoms: C_12  and  N_13
REMARK    7  A    between atoms: N_14  and  C_15
REMARK                            x       y       z     vdW  Elec       q    Type
REMARK                         _______ _______ _______ _____ _____    ______ ____
ROOT
ATOM      1  C   UNL     1       6.282   5.136  18.328  0.00  0.00    +0.000 A 
ATOM      2  C   UNL     1       5.811   6.022  17.359  0.00  0.00    +0.000 A 
ATOM      3  C   UNL     1       6.475   7.225  17.100  0.00  0.00    +0.000 A 
ATOM      4  C   UNL     1       7.619   7.582  17.811  0.00  0.00    +0.000 A 
ATOM      5  C   UNL     1       8.102   6.690  18.778  0.00  0.00    +0.000 A 
ATOM      6  C   UNL     1       7.431   5.485  19.049  0.00  0.00    +0.000 A 
ENDROOT
BRANCH   1   9
ATOM      7  C   UNL     1       4.511   3.787  19.443  0.00  0.00    +0.000 C 
ATOM      8  O   UNL     1       3.845   4.716  19.898  0.00  0.00    +0.000 OA
ATOM      9  N   UNL     1       5.631   3.916  18.630  0.00  0.00    +0.000 N 
ATOM     10  H   UNL     1       5.989   3.087  18.179  0.00  0.00    +0.000 HD
BRANCH   7  11
ATOM     11  C   UNL     1       4.100   2.341  19.730  0.00  0.00    +0.000 C 
BRANCH  11  12
ATOM     12  O   UNL     1       2.679   2.218  19.844  0.00  0.00    +0.000 OA
BRANCH  12  14
ATOM     13  C   UNL     1       0.598   2.597  18.812  0.00  0.00    +0.000 C 
ATOM     14  C   UNL     1       2.029   2.191  18.647  0.00  0.00    +0.000 C 
ATOM     15  O   UNL     1       2.541   1.872  17.581  0.00  0.00    +0.000 OA
ENDBRANCH  12  14
ENDBRANCH  11  12
ENDBRANCH   7  11
ENDBRANCH   1   9
BRANCH   4  16
ATOM     16  N   UNL     1       8.215   8.820  17.498  0.00  0.00    +0.000 NA
ATOM     17  N   UNL     1       8.737   9.367  18.490  0.00  0.00    +0.000 NA
BRANCH  17  18
ATOM     18  C   UNL     1       9.122  10.701  18.233  0.00  0.00    +0.000 A 
ATOM     19  C   UNL     1       8.128  11.583  17.790  0.00  0.00    +0.000 A 
ATOM     20  C   UNL     1       8.428  12.911  17.479  0.00  0.00    +0.000 A 
ATOM     21  C   UNL     1       9.732  13.379  17.617  0.00  0.00    +0.000 A 
ATOM     22  C   UNL     1      10.732  12.524  18.075  0.00  0.00    +0.000 A 
ATOM     23  C   UNL     1      10.427  11.195  18.386  0.00  0.00    +0.000 A 
ENDBRANCH  17  18
ENDBRANCH   4  16
TORSDOF 6
ENDMDL
MODEL 3
REMARK VINA RESULT:      -7.3      1.057      1.847
REMARK  Name = 
REMARK  7 active torsions:
REMARK  status: ('A' for Active; 'I' for Inactive)
REMARK    1  A    between atoms: C_1  and  C_2
REMARK    2  A    between atoms: C_2  and  O_4
REMARK    3  A    between atoms: O_4  and  C_5
REMARK    4  A    between atoms: C_5  and  C_6
REMARK    5  A    between atoms: N_8  and  C_9
REMARK    6  A    between atoms: C_12  and  N_13
REMARK    7  A    between atoms: N_14  and  C_15
REMARK                            x       y       z     vdW  Elec       q    Type
REMARK                         _______ _______ _______ _____ _____    ______ ____
ROOT
ATOM      1  C   UNL     1       6.044   5.004  17.712  0.00  0.00    +0.000 A 
ATOM      2  C   UNL     1       5.772   6.076  16.861  0.00  0.00    +0.000 A 
ATOM      3  C   UNL     1       6.515   7.258  16.935  0.00  0.00    +0.000 A 
ATOM      4  C   UNL     1       7.540   7.407  17.868  0.00  0.00    +0.000 A 
ATOM      5  C   UNL     1       7.822   6.328  18.716  0.00  0.00    +0.000 A 
ATOM      6  C   UNL     1       7.071   5.142  18.654  0.00  0.00    +0.000 A 
ENDROOT
BRANCH   1   9
ATOM      7  C   UNL     1       3.926   3.697  17.811  0.00  0.00    +0.000 C 
ATOM      8  O   UNL     1       3.139   4.643  17.832  0.00  0.00    +0.000 OA
ATOM      9  N   UNL     1       5.306   3.796  17.679  0.00  0.00    +0.000 N 
ATOM     10  H   UNL     1       5.828   2.950  17.501  0.00  0.00    +0.000 HD
BRANCH   7  11
ATOM     11  C   UNL     1       3.399   2.264  17.895  0.00  0.00    +0.000 C 
BRANCH  11  12
ATOM     12  O   UNL     1       2.956   1.950  19.219  0.00  0.00    +0.000 OA
BRANCH  12  14
ATOM     13  C   UNL     1       1.478   2.816  20.833  0.00  0.00    +0.000 C 
ATOM     14  C   UNL     1       1.651   2.261  19.453  0.00  0.00    +0.000 C 
ATOM     15  O   UNL     1       0.739   2.104  18.650  0.00  0.00    +0.000 OA
ENDBRANCH  12  14
ENDBRANCH  11  12
ENDBRANCH   7  11
ENDBRANCH   1   9
BRANCH   4  16
ATOM     16  N   UNL     1       8.225   8.637  17.884  0.00  0.00    +0.000 NA
ATOM     17  N   UNL     1       8.765   8.872  18.984  0.00  0.00    +0.000 NA
BRANCH  17  18
ATOM     18  C   UNL     1       9.247  10.196  19.080  0.00  0.00    +0.000 A 
ATOM     19  C   UNL     1       9.513  10.872  17.882  0.00  0.00    +0.000 A 
ATOM     20  C   UNL     1      10.025  12.171  17.884  0.00  0.00    +0.000 A 
ATOM     21  C   UNL     1      10.269  12.819  19.092  0.00  0.00    +0.000 A 
ATOM     22  C   UNL     1       9.994  12.173  20.295  0.00  0.00    +0.000 A 
ATOM     23  C   UNL     1       9.480  10.872  20.288  0.00  0.00    +0.000 A 
ENDBRANCH  17  18
ENDBRANCH   4  16
TORSDOF 6
ENDMDL
MODEL 4
REMARK VINA RESULT:      -7.3      1.002      1.507
REMARK  Name = 
REMARK  7 active torsions:
REMARK  status: ('A' for Active; 'I' for Inactive)
REMARK    1  A    between atoms: C_1  and  C_2
REMARK    2  A    between atoms: C_2  and  O_4
REMARK    3  A    between atoms: O_4  and  C_5
REMARK    4  A    between atoms: C_5  and  C_6
REMARK    5  A    between atoms: N_8  and  C_9
REMARK    6  A    between atoms: C_12  and  N_13
REMARK    7  A    between atoms: N_14  and  C_15
REMARK                            x       y       z     vdW  Elec       q    Type
REMARK                         _______ _______ _______ _____ _____    ______ ____
ROOT
ATOM      1  C   UNL     1       6.071   5.093  17.780  0.00  0.00    +0.000 A 
ATOM      2  C   UNL     1       5.735   6.172  16.963  0.00  0.00    +0.000 A 
ATOM      3  C   UNL     1       6.452   7.371  17.024  0.00  0.00    +0.000 A 
ATOM      4  C   UNL     1       7.514   7.529  17.911  0.00  0.00    +0.000 A 
ATOM      5  C   UNL     1       7.861   6.443  18.727  0.00  0.00    +0.000 A 
ATOM      6  C   UNL     1       7.137   5.240  18.677  0.00  0.00    +0.000 A 
ENDROOT
BRANCH   1   9
ATOM      7  C   UNL     1       3.977   3.744  17.771  0.00  0.00    +0.000 C 
ATOM      8  O   UNL     1       3.174   4.671  17.659  0.00  0.00    +0.000 OA
ATOM      9  N   UNL     1       5.362   3.868  17.759  0.00  0.00    +0.000 N 
ATOM     10  H   UNL     1       5.913   3.025  17.685  0.00  0.00    +0.000 HD
BRANCH   7  11
ATOM     11  C   UNL     1       3.470   2.307  17.900  0.00  0.00    +0.000 C 
BRANCH  11  12
ATOM     12  O   UNL     1       2.917   2.066  19.198  0.00  0.00    +0.000 OA
BRANCH  12  14
ATOM     13  C   UNL     1       1.248   2.857  20.655  0.00  0.00    +0.000 C 
ATOM     14  C   UNL     1       1.587   2.341  19.292  0.00  0.00    +0.000 C 
ATOM     15  O   UNL     1       0.775   2.183  18.388  0.00  0.00    +0.000 OA
ENDBRANCH  12  14
ENDBRANCH  11  12
ENDBRANCH   7  11
ENDBRANCH   1   9
BRANCH   4  16
ATOM     16  N   UNL     1       8.171   8.776  17.919  0.00  0.00    +0.000 NA
ATOM     17  N   UNL     1       8.870   8.945  18.938  0.00  0.00    +0.000 NA
BRANCH  17  18
ATOM     18  C   UNL     1       9.335  10.272  19.062  0.00  0.00    +0.000 A 
ATOM     19  C   UNL     1       9.405  10.809  20.354  0.00  0.00    +0.000 A 
ATOM     20  C   UNL     1       9.820  12.126  20.567  0.00  0.00    +0.000 A 
ATOM     21  C   UNL     1      10.181  12.924  19.484  0.00  0.00    +0.000 A 
ATOM     22  C   UNL     1      10.137  12.403  18.193  0.00  0.00    +0.000 A 
ATOM     23  C   UNL     1       9.723  11.084  17.985  0.00  0.00    +0.000 A 
ENDBRANCH  17  18
ENDBRANCH   4  16
TORSDOF 6
ENDMDL
MODEL 5
REMARK VINA RESULT:      -7.3      0.225      1.455
REMARK  Name = 
REMARK  7 active torsions:
REMARK  status: ('A' for Active; 'I' for Inactive)
REMARK    1  A    between atoms: C_1  and  C_2
REMARK    2  A    between atoms: C_2  and  O_4
REMARK    3  A    between atoms: O_4  and  C_5
REMARK    4  A    between atoms: C_5  and  C_6
REMARK    5  A    between atoms: N_8  and  C_9
REMARK    6  A    between atoms: C_12  and  N_13
REMARK    7  A    between atoms: N_14  and  C_15
REMARK                            x       y       z     vdW  Elec       q    Type
REMARK                         _______ _______ _______ _____ _____    ______ ____
ROOT
ATOM      1  C   UNL     1       6.284   5.239  18.125  0.00  0.00    +0.000 A 
ATOM      2  C   UNL     1       5.850   6.296  17.325  0.00  0.00    +0.000 A 
ATOM      3  C   UNL     1       6.543   7.510  17.299  0.00  0.00    +0.000 A 
ATOM      4  C   UNL     1       7.681   7.705  18.080  0.00  0.00    +0.000 A 
ATOM      5  C   UNL     1       8.126   6.642  18.877  0.00  0.00    +0.000 A 
ATOM      6  C   UNL     1       7.426   5.424  18.915  0.00  0.00    +0.000 A 
ENDROOT
BRANCH   1   9
ATOM      7  C   UNL     1       4.572   3.700  19.073  0.00  0.00    +0.000 C 
ATOM      8  O   UNL     1       4.011   4.502  19.819  0.00  0.00    +0.000 OA
ATOM      9  N   UNL     1       5.603   4.000  18.191  0.00  0.00    +0.000 N 
ATOM     10  H   UNL     1       5.864   3.301  17.510  0.00  0.00    +0.000 HD
BRANCH   7  11
ATOM     11  C   UNL     1       4.114   2.240  19.041  0.00  0.00    +0.000 C 
BRANCH  11  12
ATOM     12  O   UNL     1       3.327   1.969  17.876  0.00  0.00    +0.000 OA
BRANCH  12  14
ATOM     13  C   UNL     1       1.248   2.076  18.973  0.00  0.00    +0.000 C 
ATOM     14  C   UNL     1       2.117   2.594  17.870  0.00  0.00    +0.000 C 
ATOM     15  O   UNL     1       1.780   3.457  17.069  0.00  0.00    +0.000 OA
ENDBRANCH  12  14
ENDBRANCH  11  12
ENDBRANCH   7  11
ENDBRANCH   1   9
BRANCH   4  16
ATOM     16  N   UNL     1       8.308   8.965  18.006  0.00  0.00    +0.000 NA
ATOM     17  N   UNL     1       9.047   9.193  18.985  0.00  0.00    +0.000 NA
BRANCH  17  18
ATOM     18  C   UNL     1       9.485  10.534  19.032  0.00  0.00    +0.000 A 
ATOM     19  C   UNL     1       9.836  11.138  17.818  0.00  0.00    +0.000 A 
ATOM     20  C   UNL     1      10.314  12.450  17.776  0.00  0.00    +0.000 A 
ATOM     21  C   UNL     1      10.439  13.181  18.954  0.00  0.00    +0.000 A 
ATOM     22  C   UNL     1      10.078  12.606  20.170  0.00  0.00    +0.000 A 
ATOM     23  C   UNL     1       9.599  11.293  20.207  0.00  0.00    +0.000 A 
ENDBRANCH  17  18
ENDBRANCH   4  16
TORSDOF 6
ENDMDL
MODEL 6
REMARK VINA RESULT:      -7.2      0.990      1.466
REMARK  Name = 
REMARK  7 active torsions:
REMARK  status: ('A' for Active; 'I' for Inactive)
REMARK    1  A    between atoms: C_1  and  C_2
REMARK    2  A    between atoms: C_2  and  O_4
REMARK    3  A    between atoms: O_4  and  C_5
REMARK    4  A    between atoms: C_5  and  C_6
REMARK    5  A    between atoms: N_8  and  C_9
REMARK    6  A    between atoms: C_12  and  N_13
REMARK    7  A    between atoms: N_14  and  C_15
REMARK                            x       y       z     vdW  Elec       q    Type
REMARK                         _______ _______ _______ _____ _____    ______ ____
ROOT
ATOM      1  C   UNL     1       6.200   5.157  17.898  0.00  0.00    +0.000 A 
ATOM      2  C   UNL     1       7.299   5.368  18.732  0.00  0.00    +0.000 A 
ATOM      3  C   UNL     1       7.992   6.581  18.715  0.00  0.00    +0.000 A 
ATOM      4  C   UNL     1       7.615   7.613  17.857  0.00  0.00    +0.000 A 
ATOM      5  C   UNL     1       6.506   7.409  17.026  0.00  0.00    +0.000 A 
ATOM      6  C   UNL     1       5.812   6.186  17.031  0.00  0.00    +0.000 A 
ENDROOT
BRANCH   1   9
ATOM      7  C   UNL     1       4.110   3.815  18.069  0.00  0.00    +0.000 C 
ATOM      8  O   UNL     1       3.310   4.748  18.148  0.00  0.00    +0.000 OA
ATOM      9  N   UNL     1       5.480   3.938  17.875  0.00  0.00    +0.000 N 
ATOM     10  H   UNL     1       6.006   3.104  17.654  0.00  0.00    +0.000 HD
BRANCH   7  11
ATOM     11  C   UNL     1       3.608   2.372  18.148  0.00  0.00    +0.000 C 
BRANCH  11  12
ATOM     12  O   UNL     1       3.075   2.077  19.443  0.00  0.00    +0.000 OA
BRANCH  12  14
ATOM     13  C   UNL     1       1.370   2.738  20.923  0.00  0.00    +0.000 C 
ATOM     14  C   UNL     1       1.732   2.278  19.546  0.00  0.00    +0.000 C 
ATOM     15  O   UNL     1       0.927   2.101  18.640  0.00  0.00    +0.000 OA
ENDBRANCH  12  14
ENDBRANCH  11  12
ENDBRANCH   7  11
ENDBRANCH   1   9
BRANCH   4  16
ATOM     16  N   UNL     1       8.380   8.796  17.893  0.00  0.00    +0.000 NA
ATOM     17  N   UNL     1       8.787   9.070  19.040  0.00  0.00    +0.000 NA
BRANCH  17  18
ATOM     18  C   UNL     1       9.345  10.364  19.122  0.00  0.00    +0.000 A 
ATOM     19  C   UNL     1       9.316  11.151  17.963  0.00  0.00    +0.000 A 
ATOM     20  C   UNL     1       9.878  12.430  17.944  0.00  0.00    +0.000 A 
ATOM     21  C   UNL     1      10.470  12.945  19.094  0.00  0.00    +0.000 A 
ATOM     22  C   UNL     1      10.493  12.187  20.263  0.00  0.00    +0.000 A 
ATOM     23  C   UNL     1       9.928  10.908  20.277  0.00  0.00    +0.000 A 
ENDBRANCH  17  18
ENDBRANCH   4  16
TORSDOF 6
ENDMDL
MODEL 7
REMARK VINA RESULT:      -7.2      1.084      1.207
REMARK  Name = 
REMARK  7 active torsions:
REMARK  status: ('A' for Active; 'I' for Inactive)
REMARK    1  A    between atoms: C_1  and  C_2
REMARK    2  A    between atoms: C_2  and  O_4
REMARK    3  A    between atoms: O_4  and  C_5
REMARK    4  A    between atoms: C_5  and  C_6
REMARK    5  A    between atoms: N_8  and  C_9
REMARK    6  A    between atoms: C_12  and  N_13
REMARK    7  A    between atoms: N_14  and  C_15
REMARK                            x       y       z     vdW  Elec       q    Type
REMARK                         _______ _______ _______ _____ _____    ______ ____
ROOT
ATOM      1  C   UNL     1       6.311   5.201  18.467  0.00  0.00    +0.000 A 
ATOM      2  C   UNL     1       7.488   5.622  19.087  0.00  0.00    +0.000 A 
ATOM      3  C   UNL     1       8.095   6.830  18.733  0.00  0.00    +0.000 A 
ATOM      4  C   UNL     1       7.551   7.645  17.741  0.00  0.00    +0.000 A 
ATOM      5  C   UNL     1       6.364   7.231  17.124  0.00  0.00    +0.000 A 
ATOM      6  C   UNL     1       5.755   6.011  17.469  0.00  0.00    +0.000 A 
ENDROOT
BRANCH   1   9
ATOM      7  C   UNL     1       4.399   3.859  19.329  0.00  0.00    +0.000 C 
ATOM      8  O   UNL     1       3.593   4.779  19.476  0.00  0.00    +0.000 OA
ATOM      9  N   UNL     1       5.673   3.979  18.787  0.00  0.00    +0.000 N 
ATOM     10  H   UNL     1       6.173   3.132  18.558  0.00  0.00    +0.000 HD
BRANCH   7  11
ATOM     11  C   UNL     1       4.009   2.434  19.723  0.00  0.00    +0.000 C 
BRANCH  11  12
ATOM     12  O   UNL     1       2.943   1.941  18.903  0.00  0.00    +0.000 OA
BRANCH  12  14
ATOM     13  C   UNL     1       1.735   2.369  20.877  0.00  0.00    +0.000 C 
ATOM     14  C   UNL     1       1.701   2.217  19.388  0.00  0.00    +0.000 C 
ATOM     15  O   UNL     1       0.690   2.320  18.704  0.00  0.00    +0.000 OA
ENDBRANCH  12  14
ENDBRANCH  11  12
ENDBRANCH   7  11
ENDBRANCH   1   9
BRANCH   4  16
ATOM     16  N   UNL     1       8.238   8.836  17.435  0.00  0.00    +0.000 NA
ATOM     17  N   UNL     1       8.689   9.406  18.449  0.00  0.00    +0.000 NA
BRANCH  17  18
ATOM     18  C   UNL     1       9.165  10.706  18.175  0.00  0.00    +0.000 A 
ATOM     19  C   UNL     1      10.535  10.939  18.353  0.00  0.00    +0.000 A 
ATOM     20  C   UNL     1      11.085  12.205  18.139  0.00  0.00    +0.000 A 
ATOM     21  C   UNL     1      10.270  13.257  17.732  0.00  0.00    +0.000 A 
ATOM     22  C   UNL     1       8.908  13.042  17.530  0.00  0.00    +0.000 A 
ATOM     23  C   UNL     1       8.361  11.773  17.744  0.00  0.00    +0.000 A 
ENDBRANCH  17  18
ENDBRANCH   4  16
TORSDOF 6
ENDMDL
MODEL 8
REMARK VINA RESULT:      -7.2      0.797      1.329
REMARK  Name = 
REMARK  7 active torsions:
REMARK  status: ('A' for Active; 'I' for Inactive)
REMARK    1  A    between atoms: C_1  and  C_2
REMARK    2  A    between atoms: C_2  and  O_4
REMARK    3  A    between atoms: O_4  and  C_5
REMARK    4  A    between atoms: C_5  and  C_6
REMARK    5  A    between atoms: N_8  and  C_9
REMARK    6  A    between atoms: C_12  and  N_13
REMARK    7  A    between atoms: N_14  and  C_15
REMARK                            x       y       z     vdW  Elec       q    Type
REMARK                         _______ _______ _______ _____ _____    ______ ____
ROOT
ATOM      1  C   UNL     1       6.126   5.241  17.909  0.00  0.00    +0.000 A 
ATOM      2  C   UNL     1       7.273   5.405  18.687  0.00  0.00    +0.000 A 
ATOM      3  C   UNL     1       7.986   6.607  18.672  0.00  0.00    +0.000 A 
ATOM      4  C   UNL     1       7.581   7.674  17.871  0.00  0.00    +0.000 A 
ATOM      5  C   UNL     1       6.424   7.517  17.097  0.00  0.00    +0.000 A 
ATOM      6  C   UNL     1       5.709   6.306  17.101  0.00  0.00    +0.000 A 
ENDROOT
BRANCH   1   9
ATOM      7  C   UNL     1       4.510   3.615  18.880  0.00  0.00    +0.000 C 
ATOM      8  O   UNL     1       4.148   4.285  19.847  0.00  0.00    +0.000 OA
ATOM      9  N   UNL     1       5.384   4.036  17.885  0.00  0.00    +0.000 N 
ATOM     10  H   UNL     1       5.470   3.466  17.056  0.00  0.00    +0.000 HD
BRANCH   7  11
ATOM     11  C   UNL     1       3.955   2.203  18.680  0.00  0.00    +0.000 C 
BRANCH  11  12
ATOM     12  O   UNL     1       2.901   2.192  17.712  0.00  0.00    +0.000 OA
BRANCH  12  14
ATOM     13  C   UNL     1       1.445   4.039  17.635  0.00  0.00    +0.000 C 
ATOM     14  C   UNL     1       1.715   2.671  18.180  0.00  0.00    +0.000 C 
ATOM     15  O   UNL     1       0.972   2.071  18.948  0.00  0.00    +0.000 OA
ENDBRANCH  12  14
ENDBRANCH  11  12
ENDBRANCH   7  11
ENDBRANCH   1   9
BRANCH   4  16
ATOM     16  N   UNL     1       8.367   8.843  17.904  0.00  0.00    +0.000 NA
ATOM     17  N   UNL     1       8.835   9.076  19.037  0.00  0.00    +0.000 NA
BRANCH  17  18
ATOM     18  C   UNL     1       9.420  10.357  19.129  0.00  0.00    +0.000 A 
ATOM     19  C   UNL     1       9.693  11.026  17.929  0.00  0.00    +0.000 A 
ATOM     20  C   UNL     1      10.304  12.282  17.926  0.00  0.00    +0.000 A 
ATOM     21  C   UNL     1      10.641  12.894  19.131  0.00  0.00    +0.000 A 
ATOM     22  C   UNL     1      10.360  12.254  20.336  0.00  0.00    +0.000 A 
ATOM     23  C   UNL     1       9.748  10.997  20.335  0.00  0.00    +0.000 A 
ENDBRANCH  17  18
ENDBRANCH   4  16
TORSDOF 6
ENDMDL
MODEL 9
REMARK VINA RESULT:      -7.0      1.190      1.808
REMARK  Name = 
REMARK  7 active torsions:
REMARK  status: ('A' for Active; 'I' for Inactive)
REMARK    1  A    between atoms: C_1  and  C_2
REMARK    2  A    between atoms: C_2  and  O_4
REMARK    3  A    between atoms: O_4  and  C_5
REMARK    4  A    between atoms: C_5  and  C_6
REMARK    5  A    between atoms: N_8  and  C_9
REMARK    6  A    between atoms: C_12  and  N_13
REMARK    7  A    between atoms: N_14  and  C_15
REMARK                            x       y       z     vdW  Elec       q    Type
REMARK                         _______ _______ _______ _____ _____    ______ ____
ROOT
ATOM      1  C   UNL     1       5.996   4.917  18.224  0.00  0.00    +0.000 A 
ATOM      2  C   UNL     1       7.212   5.269  18.810  0.00  0.00    +0.000 A 
ATOM      3  C   UNL     1       7.801   6.511  18.556  0.00  0.00    +0.000 A 
ATOM      4  C   UNL     1       7.199   7.430  17.699  0.00  0.00    +0.000 A 
ATOM      5  C   UNL     1       5.972   7.085  17.117  0.00  0.00    +0.000 A 
ATOM      6  C   UNL     1       5.381   5.833  17.361  0.00  0.00    +0.000 A 
ENDROOT
BRANCH   1   9
ATOM      7  C   UNL     1       4.203   3.234  17.832  0.00  0.00    +0.000 C 
ATOM      8  O   UNL     1       3.621   3.811  16.913  0.00  0.00    +0.000 OA
ATOM      9  N   UNL     1       5.374   3.665  18.445  0.00  0.00    +0.000 N 
ATOM     10  H   UNL     1       5.850   3.024  19.064  0.00  0.00    +0.000 HD
BRANCH   7  11
ATOM     11  C   UNL     1       3.662   1.905  18.362  0.00  0.00    +0.000 C 
BRANCH  11  12
ATOM     12  O   UNL     1       2.372   2.071  18.960  0.00  0.00    +0.000 OA
BRANCH  12  14
ATOM     13  C   UNL     1       1.089   3.240  20.549  0.00  0.00    +0.000 C 
ATOM     14  C   UNL     1       2.407   2.618  20.206  0.00  0.00    +0.000 C 
ATOM     15  O   UNL     1       3.383   2.610  20.946  0.00  0.00    +0.000 OA
ENDBRANCH  12  14
ENDBRANCH  11  12
ENDBRANCH   7  11
ENDBRANCH   1   9
BRANCH   4  16
ATOM     16  N   UNL     1       7.870   8.651  17.485  0.00  0.00    +0.000 NA
ATOM     17  N   UNL     1       8.518   9.024  18.483  0.00  0.00    +0.000 NA
BRANCH  17  18
ATOM     18  C   UNL     1       8.993  10.347  18.358  0.00  0.00    +0.000 A 
ATOM     19  C   UNL     1       8.184  11.257  17.664  0.00  0.00    +0.000 A 
ATOM     20  C   UNL     1       8.591  12.577  17.462  0.00  0.00    +0.000 A 
ATOM     21  C   UNL     1       9.817  13.010  17.962  0.00  0.00    +0.000 A 
ATOM     22  C   UNL     1      10.628  12.127  18.671  0.00  0.00    +0.000 A 
ATOM     23  C   UNL     1      10.215  10.807  18.872  0.00  0.00    +0.000 A 
ENDBRANCH  17  18
ENDBRANCH   4  16
TORSDOF 6
ENDMDL
