MODEL 1
REMARK VINA RESULT:      -8.4      0.000      0.000
REMARK  Name = 
REMARK  2 active torsions:
REMARK  status: ('A' for Active; 'I' for Inactive)
REMARK    1  A    between atoms: C_10  and  N_11
REMARK    2  A    between atoms: C_12  and  C_14
REMARK                            x       y       z     vdW  Elec       q    Type
REMARK                         _______ _______ _______ _____ _____    ______ ____
ROOT
ATOM      1  N   UNL     1       1.184  13.056  17.958  0.00  0.00    +0.000 N 
ATOM      2  C   UNL     1       0.080  12.594  18.585  0.00  0.00    +0.000 C 
ATOM      3  N   UNL     1      -0.188  12.927  19.797  0.00  0.00    +0.000 NA
ATOM      4  C   UNL     1      -1.192  12.122  20.512  0.00  0.00    +0.000 C 
ATOM      5  C   UNL     1      -2.318  11.775  19.518  0.00  0.00    +0.000 C 
ATOM      6  C   UNL     1      -1.758  11.035  18.334  0.00  0.00    +0.000 C 
ATOM      7  O   UNL     1      -0.582  11.683  17.824  0.00  0.00    +0.000 OA
ATOM      8  C   UNL     1      -0.510  10.887  21.121  0.00  0.00    +0.000 A 
ATOM      9  C   UNL     1       0.398  10.107  20.375  0.00  0.00    +0.000 A 
ATOM     10  C   UNL     1       0.987   8.925  20.815  0.00  0.00    +0.000 A 
ATOM     11  C   UNL     1       0.675   8.506  22.103  0.00  0.00    +0.000 A 
ATOM     12  C   UNL     1      -0.168   9.299  22.910  0.00  0.00    +0.000 A 
ATOM     13  C   UNL     1      -0.750  10.487  22.424  0.00  0.00    +0.000 A 
ATOM     14  O   UNL     1      -1.542  11.196  23.299  0.00  0.00    +0.000 OA
ATOM     15  C   UNL     1      -2.013  12.422  22.895  0.00  0.00    +0.000 A 
ATOM     16  C   UNL     1      -2.736  13.161  23.825  0.00  0.00    +0.000 A 
ATOM     17  N   UNL     1      -3.330  14.354  23.567  0.00  0.00    +0.000 NA
ATOM     18  C   UNL     1      -3.158  14.834  22.323  0.00  0.00    +0.000 A 
ATOM     19 CL   UNL     1      -4.010  16.287  21.992  0.00  0.00    +0.000 Cl
ATOM     20  C   UNL     1      -2.426  14.203  21.332  0.00  0.00    +0.000 A 
ATOM     21  C   UNL     1      -1.852  12.951  21.610  0.00  0.00    +0.000 A 
ATOM     22  H   UNL     1       1.738  13.591  18.617  0.00  0.00    +0.000 HD
ATOM     23  H   UNL     1       1.739  12.258  17.645  0.00  0.00    +0.000 HD
ENDROOT
BRANCH  10  24
ATOM     24  N   UNL     1       1.833   8.168  19.961  0.00  0.00    +0.000 N 
ATOM     25  C   UNL     1       2.080   6.796  20.075  0.00  0.00    +0.000 C 
ATOM     26  O   UNL     1       1.481   6.002  20.806  0.00  0.00    +0.000 OA
ATOM     27  H   UNL     1       2.304   8.641  19.196  0.00  0.00    +0.000 HD
BRANCH  25  28
ATOM     28  C   UNL     1       3.160   6.237  19.197  0.00  0.00    +0.000 A 
ATOM     29  C   UNL     1       3.421   6.863  17.973  0.00  0.00    +0.000 A 
ATOM     30  C   UNL     1       4.443   6.368  17.162  0.00  0.00    +0.000 A 
ATOM     31  C   UNL     1       5.162   5.264  17.594  0.00  0.00    +0.000 A 
ATOM     32 CL   UNL     1       6.443   4.637  16.642  0.00  0.00    +0.000 Cl
ATOM     33  C   UNL     1       4.824   4.690  18.817  0.00  0.00    +0.000 A 
ATOM     34  N   UNL     1       3.837   5.145  19.641  0.00  0.00    +0.000 NA
ENDBRANCH  25  28
ENDBRANCH  10  24
TORSDOF 2
ENDMDL
MODEL 2
REMARK VINA RESULT:      -8.3      2.460      9.140
REMARK  Name = 
REMARK  2 active torsions:
REMARK  status: ('A' for Active; 'I' for Inactive)
REMARK    1  A    between atoms: C_10  and  N_11
REMARK    2  A    between atoms: C_12  and  C_14
REMARK                            x       y       z     vdW  Elec       q    Type
REMARK                         _______ _______ _______ _____ _____    ______ ____
ROOT
ATOM      1  N   UNL     1      -2.208  12.028  16.986  0.00  0.00    +0.000 N 
ATOM      2  C   UNL     1      -1.137  11.910  17.801  0.00  0.00    +0.000 C 
ATOM      3  N   UNL     1      -0.812  10.778  18.318  0.00  0.00    +0.000 NA
ATOM      4  C   UNL     1       0.130  10.798  19.449  0.00  0.00    +0.000 C 
ATOM      5  C   UNL     1       1.197  11.872  19.161  0.00  0.00    +0.000 C 
ATOM      6  C   UNL     1       0.545  13.213  18.962  0.00  0.00    +0.000 C 
ATOM      7  O   UNL     1      -0.578  13.119  18.071  0.00  0.00    +0.000 OA
ATOM      8  C   UNL     1      -0.649  11.041  20.752  0.00  0.00    +0.000 A 
ATOM      9  C   UNL     1      -1.641  12.040  20.838  0.00  0.00    +0.000 A 
ATOM     10  C   UNL     1      -2.326  12.389  21.999  0.00  0.00    +0.000 A 
ATOM     11  C   UNL     1      -2.025  11.671  23.150  0.00  0.00    +0.000 A 
ATOM     12  C   UNL     1      -1.096  10.611  23.087  0.00  0.00    +0.000 A 
ATOM     13  C   UNL     1      -0.418  10.293  21.893  0.00  0.00    +0.000 A 
ATOM     14  O   UNL     1       0.454   9.230  21.936  0.00  0.00    +0.000 OA
ATOM     15  C   UNL     1       1.027   8.816  20.758  0.00  0.00    +0.000 A 
ATOM     16  C   UNL     1       1.835   7.685  20.807  0.00  0.00    +0.000 A 
ATOM     17  N   UNL     1       2.529   7.187  19.753  0.00  0.00    +0.000 NA
ATOM     18  C   UNL     1       2.374   7.844  18.590  0.00  0.00    +0.000 A 
ATOM     19 CL   UNL     1       3.349   7.261  17.302  0.00  0.00    +0.000 Cl
ATOM     20  C   UNL     1       1.566   8.955  18.417  0.00  0.00    +0.000 A 
ATOM     21  C   UNL     1       0.886   9.475  19.531  0.00  0.00    +0.000 A 
ATOM     22  H   UNL     1      -2.695  11.140  16.951  0.00  0.00    +0.000 HD
ATOM     23  H   UNL     1      -2.840  12.727  17.378  0.00  0.00    +0.000 HD
ENDROOT
BRANCH  10  24
ATOM     24  N   UNL     1      -3.256  13.463  22.002  0.00  0.00    +0.000 N 
ATOM     25  C   UNL     1      -4.643  13.333  21.880  0.00  0.00    +0.000 C 
ATOM     26  O   UNL     1      -5.288  12.280  21.928  0.00  0.00    +0.000 OA
ATOM     27  H   UNL     1      -2.908  14.412  22.104  0.00  0.00    +0.000 HD
BRANCH  25  28
ATOM     28  C   UNL     1      -5.421  14.603  21.705  0.00  0.00    +0.000 A 
ATOM     29  C   UNL     1      -5.576  15.122  20.415  0.00  0.00    +0.000 A 
ATOM     30  C   UNL     1      -6.324  16.287  20.238  0.00  0.00    +0.000 A 
ATOM     31  C   UNL     1      -6.881  16.899  21.351  0.00  0.00    +0.000 A 
ATOM     32 CL   UNL     1      -7.827  18.318  21.178  0.00  0.00    +0.000 Cl
ATOM     33  C   UNL     1      -6.661  16.325  22.601  0.00  0.00    +0.000 A 
ATOM     34  N   UNL     1      -5.943  15.187  22.817  0.00  0.00    +0.000 NA
ENDBRANCH  25  28
ENDBRANCH  10  24
TORSDOF 2
ENDMDL
MODEL 3
REMARK VINA RESULT:      -8.2      1.796      2.126
REMARK  Name = 
REMARK  2 active torsions:
REMARK  status: ('A' for Active; 'I' for Inactive)
REMARK    1  A    between atoms: C_10  and  N_11
REMARK    2  A    between atoms: C_12  and  C_14
REMARK                            x       y       z     vdW  Elec       q    Type
REMARK                         _______ _______ _______ _____ _____    ______ ____
ROOT
ATOM      1  N   UNL     1       2.388  11.523  17.817  0.00  0.00    +0.000 N 
ATOM      2  C   UNL     1       1.138  11.610  18.322  0.00  0.00    +0.000 C 
ATOM      3  N   UNL     1       0.862  12.415  19.285  0.00  0.00    +0.000 NA
ATOM      4  C   UNL     1      -0.407  12.200  20.000  0.00  0.00    +0.000 C 
ATOM      5  C   UNL     1      -1.478  11.809  18.962  0.00  0.00    +0.000 C 
ATOM      6  C   UNL     1      -1.051  10.576  18.214  0.00  0.00    +0.000 C 
ATOM      7  O   UNL     1       0.312  10.681  17.773  0.00  0.00    +0.000 OA
ATOM      8  C   UNL     1      -0.198  11.141  21.095  0.00  0.00    +0.000 A 
ATOM      9  C   UNL     1       0.501   9.944  20.834  0.00  0.00    +0.000 A 
ATOM     10  C   UNL     1       0.656   8.895  21.736  0.00  0.00    +0.000 A 
ATOM     11  C   UNL     1       0.101   9.062  22.999  0.00  0.00    +0.000 A 
ATOM     12  C   UNL     1      -0.539  10.277  23.326  0.00  0.00    +0.000 A 
ATOM     13  C   UNL     1      -0.680  11.313  22.381  0.00  0.00    +0.000 A 
ATOM     14  O   UNL     1      -1.304  12.463  22.806  0.00  0.00    +0.000 OA
ATOM     15  C   UNL     1      -1.338  13.536  21.948  0.00  0.00    +0.000 A 
ATOM     16  C   UNL     1      -1.893  14.717  22.429  0.00  0.00    +0.000 A 
ATOM     17  N   UNL     1      -2.067  15.843  21.692  0.00  0.00    +0.000 NA
ATOM     18  C   UNL     1      -1.631  15.781  20.422  0.00  0.00    +0.000 A 
ATOM     19 CL   UNL     1      -1.964  17.179  19.482  0.00  0.00    +0.000 Cl
ATOM     20  C   UNL     1      -1.028  14.673  19.851  0.00  0.00    +0.000 A 
ATOM     21  C   UNL     1      -0.892  13.506  20.622  0.00  0.00    +0.000 A 
ATOM     22  H   UNL     1       3.008  12.105  18.369  0.00  0.00    +0.000 HD
ATOM     23  H   UNL     1       2.704  10.555  17.892  0.00  0.00    +0.000 HD
ENDROOT
BRANCH  10  24
ATOM     24  N   UNL     1       1.315   7.695  21.355  0.00  0.00    +0.000 N 
ATOM     25  C   UNL     1       1.880   7.446  20.100  0.00  0.00    +0.000 C 
ATOM     26  O   UNL     1       2.056   8.271  19.198  0.00  0.00    +0.000 OA
ATOM     27  H   UNL     1       1.396   6.945  22.034  0.00  0.00    +0.000 HD
BRANCH  25  28
ATOM     28  C   UNL     1       2.346   6.044  19.844  0.00  0.00    +0.000 A 
ATOM     29  C   UNL     1       1.795   5.005  20.601  0.00  0.00    +0.000 A 
ATOM     30  C   UNL     1       2.200   3.693  20.350  0.00  0.00    +0.000 A 
ATOM     31  C   UNL     1       3.145   3.464  19.362  0.00  0.00    +0.000 A 
ATOM     32 CL   UNL     1       3.654   1.867  19.002  0.00  0.00    +0.000 Cl
ATOM     33  C   UNL     1       3.657   4.559  18.669  0.00  0.00    +0.000 A 
ATOM     34  N   UNL     1       3.285   5.853  18.879  0.00  0.00    +0.000 NA
ENDBRANCH  25  28
ENDBRANCH  10  24
TORSDOF 2
ENDMDL
MODEL 4
REMARK VINA RESULT:      -8.2      1.163      1.294
REMARK  Name = 
REMARK  2 active torsions:
REMARK  status: ('A' for Active; 'I' for Inactive)
REMARK    1  A    between atoms: C_10  and  N_11
REMARK    2  A    between atoms: C_12  and  C_14
REMARK                            x       y       z     vdW  Elec       q    Type
REMARK                         _______ _______ _______ _____ _____    ______ ____
ROOT
ATOM      1  N   UNL     1       1.298  13.032  17.986  0.00  0.00    +0.000 N 
ATOM      2  C   UNL     1       0.164  12.633  18.603  0.00  0.00    +0.000 C 
ATOM      3  N   UNL     1      -0.136  13.049  19.782  0.00  0.00    +0.000 NA
ATOM      4  C   UNL     1      -1.180  12.311  20.512  0.00  0.00    +0.000 C 
ATOM      5  C   UNL     1      -2.281  11.924  19.505  0.00  0.00    +0.000 C 
ATOM      6  C   UNL     1      -1.699  11.098  18.390  0.00  0.00    +0.000 C 
ATOM      7  O   UNL     1      -0.493  11.688  17.880  0.00  0.00    +0.000 OA
ATOM      8  C   UNL     1      -0.545  11.104  21.221  0.00  0.00    +0.000 A 
ATOM      9  C   UNL     1       0.369  10.260  20.557  0.00  0.00    +0.000 A 
ATOM     10  C   UNL     1       0.917   9.097  21.091  0.00  0.00    +0.000 A 
ATOM     11  C   UNL     1       0.555   8.768  22.392  0.00  0.00    +0.000 A 
ATOM     12  C   UNL     1      -0.296   9.628  23.118  0.00  0.00    +0.000 A 
ATOM     13  C   UNL     1      -0.836  10.794  22.538  0.00  0.00    +0.000 A 
ATOM     14  O   UNL     1      -1.639  11.573  23.339  0.00  0.00    +0.000 OA
ATOM     15  C   UNL     1      -2.071  12.780  22.843  0.00  0.00    +0.000 A 
ATOM     16  C   UNL     1      -2.807  13.591  23.699  0.00  0.00    +0.000 A 
ATOM     17  N   UNL     1      -3.365  14.777  23.346  0.00  0.00    +0.000 NA
ATOM     18  C   UNL     1      -3.142  15.173  22.080  0.00  0.00    +0.000 A 
ATOM     19 CL   UNL     1      -3.952  16.618  21.629  0.00  0.00    +0.000 Cl
ATOM     20  C   UNL     1      -2.393  14.465  21.157  0.00  0.00    +0.000 A 
ATOM     21  C   UNL     1      -1.856  13.222  21.532  0.00  0.00    +0.000 A 
ATOM     22  H   UNL     1       1.842  13.597  18.628  0.00  0.00    +0.000 HD
ATOM     23  H   UNL     1       1.845  12.205  17.743  0.00  0.00    +0.000 HD
ENDROOT
BRANCH  10  24
ATOM     24  N   UNL     1       1.774   8.271  20.315  0.00  0.00    +0.000 N 
ATOM     25  C   UNL     1       1.850   8.270  18.919  0.00  0.00    +0.000 C 
ATOM     26  O   UNL     1       1.332   9.091  18.156  0.00  0.00    +0.000 OA
ATOM     27  H   UNL     1       2.392   7.622  20.793  0.00  0.00    +0.000 HD
BRANCH  25  28
ATOM     28  C   UNL     1       2.670   7.179  18.296  0.00  0.00    +0.000 A 
ATOM     29  C   UNL     1       2.229   5.858  18.414  0.00  0.00    +0.000 A 
ATOM     30  C   UNL     1       2.969   4.839  17.812  0.00  0.00    +0.000 A 
ATOM     31  C   UNL     1       4.125   5.171  17.122  0.00  0.00    +0.000 A 
ATOM     32 CL   UNL     1       5.052   3.956  16.346  0.00  0.00    +0.000 Cl
ATOM     33  C   UNL     1       4.502   6.511  17.070  0.00  0.00    +0.000 A 
ATOM     34  N   UNL     1       3.806   7.536  17.639  0.00  0.00    +0.000 NA
ENDBRANCH  25  28
ENDBRANCH  10  24
TORSDOF 2
ENDMDL
MODEL 5
REMARK VINA RESULT:      -8.1      2.227      9.232
REMARK  Name = 
REMARK  2 active torsions:
REMARK  status: ('A' for Active; 'I' for Inactive)
REMARK    1  A    between atoms: C_10  and  N_11
REMARK    2  A    between atoms: C_12  and  C_14
REMARK                            x       y       z     vdW  Elec       q    Type
REMARK                         _______ _______ _______ _____ _____    ______ ____
ROOT
ATOM      1  N   UNL     1      -1.921  12.251  17.192  0.00  0.00    +0.000 N 
ATOM      2  C   UNL     1      -0.856  12.018  17.989  0.00  0.00    +0.000 C 
ATOM      3  N   UNL     1      -0.572  10.832  18.396  0.00  0.00    +0.000 NA
ATOM      4  C   UNL     1       0.368  10.711  19.522  0.00  0.00    +0.000 C 
ATOM      5  C   UNL     1       1.473  11.770  19.334  0.00  0.00    +0.000 C 
ATOM      6  C   UNL     1       0.869  13.146  19.265  0.00  0.00    +0.000 C 
ATOM      7  O   UNL     1      -0.256  13.176  18.371  0.00  0.00    +0.000 OA
ATOM      8  C   UNL     1      -0.403  10.858  20.843  0.00  0.00    +0.000 A 
ATOM      9  C   UNL     1      -1.359  11.878  21.026  0.00  0.00    +0.000 A 
ATOM     10  C   UNL     1      -2.033  12.140  22.216  0.00  0.00    +0.000 A 
ATOM     11  C   UNL     1      -1.759  11.305  23.293  0.00  0.00    +0.000 A 
ATOM     12  C   UNL     1      -0.867  10.224  23.128  0.00  0.00    +0.000 A 
ATOM     13  C   UNL     1      -0.199   9.997  21.908  0.00  0.00    +0.000 A 
ATOM     14  O   UNL     1       0.635   8.905  21.848  0.00  0.00    +0.000 OA
ATOM     15  C   UNL     1       1.195   8.584  20.634  0.00  0.00    +0.000 A 
ATOM     16  C   UNL     1       1.963   7.427  20.575  0.00  0.00    +0.000 A 
ATOM     17  N   UNL     1       2.640   7.007  19.477  0.00  0.00    +0.000 NA
ATOM     18  C   UNL     1       2.510   7.776  18.382  0.00  0.00    +0.000 A 
ATOM     19 CL   UNL     1       3.464   7.284  17.043  0.00  0.00    +0.000 Cl
ATOM     20  C   UNL     1       1.741   8.926  18.317  0.00  0.00    +0.000 A 
ATOM     21  C   UNL     1       1.078   9.362  19.476  0.00  0.00    +0.000 A 
ATOM     22  H   UNL     1      -2.440  11.387  17.074  0.00  0.00    +0.000 HD
ATOM     23  H   UNL     1      -2.530  12.931  17.649  0.00  0.00    +0.000 HD
ENDROOT
BRANCH  10  24
ATOM     24  N   UNL     1      -2.925  13.240  22.323  0.00  0.00    +0.000 N 
ATOM     25  C   UNL     1      -2.894  14.212  23.328  0.00  0.00    +0.000 C 
ATOM     26  O   UNL     1      -1.999  14.374  24.164  0.00  0.00    +0.000 OA
ATOM     27  H   UNL     1      -3.651  13.351  21.622  0.00  0.00    +0.000 HD
BRANCH  25  28
ATOM     28  C   UNL     1      -4.048  15.169  23.369  0.00  0.00    +0.000 A 
ATOM     29  C   UNL     1      -4.199  15.991  24.490  0.00  0.00    +0.000 A 
ATOM     30  C   UNL     1      -5.253  16.906  24.524  0.00  0.00    +0.000 A 
ATOM     31  C   UNL     1      -6.123  16.962  23.446  0.00  0.00    +0.000 A 
ATOM     32 CL   UNL     1      -7.417  18.087  23.434  0.00  0.00    +0.000 Cl
ATOM     33  C   UNL     1      -5.911  16.093  22.378  0.00  0.00    +0.000 A 
ATOM     34  N   UNL     1      -4.893  15.190  22.303  0.00  0.00    +0.000 NA
ENDBRANCH  25  28
ENDBRANCH  10  24
TORSDOF 2
ENDMDL
MODEL 6
REMARK VINA RESULT:      -8.1      2.245      9.082
REMARK  Name = 
REMARK  2 active torsions:
REMARK  status: ('A' for Active; 'I' for Inactive)
REMARK    1  A    between atoms: C_10  and  N_11
REMARK    2  A    between atoms: C_12  and  C_14
REMARK                            x       y       z     vdW  Elec       q    Type
REMARK                         _______ _______ _______ _____ _____    ______ ____
ROOT
ATOM      1  N   UNL     1      -2.076  12.091  17.360  0.00  0.00    +0.000 N 
ATOM      2  C   UNL     1      -0.956  11.877  18.085  0.00  0.00    +0.000 C 
ATOM      3  N   UNL     1      -0.597  10.691  18.426  0.00  0.00    +0.000 NA
ATOM      4  C   UNL     1       0.414  10.572  19.490  0.00  0.00    +0.000 C 
ATOM      5  C   UNL     1       1.459  11.686  19.279  0.00  0.00    +0.000 C 
ATOM      6  C   UNL     1       0.794  13.034  19.300  0.00  0.00    +0.000 C 
ATOM      7  O   UNL     1      -0.384  13.046  18.476  0.00  0.00    +0.000 OA
ATOM      8  C   UNL     1      -0.282  10.634  20.859  0.00  0.00    +0.000 A 
ATOM      9  C   UNL     1      -1.268  11.603  21.138  0.00  0.00    +0.000 A 
ATOM     10  C   UNL     1      -1.879  11.790  22.374  0.00  0.00    +0.000 A 
ATOM     11  C   UNL     1      -1.505  10.929  23.399  0.00  0.00    +0.000 A 
ATOM     12  C   UNL     1      -0.579   9.897  23.141  0.00  0.00    +0.000 A 
ATOM     13  C   UNL     1       0.023   9.745  21.875  0.00  0.00    +0.000 A 
ATOM     14  O   UNL     1       0.898   8.695  21.723  0.00  0.00    +0.000 OA
ATOM     15  C   UNL     1       1.396   8.445  20.467  0.00  0.00    +0.000 A 
ATOM     16  C   UNL     1       2.208   7.326  20.317  0.00  0.00    +0.000 A 
ATOM     17  N   UNL     1       2.836   6.978  19.166  0.00  0.00    +0.000 NA
ATOM     18  C   UNL     1       2.607   7.780  18.111  0.00  0.00    +0.000 A 
ATOM     19 CL   UNL     1       3.499   7.381  16.700  0.00  0.00    +0.000 Cl
ATOM     20  C   UNL     1       1.787   8.895  18.137  0.00  0.00    +0.000 A 
ATOM     21  C   UNL     1       1.177   9.258  19.349  0.00  0.00    +0.000 A 
ATOM     22  H   UNL     1      -2.563  11.210  17.239  0.00  0.00    +0.000 HD
ATOM     23  H   UNL     1      -2.684  12.726  17.879  0.00  0.00    +0.000 HD
ENDROOT
BRANCH  10  24
ATOM     24  N   UNL     1      -2.810  12.844  22.577  0.00  0.00    +0.000 N 
ATOM     25  C   UNL     1      -3.941  12.779  23.397  0.00  0.00    +0.000 C 
ATOM     26  O   UNL     1      -4.213  11.881  24.200  0.00  0.00    +0.000 OA
ATOM     27  H   UNL     1      -2.659  13.728  22.100  0.00  0.00    +0.000 HD
BRANCH  25  28
ATOM     28  C   UNL     1      -4.896  13.932  23.311  0.00  0.00    +0.000 A 
ATOM     29  C   UNL     1      -6.024  13.808  22.493  0.00  0.00    +0.000 A 
ATOM     30  C   UNL     1      -6.935  14.864  22.429  0.00  0.00    +0.000 A 
ATOM     31  C   UNL     1      -6.685  16.007  23.173  0.00  0.00    +0.000 A 
ATOM     32 CL   UNL     1      -7.789  17.319  23.145  0.00  0.00    +0.000 Cl
ATOM     33  C   UNL     1      -5.528  16.054  23.947  0.00  0.00    +0.000 A 
ATOM     34  N   UNL     1      -4.616  15.044  24.041  0.00  0.00    +0.000 NA
ENDBRANCH  25  28
ENDBRANCH  10  24
TORSDOF 2
ENDMDL
MODEL 7
REMARK VINA RESULT:      -8.1      1.342      1.466
REMARK  Name = 
REMARK  2 active torsions:
REMARK  status: ('A' for Active; 'I' for Inactive)
REMARK    1  A    between atoms: C_10  and  N_11
REMARK    2  A    between atoms: C_12  and  C_14
REMARK                            x       y       z     vdW  Elec       q    Type
REMARK                         _______ _______ _______ _____ _____    ______ ____
ROOT
ATOM      1  N   UNL     1       0.645  13.323  18.017  0.00  0.00    +0.000 N 
ATOM      2  C   UNL     1      -0.486  12.932  18.645  0.00  0.00    +0.000 C 
ATOM      3  N   UNL     1      -0.825  13.430  19.781  0.00  0.00    +0.000 NA
ATOM      4  C   UNL     1      -1.856  12.714  20.551  0.00  0.00    +0.000 C 
ATOM      5  C   UNL     1      -2.920  12.204  19.560  0.00  0.00    +0.000 C 
ATOM      6  C   UNL     1      -2.285  11.313  18.527  0.00  0.00    +0.000 C 
ATOM      7  O   UNL     1      -1.092  11.907  17.991  0.00  0.00    +0.000 OA
ATOM      8  C   UNL     1      -1.190  11.594  21.367  0.00  0.00    +0.000 A 
ATOM      9  C   UNL     1      -0.232  10.735  20.790  0.00  0.00    +0.000 A 
ATOM     10  C   UNL     1       0.348   9.642  21.427  0.00  0.00    +0.000 A 
ATOM     11  C   UNL     1      -0.028   9.405  22.743  0.00  0.00    +0.000 A 
ATOM     12  C   UNL     1      -0.925  10.287  23.382  0.00  0.00    +0.000 A 
ATOM     13  C   UNL     1      -1.496  11.380  22.700  0.00  0.00    +0.000 A 
ATOM     14  O   UNL     1      -2.344  12.189  23.420  0.00  0.00    +0.000 OA
ATOM     15  C   UNL     1      -2.811  13.334  22.820  0.00  0.00    +0.000 A 
ATOM     16  C   UNL     1      -3.594  14.183  23.594  0.00  0.00    +0.000 A 
ATOM     17  N   UNL     1      -4.189  15.314  23.136  0.00  0.00    +0.000 NA
ATOM     18  C   UNL     1      -3.955  15.614  21.846  0.00  0.00    +0.000 A 
ATOM     19 CL   UNL     1      -4.809  16.986  21.265  0.00  0.00    +0.000 Cl
ATOM     20  C   UNL     1      -3.161  14.864  20.997  0.00  0.00    +0.000 A 
ATOM     21  C   UNL     1      -2.586  13.677  21.481  0.00  0.00    +0.000 A 
ATOM     22  H   UNL     1       1.154  13.960  18.620  0.00  0.00    +0.000 HD
ATOM     23  H   UNL     1       1.227  12.502  17.852  0.00  0.00    +0.000 HD
ENDROOT
BRANCH  10  24
ATOM     24  N   UNL     1       1.251   8.789  20.736  0.00  0.00    +0.000 N 
ATOM     25  C   UNL     1       1.514   8.831  19.363  0.00  0.00    +0.000 C 
ATOM     26  O   UNL     1       1.153   9.710  18.574  0.00  0.00    +0.000 OA
ATOM     27  H   UNL     1       1.759   8.085  21.263  0.00  0.00    +0.000 HD
BRANCH  25  28
ATOM     28  C   UNL     1       2.344   7.713  18.807  0.00  0.00    +0.000 A 
ATOM     29  C   UNL     1       3.148   7.965  17.690  0.00  0.00    +0.000 A 
ATOM     30  C   UNL     1       3.947   6.939  17.183  0.00  0.00    +0.000 A 
ATOM     31  C   UNL     1       3.910   5.698  17.800  0.00  0.00    +0.000 A 
ATOM     32 CL   UNL     1       4.893   4.415  17.228  0.00  0.00    +0.000 Cl
ATOM     33  C   UNL     1       3.068   5.528  18.896  0.00  0.00    +0.000 A 
ATOM     34  N   UNL     1       2.276   6.503  19.425  0.00  0.00    +0.000 NA
ENDBRANCH  25  28
ENDBRANCH  10  24
TORSDOF 2
ENDMDL
MODEL 8
REMARK VINA RESULT:      -8.0      1.612      1.704
REMARK  Name = 
REMARK  2 active torsions:
REMARK  status: ('A' for Active; 'I' for Inactive)
REMARK    1  A    between atoms: C_10  and  N_11
REMARK    2  A    between atoms: C_12  and  C_14
REMARK                            x       y       z     vdW  Elec       q    Type
REMARK                         _______ _______ _______ _____ _____    ______ ____
ROOT
ATOM      1  N   UNL     1       2.945  13.604  19.474  0.00  0.00    +0.000 N 
ATOM      2  C   UNL     1       1.620  13.445  19.683  0.00  0.00    +0.000 C 
ATOM      3  N   UNL     1       1.083  13.734  20.814  0.00  0.00    +0.000 NA
ATOM      4  C   UNL     1      -0.269  13.211  21.073  0.00  0.00    +0.000 C 
ATOM      5  C   UNL     1      -1.077  13.313  19.764  0.00  0.00    +0.000 C 
ATOM      6  C   UNL     1      -0.389  12.547  18.667  0.00  0.00    +0.000 C 
ATOM      7  O   UNL     1       1.015  12.850  18.621  0.00  0.00    +0.000 OA
ATOM      8  C   UNL     1      -0.161  11.777  21.617  0.00  0.00    +0.000 A 
ATOM      9  C   UNL     1       0.696  10.828  21.022  0.00  0.00    +0.000 A 
ATOM     10  C   UNL     1       0.786   9.489  21.389  0.00  0.00    +0.000 A 
ATOM     11  C   UNL     1      -0.012   9.070  22.447  0.00  0.00    +0.000 A 
ATOM     12  C   UNL     1      -0.826  10.006  23.121  0.00  0.00    +0.000 A 
ATOM     13  C   UNL     1      -0.894  11.354  22.712  0.00  0.00    +0.000 A 
ATOM     14  O   UNL     1      -1.703  12.187  23.448  0.00  0.00    +0.000 OA
ATOM     15  C   UNL     1      -1.686  13.530  23.155  0.00  0.00    +0.000 A 
ATOM     16  C   UNL     1      -2.443  14.367  23.968  0.00  0.00    +0.000 A 
ATOM     17  N   UNL     1      -2.591  15.701  23.773  0.00  0.00    +0.000 NA
ATOM     18  C   UNL     1      -1.918  16.217  22.729  0.00  0.00    +0.000 A 
ATOM     19 CL   UNL     1      -2.211  17.884  22.441  0.00  0.00    +0.000 Cl
ATOM     20  C   UNL     1      -1.105  15.485  21.881  0.00  0.00    +0.000 A 
ATOM     21  C   UNL     1      -0.997  14.099  22.078  0.00  0.00    +0.000 A 
ATOM     22  H   UNL     1       3.384  13.885  20.343  0.00  0.00    +0.000 HD
ATOM     23  H   UNL     1       3.340  12.708  19.188  0.00  0.00    +0.000 HD
ENDROOT
BRANCH  10  24
ATOM     24  N   UNL     1       1.627   8.591  20.678  0.00  0.00    +0.000 N 
ATOM     25  C   UNL     1       1.712   8.493  19.286  0.00  0.00    +0.000 C 
ATOM     26  O   UNL     1       1.218   9.271  18.464  0.00  0.00    +0.000 OA
ATOM     27  H   UNL     1       2.226   7.962  21.205  0.00  0.00    +0.000 HD
BRANCH  25  28
ATOM     28  C   UNL     1       2.509   7.343  18.745  0.00  0.00    +0.000 A 
ATOM     29  C   UNL     1       3.388   7.578  17.683  0.00  0.00    +0.000 A 
ATOM     30  C   UNL     1       4.157   6.522  17.191  0.00  0.00    +0.000 A 
ATOM     31  C   UNL     1       4.017   5.269  17.769  0.00  0.00    +0.000 A 
ATOM     32 CL   UNL     1       4.958   3.948  17.215  0.00  0.00    +0.000 Cl
ATOM     33  C   UNL     1       3.104   5.119  18.811  0.00  0.00    +0.000 A 
ATOM     34  N   UNL     1       2.339   6.124  19.323  0.00  0.00    +0.000 NA
ENDBRANCH  25  28
ENDBRANCH  10  24
TORSDOF 2
ENDMDL
MODEL 9
REMARK VINA RESULT:      -7.9      1.469      1.531
REMARK  Name = 
REMARK  2 active torsions:
REMARK  status: ('A' for Active; 'I' for Inactive)
REMARK    1  A    between atoms: C_10  and  N_11
REMARK    2  A    between atoms: C_12  and  C_14
REMARK                            x       y       z     vdW  Elec       q    Type
REMARK                         _______ _______ _______ _____ _____    ______ ____
ROOT
ATOM      1  N   UNL     1       2.897  13.605  18.583  0.00  0.00    +0.000 N 
ATOM      2  C   UNL     1       1.620  13.497  19.010  0.00  0.00    +0.000 C 
ATOM      3  N   UNL     1       1.304  13.727  20.235  0.00  0.00    +0.000 NA
ATOM      4  C   UNL     1      -0.014  13.254  20.692  0.00  0.00    +0.000 C 
ATOM      5  C   UNL     1      -1.026  13.493  19.554  0.00  0.00    +0.000 C 
ATOM      6  C   UNL     1      -0.585  12.777  18.307  0.00  0.00    +0.000 C 
ATOM      7  O   UNL     1       0.806  13.013  18.036  0.00  0.00    +0.000 OA
ATOM      8  C   UNL     1       0.097  11.780  21.116  0.00  0.00    +0.000 A 
ATOM      9  C   UNL     1       0.780  10.837  20.320  0.00  0.00    +0.000 A 
ATOM     10  C   UNL     1       0.848   9.471  20.579  0.00  0.00    +0.000 A 
ATOM     11  C   UNL     1       0.219   9.016  21.732  0.00  0.00    +0.000 A 
ATOM     12  C   UNL     1      -0.408   9.938  22.596  0.00  0.00    +0.000 A 
ATOM     13  C   UNL     1      -0.461  11.314  22.293  0.00  0.00    +0.000 A 
ATOM     14  O   UNL     1      -1.080  12.130  23.211  0.00  0.00    +0.000 OA
ATOM     15  C   UNL     1      -1.030  13.488  23.007  0.00  0.00    +0.000 A 
ATOM     16  C   UNL     1      -1.584  14.299  23.991  0.00  0.00    +0.000 A 
ATOM     17  N   UNL     1      -1.680  15.650  23.912  0.00  0.00    +0.000 NA
ATOM     18  C   UNL     1      -1.166  16.208  22.801  0.00  0.00    +0.000 A 
ATOM     19 CL   UNL     1      -1.401  17.904  22.676  0.00  0.00    +0.000 Cl
ATOM     20  C   UNL     1      -0.557  15.501  21.778  0.00  0.00    +0.000 A 
ATOM     21  C   UNL     1      -0.502  14.100  21.864  0.00  0.00    +0.000 A 
ATOM     22  H   UNL     1       3.495  13.799  19.378  0.00  0.00    +0.000 HD
ATOM     23  H   UNL     1       3.181  12.713  18.176  0.00  0.00    +0.000 HD
ENDROOT
BRANCH  10  24
ATOM     24  N   UNL     1       1.498   8.588  19.676  0.00  0.00    +0.000 N 
ATOM     25  C   UNL     1       1.893   7.279  19.968  0.00  0.00    +0.000 C 
ATOM     26  O   UNL     1       1.590   6.628  20.973  0.00  0.00    +0.000 OA
ATOM     27  H   UNL     1       1.700   8.912  18.735  0.00  0.00    +0.000 HD
BRANCH  25  28
ATOM     28  C   UNL     1       2.742   6.592  18.939  0.00  0.00    +0.000 A 
ATOM     29  C   UNL     1       3.416   7.374  17.996  0.00  0.00    +0.000 A 
ATOM     30  C   UNL     1       4.232   6.746  17.053  0.00  0.00    +0.000 A 
ATOM     31  C   UNL     1       4.341   5.364  17.078  0.00  0.00    +0.000 A 
ATOM     32 CL   UNL     1       5.351   4.553  15.956  0.00  0.00    +0.000 Cl
ATOM     33  C   UNL     1       3.620   4.661  18.041  0.00  0.00    +0.000 A 
ATOM     34  N   UNL     1       2.817   5.235  18.981  0.00  0.00    +0.000 NA
ENDBRANCH  25  28
ENDBRANCH  10  24
TORSDOF 2
ENDMDL
