MODEL 1
REMARK VINA RESULT:      -9.2      0.000      0.000
REMARK  Name = 
REMARK  9 active torsions:
REMARK  status: ('A' for Active; 'I' for Inactive)
REMARK    1  A    between atoms: C_1  and  O_2
REMARK    2  A    between atoms: O_2  and  C_3
REMARK    3  A    between atoms: C_7  and  C_8
REMARK    4  A    between atoms: C_10  and  C_11
REMARK    5  A    between atoms: N_13  and  C_14
REMARK    6  A    between atoms: C_18  and  C_19
REMARK    7  A    between atoms: C_20  and  O_21
REMARK    8  A    between atoms: C_29  and  O_30
REMARK    9  A    between atoms: O_30  and  C_31
REMARK                            x       y       z     vdW  Elec       q    Type
REMARK                         _______ _______ _______ _____ _____    ______ ____
ROOT
ATOM      1  C   UNL     1       1.406   8.415  20.022  0.00  0.00    +0.000 C 
ATOM      2  O   UNL     1       1.366   9.126  19.022  0.00  0.00    +0.000 OA
ATOM      3  N   UNL     1       1.008   8.837  21.277  0.00  0.00    +0.000 N 
ATOM      4  H   UNL     1       0.692   8.141  21.947  0.00  0.00    +0.000 HD
ENDROOT
BRANCH   3   5
ATOM      5  C   UNL     1       0.664  10.134  21.589  0.00  0.00    +0.000 A 
ATOM      6  C   UNL     1       0.948  11.245  20.895  0.00  0.00    +0.000 A 
ATOM      7  O   UNL     1       0.672  12.537  21.324  0.00  0.00    +0.000 OA
ATOM      8  C   UNL     1      -0.408  12.679  22.169  0.00  0.00    +0.000 A 
ATOM      9  C   UNL     1      -1.006  13.935  22.327  0.00  0.00    +0.000 A 
ATOM     10  C   UNL     1      -0.247  15.191  22.012  0.00  0.00    +0.000 C 
ATOM     11  C   UNL     1      -2.316  13.958  22.823  0.00  0.00    +0.000 A 
ATOM     12  C   UNL     1      -2.961  12.787  23.235  0.00  0.00    +0.000 A 
ATOM     13  C   UNL     1      -2.255  11.588  23.294  0.00  0.00    +0.000 A 
ATOM     14  C   UNL     1      -0.962  11.558  22.787  0.00  0.00    +0.000 A 
ATOM     15  C   UNL     1      -0.140  10.340  22.817  0.00  0.00    +0.000 A 
ATOM     16  O   UNL     1      -0.171   9.525  23.730  0.00  0.00    +0.000 OA
BRANCH  11  17
ATOM     17  O   UNL     1      -3.052  15.105  22.930  0.00  0.00    +0.000 OA
ATOM     18  H   UNL     1      -3.538  15.262  22.106  0.00  0.00    +0.000 HD
ENDBRANCH  11  17
ENDBRANCH   3   5
BRANCH   1  21
ATOM     19  C   UNL     1       3.532   5.500  18.795  0.00  0.00    +0.000 A 
ATOM     20  C   UNL     1       2.813   6.720  18.866  0.00  0.00    +0.000 A 
ATOM     21  C   UNL     1       1.897   7.012  19.896  0.00  0.00    +0.000 A 
ATOM     22  C   UNL     1       1.594   6.030  20.817  0.00  0.00    +0.000 A 
ATOM     23  C   UNL     1       2.232   4.786  20.750  0.00  0.00    +0.000 A 
ATOM     24  C   UNL     1       3.201   4.518  19.767  0.00  0.00    +0.000 A 
BRANCH  19  29
ATOM     25  C   UNL     1       6.777   6.151  16.815  0.00  0.00    +0.000 A 
ATOM     26  C   UNL     1       6.621   5.271  15.749  0.00  0.00    +0.000 A 
ATOM     27  C   UNL     1       5.525   4.421  15.706  0.00  0.00    +0.000 A 
ATOM     28  C   UNL     1       4.559   4.469  16.710  0.00  0.00    +0.000 A 
ATOM     29  C   UNL     1       4.664   5.365  17.807  0.00  0.00    +0.000 A 
ATOM     30  C   UNL     1       5.839   6.145  17.857  0.00  0.00    +0.000 A 
BRANCH  25  32
ATOM     31  C   UNL     1       7.908   8.137  17.516  0.00  0.00    +0.000 C 
ATOM     32  O   UNL     1       7.868   6.969  16.707  0.00  0.00    +0.000 OA
ENDBRANCH  25  32
ENDBRANCH  19  29
BRANCH  24  33
ATOM     33  O   UNL     1       3.929   3.352  19.782  0.00  0.00    +0.000 OA
ATOM     34  C   UNL     1       3.301   2.178  19.285  0.00  0.00    +0.000 C 
ENDBRANCH  24  33
ENDBRANCH   1  21
TORSDOF 6
ENDMDL
MODEL 2
REMARK VINA RESULT:      -8.9      0.932      1.597
REMARK  Name = 
REMARK  9 active torsions:
REMARK  status: ('A' for Active; 'I' for Inactive)
REMARK    1  A    between atoms: C_1  and  O_2
REMARK    2  A    between atoms: O_2  and  C_3
REMARK    3  A    between atoms: C_7  and  C_8
REMARK    4  A    between atoms: C_10  and  C_11
REMARK    5  A    between atoms: N_13  and  C_14
REMARK    6  A    between atoms: C_18  and  C_19
REMARK    7  A    between atoms: C_20  and  O_21
REMARK    8  A    between atoms: C_29  and  O_30
REMARK    9  A    between atoms: O_30  and  C_31
REMARK                            x       y       z     vdW  Elec       q    Type
REMARK                         _______ _______ _______ _____ _____    ______ ____
ROOT
ATOM      1  C   UNL     1       1.483   8.477  19.921  0.00  0.00    +0.000 C 
ATOM      2  O   UNL     1       1.374   9.189  18.928  0.00  0.00    +0.000 OA
ATOM      3  N   UNL     1       1.133   8.881  21.195  0.00  0.00    +0.000 N 
ATOM      4  H   UNL     1       0.870   8.174  21.876  0.00  0.00    +0.000 HD
ENDROOT
BRANCH   3   5
ATOM      5  C   UNL     1       0.765  10.166  21.530  0.00  0.00    +0.000 A 
ATOM      6  C   UNL     1       1.042  11.296  20.864  0.00  0.00    +0.000 A 
ATOM      7  O   UNL     1       0.740  12.575  21.316  0.00  0.00    +0.000 OA
ATOM      8  C   UNL     1      -0.353  12.682  22.150  0.00  0.00    +0.000 A 
ATOM      9  C   UNL     1      -0.971  13.926  22.326  0.00  0.00    +0.000 A 
ATOM     10  C   UNL     1      -0.227  15.199  22.048  0.00  0.00    +0.000 C 
ATOM     11  C   UNL     1      -2.288  13.918  22.806  0.00  0.00    +0.000 A 
ATOM     12  C   UNL     1      -2.921  12.730  23.184  0.00  0.00    +0.000 A 
ATOM     13  C   UNL     1      -2.197  11.541  23.227  0.00  0.00    +0.000 A 
ATOM     14  C   UNL     1      -0.897  11.540  22.737  0.00  0.00    +0.000 A 
ATOM     15  C   UNL     1      -0.057  10.334  22.752  0.00  0.00    +0.000 A 
ATOM     16  O   UNL     1      -0.088   9.499  23.647  0.00  0.00    +0.000 OA
BRANCH  11  17
ATOM     17  O   UNL     1      -3.042  15.052  22.927  0.00  0.00    +0.000 OA
ATOM     18  H   UNL     1      -2.554  15.812  22.574  0.00  0.00    +0.000 HD
ENDBRANCH  11  17
ENDBRANCH   3   5
BRANCH   1  21
ATOM     19  C   UNL     1       3.677   5.643  18.626  0.00  0.00    +0.000 A 
ATOM     20  C   UNL     1       2.927   6.842  18.725  0.00  0.00    +0.000 A 
ATOM     21  C   UNL     1       2.009   7.090  19.765  0.00  0.00    +0.000 A 
ATOM     22  C   UNL     1       1.735   6.082  20.666  0.00  0.00    +0.000 A 
ATOM     23  C   UNL     1       2.404   4.856  20.572  0.00  0.00    +0.000 A 
ATOM     24  C   UNL     1       3.376   4.633  19.579  0.00  0.00    +0.000 A 
BRANCH  19  29
ATOM     25  C   UNL     1       5.969   4.445  15.765  0.00  0.00    +0.000 A 
ATOM     26  C   UNL     1       7.094   5.235  15.975  0.00  0.00    +0.000 A 
ATOM     27  C   UNL     1       7.089   6.198  16.975  0.00  0.00    +0.000 A 
ATOM     28  C   UNL     1       5.972   6.353  17.795  0.00  0.00    +0.000 A 
ATOM     29  C   UNL     1       4.808   5.556  17.632  0.00  0.00    +0.000 A 
ATOM     30  C   UNL     1       4.823   4.654  16.546  0.00  0.00    +0.000 A 
BRANCH  25  32
ATOM     31  C   UNL     1       6.299   3.948  13.450  0.00  0.00    +0.000 C 
ATOM     32  O   UNL     1       6.125   3.501  14.788  0.00  0.00    +0.000 OA
ENDBRANCH  25  32
ENDBRANCH  19  29
BRANCH  24  33
ATOM     33  O   UNL     1       4.133   3.486  19.568  0.00  0.00    +0.000 OA
ATOM     34  C   UNL     1       3.760   2.441  20.456  0.00  0.00    +0.000 C 
ENDBRANCH  24  33
ENDBRANCH   1  21
TORSDOF 6
ENDMDL
MODEL 3
REMARK VINA RESULT:      -8.8      1.833      2.626
REMARK  Name = 
REMARK  9 active torsions:
REMARK  status: ('A' for Active; 'I' for Inactive)
REMARK    1  A    between atoms: C_1  and  O_2
REMARK    2  A    between atoms: O_2  and  C_3
REMARK    3  A    between atoms: C_7  and  C_8
REMARK    4  A    between atoms: C_10  and  C_11
REMARK    5  A    between atoms: N_13  and  C_14
REMARK    6  A    between atoms: C_18  and  C_19
REMARK    7  A    between atoms: C_20  and  O_21
REMARK    8  A    between atoms: C_29  and  O_30
REMARK    9  A    between atoms: O_30  and  C_31
REMARK                            x       y       z     vdW  Elec       q    Type
REMARK                         _______ _______ _______ _____ _____    ______ ____
ROOT
ATOM      1  C   UNL     1       1.569   7.882  20.395  0.00  0.00    +0.000 C 
ATOM      2  O   UNL     1       1.456   8.191  21.577  0.00  0.00    +0.000 OA
ATOM      3  N   UNL     1       1.316   8.751  19.351  0.00  0.00    +0.000 N 
ATOM      4  H   UNL     1       1.785   8.594  18.462  0.00  0.00    +0.000 HD
ENDROOT
BRANCH   3   5
ATOM      5  C   UNL     1       0.769  10.007  19.498  0.00  0.00    +0.000 A 
ATOM      6  C   UNL     1      -0.342  10.341  20.169  0.00  0.00    +0.000 A 
ATOM      7  O   UNL     1      -0.906  11.611  20.184  0.00  0.00    +0.000 OA
ATOM      8  C   UNL     1      -0.034  12.664  20.006  0.00  0.00    +0.000 A 
ATOM      9  C   UNL     1      -0.414  13.953  20.399  0.00  0.00    +0.000 A 
ATOM     10  C   UNL     1      -1.862  14.315  20.546  0.00  0.00    +0.000 C 
ATOM     11  C   UNL     1       0.615  14.883  20.608  0.00  0.00    +0.000 A 
ATOM     12  C   UNL     1       1.951  14.566  20.341  0.00  0.00    +0.000 A 
ATOM     13  C   UNL     1       2.268  13.361  19.721  0.00  0.00    +0.000 A 
ATOM     14  C   UNL     1       1.255  12.430  19.528  0.00  0.00    +0.000 A 
ATOM     15  C   UNL     1       1.497  11.136  18.873  0.00  0.00    +0.000 A 
ATOM     16  O   UNL     1       2.287  10.982  17.950  0.00  0.00    +0.000 OA
BRANCH  11  17
ATOM     17  O   UNL     1       0.392  16.142  21.091  0.00  0.00    +0.000 OA
ATOM     18  H   UNL     1      -0.400  16.145  21.651  0.00  0.00    +0.000 HD
ENDBRANCH  11  17
ENDBRANCH   3   5
BRANCH   1  21
ATOM     19  C   UNL     1       3.587   5.132  18.697  0.00  0.00    +0.000 A 
ATOM     20  C   UNL     1       2.909   6.346  18.967  0.00  0.00    +0.000 A 
ATOM     21  C   UNL     1       2.014   6.502  20.044  0.00  0.00    +0.000 A 
ATOM     22  C   UNL     1       1.688   5.398  20.805  0.00  0.00    +0.000 A 
ATOM     23  C   UNL     1       2.284   4.161  20.536  0.00  0.00    +0.000 A 
ATOM     24  C   UNL     1       3.235   4.020  19.509  0.00  0.00    +0.000 A 
BRANCH  19  29
ATOM     25  C   UNL     1       6.769   6.059  16.724  0.00  0.00    +0.000 A 
ATOM     26  C   UNL     1       6.625   5.261  15.594  0.00  0.00    +0.000 A 
ATOM     27  C   UNL     1       5.560   4.376  15.500  0.00  0.00    +0.000 A 
ATOM     28  C   UNL     1       4.612   4.308  16.521  0.00  0.00    +0.000 A 
ATOM     29  C   UNL     1       4.705   5.117  17.683  0.00  0.00    +0.000 A 
ATOM     30  C   UNL     1       5.851   5.936  17.777  0.00  0.00    +0.000 A 
BRANCH  25  32
ATOM     31  C   UNL     1       7.814   8.054  17.526  0.00  0.00    +0.000 C 
ATOM     32  O   UNL     1       7.827   6.924  16.664  0.00  0.00    +0.000 OA
ENDBRANCH  25  32
ENDBRANCH  19  29
BRANCH  24  33
ATOM     33  O   UNL     1       3.924   2.845  19.331  0.00  0.00    +0.000 OA
ATOM     34  C   UNL     1       3.239   1.767  18.708  0.00  0.00    +0.000 C 
ENDBRANCH  24  33
ENDBRANCH   1  21
TORSDOF 6
ENDMDL
MODEL 4
REMARK VINA RESULT:      -8.8      1.497      2.353
REMARK  Name = 
REMARK  9 active torsions:
REMARK  status: ('A' for Active; 'I' for Inactive)
REMARK    1  A    between atoms: C_1  and  O_2
REMARK    2  A    between atoms: O_2  and  C_3
REMARK    3  A    between atoms: C_7  and  C_8
REMARK    4  A    between atoms: C_10  and  C_11
REMARK    5  A    between atoms: N_13  and  C_14
REMARK    6  A    between atoms: C_18  and  C_19
REMARK    7  A    between atoms: C_20  and  O_21
REMARK    8  A    between atoms: C_29  and  O_30
REMARK    9  A    between atoms: O_30  and  C_31
REMARK                            x       y       z     vdW  Elec       q    Type
REMARK                         _______ _______ _______ _____ _____    ______ ____
ROOT
ATOM      1  C   UNL     1       1.525   8.015  20.246  0.00  0.00    +0.000 C 
ATOM      2  O   UNL     1       2.080   8.910  19.616  0.00  0.00    +0.000 OA
ATOM      3  N   UNL     1       0.479   8.232  21.123  0.00  0.00    +0.000 N 
ATOM      4  H   UNL     1      -0.175   7.474  21.297  0.00  0.00    +0.000 HD
ENDROOT
BRANCH   3   5
ATOM      5  C   UNL     1       0.033   9.478  21.510  0.00  0.00    +0.000 A 
ATOM      6  C   UNL     1       0.075  10.016  22.736  0.00  0.00    +0.000 A 
ATOM      7  O   UNL     1      -0.497  11.233  23.085  0.00  0.00    +0.000 OA
ATOM      8  C   UNL     1      -0.596  12.169  22.077  0.00  0.00    +0.000 A 
ATOM      9  C   UNL     1      -0.770  13.520  22.400  0.00  0.00    +0.000 A 
ATOM     10  C   UNL     1      -1.329  13.926  23.732  0.00  0.00    +0.000 C 
ATOM     11  C   UNL     1      -0.434  14.457  21.413  0.00  0.00    +0.000 A 
ATOM     12  C   UNL     1      -0.038  14.059  20.132  0.00  0.00    +0.000 A 
ATOM     13  C   UNL     1      -0.111  12.717  19.769  0.00  0.00    +0.000 A 
ATOM     14  C   UNL     1      -0.426  11.783  20.748  0.00  0.00    +0.000 A 
ATOM     15  C   UNL     1      -0.534  10.347  20.453  0.00  0.00    +0.000 A 
ATOM     16  O   UNL     1      -0.976   9.904  19.400  0.00  0.00    +0.000 OA
BRANCH  11  17
ATOM     17  O   UNL     1      -0.457  15.807  21.629  0.00  0.00    +0.000 OA
ATOM     18  H   UNL     1      -1.077  16.229  21.014  0.00  0.00    +0.000 HD
ENDBRANCH  11  17
ENDBRANCH   3   5
BRANCH   1  21
ATOM     19  C   UNL     1       3.697   5.121  19.052  0.00  0.00    +0.000 A 
ATOM     20  C   UNL     1       3.016   6.361  19.137  0.00  0.00    +0.000 A 
ATOM     21  C   UNL     1       1.982   6.607  20.061  0.00  0.00    +0.000 A 
ATOM     22  C   UNL     1       1.526   5.567  20.845  0.00  0.00    +0.000 A 
ATOM     23  C   UNL     1       2.125   4.305  20.752  0.00  0.00    +0.000 A 
ATOM     24  C   UNL     1       3.207   4.077  19.883  0.00  0.00    +0.000 A 
BRANCH  19  29
ATOM     25  C   UNL     1       6.136   4.283  16.184  0.00  0.00    +0.000 A 
ATOM     26  C   UNL     1       7.359   4.560  16.784  0.00  0.00    +0.000 A 
ATOM     27  C   UNL     1       7.400   5.086  18.068  0.00  0.00    +0.000 A 
ATOM     28  C   UNL     1       6.217   5.304  18.775  0.00  0.00    +0.000 A 
ATOM     29  C   UNL     1       4.946   5.017  18.212  0.00  0.00    +0.000 A 
ATOM     30  C   UNL     1       4.949   4.570  16.873  0.00  0.00    +0.000 A 
BRANCH  25  32
ATOM     31  C   UNL     1       6.804   4.500  13.899  0.00  0.00    +0.000 C 
ATOM     32  O   UNL     1       6.239   3.718  14.943  0.00  0.00    +0.000 OA
ENDBRANCH  25  32
ENDBRANCH  19  29
BRANCH  24  33
ATOM     33  O   UNL     1       3.887   2.882  19.889  0.00  0.00    +0.000 OA
ATOM     34  C   UNL     1       3.437   1.864  19.006  0.00  0.00    +0.000 C 
ENDBRANCH  24  33
ENDBRANCH   1  21
TORSDOF 6
ENDMDL
MODEL 5
REMARK VINA RESULT:      -8.8      1.336      1.548
REMARK  Name = 
REMARK  9 active torsions:
REMARK  status: ('A' for Active; 'I' for Inactive)
REMARK    1  A    between atoms: C_1  and  O_2
REMARK    2  A    between atoms: O_2  and  C_3
REMARK    3  A    between atoms: C_7  and  C_8
REMARK    4  A    between atoms: C_10  and  C_11
REMARK    5  A    between atoms: N_13  and  C_14
REMARK    6  A    between atoms: C_18  and  C_19
REMARK    7  A    between atoms: C_20  and  O_21
REMARK    8  A    between atoms: C_29  and  O_30
REMARK    9  A    between atoms: O_30  and  C_31
REMARK                            x       y       z     vdW  Elec       q    Type
REMARK                         _______ _______ _______ _____ _____    ______ ____
ROOT
ATOM      1  C   UNL     1       1.237   6.929  20.530  0.00  0.00    +0.000 C 
ATOM      2  O   UNL     1       0.225   6.886  21.223  0.00  0.00    +0.000 OA
ATOM      3  N   UNL     1       1.801   8.104  20.071  0.00  0.00    +0.000 N 
ATOM      4  H   UNL     1       2.796   8.118  19.863  0.00  0.00    +0.000 HD
ENDROOT
BRANCH   3   5
ATOM      5  C   UNL     1       1.223   9.348  20.203  0.00  0.00    +0.000 A 
ATOM      6  C   UNL     1       0.745  10.135  19.229  0.00  0.00    +0.000 A 
ATOM      7  O   UNL     1       0.278  11.430  19.416  0.00  0.00    +0.000 OA
ATOM      8  C   UNL     1      -0.249  11.712  20.659  0.00  0.00    +0.000 A 
ATOM      9  C   UNL     1      -1.091  12.818  20.820  0.00  0.00    +0.000 A 
ATOM     10  C   UNL     1      -1.054  13.959  19.846  0.00  0.00    +0.000 C 
ATOM     11  C   UNL     1      -1.930  12.820  21.943  0.00  0.00    +0.000 A 
ATOM     12  C   UNL     1      -1.858  11.812  22.910  0.00  0.00    +0.000 A 
ATOM     13  C   UNL     1      -0.845  10.859  22.846  0.00  0.00    +0.000 A 
ATOM     14  C   UNL     1      -0.023  10.843  21.726  0.00  0.00    +0.000 A 
ATOM     15  C   UNL     1       1.078   9.880  21.578  0.00  0.00    +0.000 A 
ATOM     16  O   UNL     1       1.762   9.486  22.514  0.00  0.00    +0.000 OA
BRANCH  11  17
ATOM     17  O   UNL     1      -2.871  13.785  22.167  0.00  0.00    +0.000 OA
ATOM     18  H   UNL     1      -2.569  14.385  22.866  0.00  0.00    +0.000 HD
ENDBRANCH  11  17
ENDBRANCH   3   5
BRANCH   1  21
ATOM     19  C   UNL     1       3.637   4.585  18.720  0.00  0.00    +0.000 A 
ATOM     20  C   UNL     1       2.754   5.650  19.027  0.00  0.00    +0.000 A 
ATOM     21  C   UNL     1       1.919   5.653  20.162  0.00  0.00    +0.000 A 
ATOM     22  C   UNL     1       1.867   4.525  20.954  0.00  0.00    +0.000 A 
ATOM     23  C   UNL     1       2.675   3.421  20.655  0.00  0.00    +0.000 A 
ATOM     24  C   UNL     1       3.563   3.445  19.565  0.00  0.00    +0.000 A 
BRANCH  19  29
ATOM     25  C   UNL     1       6.614   5.922  16.664  0.00  0.00    +0.000 A 
ATOM     26  C   UNL     1       6.398   5.294  15.443  0.00  0.00    +0.000 A 
ATOM     27  C   UNL     1       5.354   4.389  15.301  0.00  0.00    +0.000 A 
ATOM     28  C   UNL     1       4.498   4.134  16.371  0.00  0.00    +0.000 A 
ATOM     29  C   UNL     1       4.665   4.766  17.632  0.00  0.00    +0.000 A 
ATOM     30  C   UNL     1       5.792   5.607  17.756  0.00  0.00    +0.000 A 
BRANCH  25  32
ATOM     31  C   UNL     1       7.657   7.827  17.664  0.00  0.00    +0.000 C 
ATOM     32  O   UNL     1       7.638   6.828  16.652  0.00  0.00    +0.000 OA
ENDBRANCH  25  32
ENDBRANCH  19  29
BRANCH  24  33
ATOM     33  O   UNL     1       4.456   2.423  19.351  0.00  0.00    +0.000 OA
ATOM     34  C   UNL     1       3.974   1.251  18.707  0.00  0.00    +0.000 C 
ENDBRANCH  24  33
ENDBRANCH   1  21
TORSDOF 6
ENDMDL
MODEL 6
REMARK VINA RESULT:      -8.8      1.108      1.773
REMARK  Name = 
REMARK  9 active torsions:
REMARK  status: ('A' for Active; 'I' for Inactive)
REMARK    1  A    between atoms: C_1  and  O_2
REMARK    2  A    between atoms: O_2  and  C_3
REMARK    3  A    between atoms: C_7  and  C_8
REMARK    4  A    between atoms: C_10  and  C_11
REMARK    5  A    between atoms: N_13  and  C_14
REMARK    6  A    between atoms: C_18  and  C_19
REMARK    7  A    between atoms: C_20  and  O_21
REMARK    8  A    between atoms: C_29  and  O_30
REMARK    9  A    between atoms: O_30  and  C_31
REMARK                            x       y       z     vdW  Elec       q    Type
REMARK                         _______ _______ _______ _____ _____    ______ ____
ROOT
ATOM      1  C   UNL     1       1.462   8.156  20.220  0.00  0.00    +0.000 C 
ATOM      2  O   UNL     1       2.006   9.070  19.609  0.00  0.00    +0.000 OA
ATOM      3  N   UNL     1       0.418   8.342  21.106  0.00  0.00    +0.000 N 
ATOM      4  H   UNL     1      -0.228   7.574  21.266  0.00  0.00    +0.000 HD
ENDROOT
BRANCH   3   5
ATOM      5  C   UNL     1      -0.038   9.573  21.524  0.00  0.00    +0.000 A 
ATOM      6  C   UNL     1       0.007  10.085  22.762  0.00  0.00    +0.000 A 
ATOM      7  O   UNL     1      -0.576  11.288  23.142  0.00  0.00    +0.000 OA
ATOM      8  C   UNL     1      -0.691  12.245  22.155  0.00  0.00    +0.000 A 
ATOM      9  C   UNL     1      -0.877  13.587  22.509  0.00  0.00    +0.000 A 
ATOM     10  C   UNL     1      -1.431  13.956  23.854  0.00  0.00    +0.000 C 
ATOM     11  C   UNL     1      -0.558  14.549  21.541  0.00  0.00    +0.000 A 
ATOM     12  C   UNL     1      -0.167  14.183  20.249  0.00  0.00    +0.000 A 
ATOM     13  C   UNL     1      -0.228  12.849  19.856  0.00  0.00    +0.000 A 
ATOM     14  C   UNL     1      -0.527  11.890  20.817  0.00  0.00    +0.000 A 
ATOM     15  C   UNL     1      -0.622  10.460  20.490  0.00  0.00    +0.000 A 
ATOM     16  O   UNL     1      -1.066  10.036  19.431  0.00  0.00    +0.000 OA
BRANCH  11  17
ATOM     17  O   UNL     1      -0.594  15.893  21.788  0.00  0.00    +0.000 OA
ATOM     18  H   UNL     1      -0.157  16.372  21.067  0.00  0.00    +0.000 HD
ENDBRANCH  11  17
ENDBRANCH   3   5
BRANCH   1  21
ATOM     19  C   UNL     1       3.531   5.294  18.787  0.00  0.00    +0.000 A 
ATOM     20  C   UNL     1       2.830   6.516  18.943  0.00  0.00    +0.000 A 
ATOM     21  C   UNL     1       1.932   6.757  20.001  0.00  0.00    +0.000 A 
ATOM     22  C   UNL     1       1.625   5.724  20.863  0.00  0.00    +0.000 A 
ATOM     23  C   UNL     1       2.244   4.477  20.711  0.00  0.00    +0.000 A 
ATOM     24  C   UNL     1       3.197   4.258  19.700  0.00  0.00    +0.000 A 
BRANCH  19  29
ATOM     25  C   UNL     1       6.729   6.057  16.772  0.00  0.00    +0.000 A 
ATOM     26  C   UNL     1       6.574   5.200  15.688  0.00  0.00    +0.000 A 
ATOM     27  C   UNL     1       5.494   4.328  15.641  0.00  0.00    +0.000 A 
ATOM     28  C   UNL     1       4.543   4.334  16.662  0.00  0.00    +0.000 A 
ATOM     29  C   UNL     1       4.649   5.205  17.778  0.00  0.00    +0.000 A 
ATOM     30  C   UNL     1       5.809   6.008  17.828  0.00  0.00    +0.000 A 
BRANCH  25  32
ATOM     31  C   UNL     1       7.848   8.032  17.524  0.00  0.00    +0.000 C 
ATOM     32  O   UNL     1       7.802   6.899  16.666  0.00  0.00    +0.000 OA
ENDBRANCH  25  32
ENDBRANCH  19  29
BRANCH  24  33
ATOM     33  O   UNL     1       3.908   3.084  19.634  0.00  0.00    +0.000 OA
ATOM     34  C   UNL     1       3.263   1.954  19.062  0.00  0.00    +0.000 C 
ENDBRANCH  24  33
ENDBRANCH   1  21
TORSDOF 6
ENDMDL
MODEL 7
REMARK VINA RESULT:      -8.7      2.129      3.089
REMARK  Name = 
REMARK  9 active torsions:
REMARK  status: ('A' for Active; 'I' for Inactive)
REMARK    1  A    between atoms: C_1  and  O_2
REMARK    2  A    between atoms: O_2  and  C_3
REMARK    3  A    between atoms: C_7  and  C_8
REMARK    4  A    between atoms: C_10  and  C_11
REMARK    5  A    between atoms: N_13  and  C_14
REMARK    6  A    between atoms: C_18  and  C_19
REMARK    7  A    between atoms: C_20  and  O_21
REMARK    8  A    between atoms: C_29  and  O_30
REMARK    9  A    between atoms: O_30  and  C_31
REMARK                            x       y       z     vdW  Elec       q    Type
REMARK                         _______ _______ _______ _____ _____    ______ ____
ROOT
ATOM      1  C   UNL     1       1.576   8.029  20.468  0.00  0.00    +0.000 C 
ATOM      2  O   UNL     1       1.503   8.391  21.639  0.00  0.00    +0.000 OA
ATOM      3  N   UNL     1       1.320   8.859  19.394  0.00  0.00    +0.000 N 
ATOM      4  H   UNL     1       1.760   8.651  18.502  0.00  0.00    +0.000 HD
ENDROOT
BRANCH   3   5
ATOM      5  C   UNL     1       0.812  10.136  19.500  0.00  0.00    +0.000 A 
ATOM      6  C   UNL     1      -0.275  10.530  20.178  0.00  0.00    +0.000 A 
ATOM      7  O   UNL     1      -0.801  11.815  20.152  0.00  0.00    +0.000 OA
ATOM      8  C   UNL     1       0.098  12.834  19.914  0.00  0.00    +0.000 A 
ATOM      9  C   UNL     1      -0.237  14.149  20.261  0.00  0.00    +0.000 A 
ATOM     10  C   UNL     1      -1.671  14.559  20.421  0.00  0.00    +0.000 C 
ATOM     11  C   UNL     1       0.822  15.054  20.412  0.00  0.00    +0.000 A 
ATOM     12  C   UNL     1       2.143  14.688  20.132  0.00  0.00    +0.000 A 
ATOM     13  C   UNL     1       2.412  13.449  19.556  0.00  0.00    +0.000 A 
ATOM     14  C   UNL     1       1.369  12.542  19.421  0.00  0.00    +0.000 A 
ATOM     15  C   UNL     1       1.560  11.216  18.816  0.00  0.00    +0.000 A 
ATOM     16  O   UNL     1       2.326  11.002  17.885  0.00  0.00    +0.000 OA
BRANCH  11  17
ATOM     17  O   UNL     1       0.646  16.338  20.847  0.00  0.00    +0.000 OA
ATOM     18  H   UNL     1       0.155  16.847  20.184  0.00  0.00    +0.000 HD
ENDBRANCH  11  17
ENDBRANCH   3   5
BRANCH   1  21
ATOM     19  C   UNL     1       3.667   5.148  19.107  0.00  0.00    +0.000 A 
ATOM     20  C   UNL     1       3.045   6.410  19.280  0.00  0.00    +0.000 A 
ATOM     21  C   UNL     1       1.971   6.622  20.167  0.00  0.00    +0.000 A 
ATOM     22  C   UNL     1       1.418   5.537  20.816  0.00  0.00    +0.000 A 
ATOM     23  C   UNL     1       1.958   4.259  20.628  0.00  0.00    +0.000 A 
ATOM     24  C   UNL     1       3.077   4.057  19.800  0.00  0.00    +0.000 A 
BRANCH  19  29
ATOM     25  C   UNL     1       6.252   4.338  16.362  0.00  0.00    +0.000 A 
ATOM     26  C   UNL     1       7.441   4.626  17.022  0.00  0.00    +0.000 A 
ATOM     27  C   UNL     1       7.413   5.150  18.307  0.00  0.00    +0.000 A 
ATOM     28  C   UNL     1       6.195   5.356  18.955  0.00  0.00    +0.000 A 
ATOM     29  C   UNL     1       4.956   5.058  18.330  0.00  0.00    +0.000 A 
ATOM     30  C   UNL     1       5.029   4.613  16.992  0.00  0.00    +0.000 A 
BRANCH  25  32
ATOM     31  C   UNL     1       6.740   4.637  14.041  0.00  0.00    +0.000 C 
ATOM     32  O   UNL     1       6.421   3.777  15.127  0.00  0.00    +0.000 OA
ENDBRANCH  25  32
ENDBRANCH  19  29
BRANCH  24  33
ATOM     33  O   UNL     1       3.694   2.832  19.723  0.00  0.00    +0.000 OA
ATOM     34  C   UNL     1       3.180   1.893  18.788  0.00  0.00    +0.000 C 
ENDBRANCH  24  33
ENDBRANCH   1  21
TORSDOF 6
ENDMDL
MODEL 8
REMARK VINA RESULT:      -8.7      1.549      2.097
REMARK  Name = 
REMARK  9 active torsions:
REMARK  status: ('A' for Active; 'I' for Inactive)
REMARK    1  A    between atoms: C_1  and  O_2
REMARK    2  A    between atoms: O_2  and  C_3
REMARK    3  A    between atoms: C_7  and  C_8
REMARK    4  A    between atoms: C_10  and  C_11
REMARK    5  A    between atoms: N_13  and  C_14
REMARK    6  A    between atoms: C_18  and  C_19
REMARK    7  A    between atoms: C_20  and  O_21
REMARK    8  A    between atoms: C_29  and  O_30
REMARK    9  A    between atoms: O_30  and  C_31
REMARK                            x       y       z     vdW  Elec       q    Type
REMARK                         _______ _______ _______ _____ _____    ______ ____
ROOT
ATOM      1  C   UNL     1       1.119   7.045  20.631  0.00  0.00    +0.000 C 
ATOM      2  O   UNL     1       0.134   7.029  21.363  0.00  0.00    +0.000 OA
ATOM      3  N   UNL     1       1.689   8.205  20.141  0.00  0.00    +0.000 N 
ATOM      4  H   UNL     1       2.675   8.197  19.894  0.00  0.00    +0.000 HD
ENDROOT
BRANCH   3   5
ATOM      5  C   UNL     1       1.142   9.462  20.285  0.00  0.00    +0.000 A 
ATOM      6  C   UNL     1       0.691  10.273  19.319  0.00  0.00    +0.000 A 
ATOM      7  O   UNL     1       0.257  11.578  19.520  0.00  0.00    +0.000 OA
ATOM      8  C   UNL     1      -0.270  11.858  20.763  0.00  0.00    +0.000 A 
ATOM      9  C   UNL     1      -1.084  12.984  20.934  0.00  0.00    +0.000 A 
ATOM     10  C   UNL     1      -1.012  14.135  19.975  0.00  0.00    +0.000 C 
ATOM     11  C   UNL     1      -1.929  12.993  22.052  0.00  0.00    +0.000 A 
ATOM     12  C   UNL     1      -1.889  11.972  23.007  0.00  0.00    +0.000 A 
ATOM     13  C   UNL     1      -0.900  10.993  22.936  0.00  0.00    +0.000 A 
ATOM     14  C   UNL     1      -0.072  10.970  21.820  0.00  0.00    +0.000 A 
ATOM     15  C   UNL     1       1.003   9.980  21.667  0.00  0.00    +0.000 A 
ATOM     16  O   UNL     1       1.672   9.557  22.601  0.00  0.00    +0.000 OA
BRANCH  11  17
ATOM     17  O   UNL     1      -2.846  13.980  22.283  0.00  0.00    +0.000 OA
ATOM     18  H   UNL     1      -3.060  14.433  21.453  0.00  0.00    +0.000 HD
ENDBRANCH  11  17
ENDBRANCH   3   5
BRANCH   1  21
ATOM     19  C   UNL     1       3.725   4.673  19.180  0.00  0.00    +0.000 A 
ATOM     20  C   UNL     1       2.893   5.797  19.411  0.00  0.00    +0.000 A 
ATOM     21  C   UNL     1       1.759   5.753  20.247  0.00  0.00    +0.000 A 
ATOM     22  C   UNL     1       1.367   4.541  20.776  0.00  0.00    +0.000 A 
ATOM     23  C   UNL     1       2.121   3.389  20.523  0.00  0.00    +0.000 A 
ATOM     24  C   UNL     1       3.295   3.445  19.750  0.00  0.00    +0.000 A 
BRANCH  19  29
ATOM     25  C   UNL     1       6.538   4.521  16.546  0.00  0.00    +0.000 A 
ATOM     26  C   UNL     1       7.627   4.958  17.292  0.00  0.00    +0.000 A 
ATOM     27  C   UNL     1       7.447   5.373  18.605  0.00  0.00    +0.000 A 
ATOM     28  C   UNL     1       6.183   5.320  19.191  0.00  0.00    +0.000 A 
ATOM     29  C   UNL     1       5.046   4.862  18.475  0.00  0.00    +0.000 A 
ATOM     30  C   UNL     1       5.258   4.537  17.118  0.00  0.00    +0.000 A 
BRANCH  25  32
ATOM     31  C   UNL     1       5.870   4.192  14.273  0.00  0.00    +0.000 C 
ATOM     32  O   UNL     1       6.861   4.090  15.288  0.00  0.00    +0.000 OA
ENDBRANCH  25  32
ENDBRANCH  19  29
BRANCH  24  33
ATOM     33  O   UNL     1       4.113   2.348  19.616  0.00  0.00    +0.000 OA
ATOM     34  C   UNL     1       3.780   1.397  18.614  0.00  0.00    +0.000 C 
ENDBRANCH  24  33
ENDBRANCH   1  21
TORSDOF 6
ENDMDL
MODEL 9
REMARK VINA RESULT:      -8.7      2.058      4.116
REMARK  Name = 
REMARK  9 active torsions:
REMARK  status: ('A' for Active; 'I' for Inactive)
REMARK    1  A    between atoms: C_1  and  O_2
REMARK    2  A    between atoms: O_2  and  C_3
REMARK    3  A    between atoms: C_7  and  C_8
REMARK    4  A    between atoms: C_10  and  C_11
REMARK    5  A    between atoms: N_13  and  C_14
REMARK    6  A    between atoms: C_18  and  C_19
REMARK    7  A    between atoms: C_20  and  O_21
REMARK    8  A    between atoms: C_29  and  O_30
REMARK    9  A    between atoms: O_30  and  C_31
REMARK                            x       y       z     vdW  Elec       q    Type
REMARK                         _______ _______ _______ _____ _____    ______ ____
ROOT
ATOM      1  C   UNL     1       0.071   9.758  20.399  0.00  0.00    +0.000 C 
ATOM      2  O   UNL     1      -0.472   9.250  21.376  0.00  0.00    +0.000 OA
ATOM      3  N   UNL     1      -0.240  11.016  19.920  0.00  0.00    +0.000 N 
ATOM      4  H   UNL     1       0.468  11.527  19.399  0.00  0.00    +0.000 HD
ENDROOT
BRANCH   3   5
ATOM      5  C   UNL     1      -1.286  11.788  20.378  0.00  0.00    +0.000 A 
ATOM      6  C   UNL     1      -2.414  12.105  19.727  0.00  0.00    +0.000 A 
ATOM      7  O   UNL     1      -3.380  12.983  20.201  0.00  0.00    +0.000 OA
ATOM      8  C   UNL     1      -3.490  13.083  21.573  0.00  0.00    +0.000 A 
ATOM      9  C   UNL     1      -4.659  13.604  22.138  0.00  0.00    +0.000 A 
ATOM     10  C   UNL     1      -5.571  14.488  21.339  0.00  0.00    +0.000 C 
ATOM     11  C   UNL     1      -4.908  13.292  23.482  0.00  0.00    +0.000 A 
ATOM     12  C   UNL     1      -3.983  12.577  24.249  0.00  0.00    +0.000 A 
ATOM     13  C   UNL     1      -2.726  12.285  23.727  0.00  0.00    +0.000 A 
ATOM     14  C   UNL     1      -2.481  12.576  22.391  0.00  0.00    +0.000 A 
ATOM     15  C   UNL     1      -1.180  12.312  21.760  0.00  0.00    +0.000 A 
ATOM     16  O   UNL     1      -0.109  12.432  22.340  0.00  0.00    +0.000 OA
BRANCH  11  17
ATOM     17  O   UNL     1      -6.059  13.649  24.128  0.00  0.00    +0.000 OA
ATOM     18  H   UNL     1      -6.611  14.190  23.542  0.00  0.00    +0.000 HD
ENDBRANCH  11  17
ENDBRANCH   3   5
BRANCH   1  21
ATOM     19  C   UNL     1       2.308   6.817  19.468  0.00  0.00    +0.000 A 
ATOM     20  C   UNL     1       1.500   7.732  20.188  0.00  0.00    +0.000 A 
ATOM     21  C   UNL     1       1.134   8.995  19.682  0.00  0.00    +0.000 A 
ATOM     22  C   UNL     1       1.674   9.416  18.485  0.00  0.00    +0.000 A 
ATOM     23  C   UNL     1       2.529   8.572  17.766  0.00  0.00    +0.000 A 
ATOM     24  C   UNL     1       2.836   7.281  18.233  0.00  0.00    +0.000 A 
BRANCH  19  29
ATOM     25  C   UNL     1       3.499   3.173  19.894  0.00  0.00    +0.000 A 
ATOM     26  C   UNL     1       2.496   2.658  20.709  0.00  0.00    +0.000 A 
ATOM     27  C   UNL     1       1.490   3.489  21.182  0.00  0.00    +0.000 A 
ATOM     28  C   UNL     1       1.460   4.834  20.814  0.00  0.00    +0.000 A 
ATOM     29  C   UNL     1       2.450   5.401  19.969  0.00  0.00    +0.000 A 
ATOM     30  C   UNL     1       3.502   4.541  19.586  0.00  0.00    +0.000 A 
BRANCH  25  32
ATOM     31  C   UNL     1       3.920   1.215  18.589  0.00  0.00    +0.000 C 
ATOM     32  O   UNL     1       4.395   2.239  19.454  0.00  0.00    +0.000 OA
ENDBRANCH  25  32
ENDBRANCH  19  29
BRANCH  24  33
ATOM     33  O   UNL     1       3.560   6.400  17.467  0.00  0.00    +0.000 OA
ATOM     34  C   UNL     1       4.823   6.832  16.980  0.00  0.00    +0.000 C 
ENDBRANCH  24  33
ENDBRANCH   1  21
TORSDOF 6
ENDMDL
