MODEL 1
REMARK VINA RESULT:      -7.3      0.000      0.000
REMARK  Name = 
REMARK  11 active torsions:
REMARK  status: ('A' for Active; 'I' for Inactive)
REMARK    1  A    between atoms: C_1  and  C_2
REMARK    2  A    between atoms: C_2  and  O_3
REMARK    3  A    between atoms: O_3  and  C_4
REMARK    4  A    between atoms: N_9  and  C_10
REMARK    5  A    between atoms: C_10  and  C_11
REMARK    6  A    between atoms: C_10  and  C_20
REMARK    7  A    between atoms: C_14  and  C_15
REMARK    8  A    between atoms: C_15  and  C_16
REMARK    9  A    between atoms: C_15  and  C_17
REMARK   10  A    between atoms: C_24  and  C_25
REMARK   11  A    between atoms: C_28  and  O_29
REMARK                            x       y       z     vdW  Elec       q    Type
REMARK                         _______ _______ _______ _____ _____    ______ ____
ROOT
ATOM      1  C   UNL     1       0.136  11.854  18.814  0.00  0.00    +0.000 C 
ENDROOT
BRANCH   1   2
ATOM      2  C   UNL     1      -1.386  11.777  18.689  0.00  0.00    +0.000 A 
ATOM      3  S   UNL     1      -2.348  12.255  20.152  0.00  0.00    +0.000 S 
ATOM      4  C   UNL     1      -3.795  12.007  19.252  0.00  0.00    +0.000 A 
ATOM      5  N   UNL     1      -5.064  12.181  19.469  0.00  0.00    +0.000 NA
ATOM      6  C   UNL     1      -5.597  11.819  18.251  0.00  0.00    +0.000 A 
ATOM      7  C   UNL     1      -7.048  11.922  17.983  0.00  0.00    +0.000 C 
ATOM      8  N   UNL     1      -4.710  11.406  17.320  0.00  0.00    +0.000 NA
ATOM      9  N   UNL     1      -3.545  11.563  17.991  0.00  0.00    +0.000 N 
ATOM     10  C   UNL     1      -2.199  11.415  17.668  0.00  0.00    +0.000 A 
BRANCH  10  11
ATOM     11  O   UNL     1      -1.807  10.993  16.421  0.00  0.00    +0.000 OA
ATOM     12  H   UNL     1      -1.797  11.779  15.837  0.00  0.00    +0.000 HD
ENDBRANCH  10  11
ENDBRANCH   1   2
BRANCH   1  18
ATOM     13  C   UNL     1       2.346  16.332  18.388  0.00  0.00    +0.000 C 
ATOM     14  O   UNL     1       3.562  16.434  18.285  0.00  0.00    +0.000 OA
ATOM     15  N   UNL     1       1.666  15.132  18.347  0.00  0.00    +0.000 N 
ATOM     16  C   UNL     1       2.429  13.890  18.292  0.00  0.00    +0.000 C 
ATOM     17  C   UNL     1       2.175  13.042  19.558  0.00  0.00    +0.000 C 
ATOM     18  N   UNL     1       0.729  12.767  19.834  0.00  0.00    +0.000 NA
ATOM     19  C   UNL     1       0.052  14.083  19.918  0.00  0.00    +0.000 C 
ATOM     20  C   UNL     1       0.246  14.992  18.685  0.00  0.00    +0.000 C 
BRANCH  13  21
ATOM     21  O   UNL     1       1.517  17.380  18.626  0.00  0.00    +0.000 OA
BRANCH  21  23
ATOM     22  C   UNL     1      -0.185  18.325  17.252  0.00  0.00    +0.000 C 
ATOM     23  C   UNL     1       1.310  18.259  17.516  0.00  0.00    +0.000 C 
ENDBRANCH  21  23
ENDBRANCH  13  21
ENDBRANCH   1  18
BRANCH   1  24
ATOM     24  C   UNL     1       0.688  10.431  18.997  0.00  0.00    +0.000 A 
ATOM     25  C   UNL     1       0.637   9.795  20.247  0.00  0.00    +0.000 A 
ATOM     26  C   UNL     1       1.252   8.555  20.440  0.00  0.00    +0.000 A 
ATOM     27  C   UNL     1       1.934   7.922  19.392  0.00  0.00    +0.000 A 
ATOM     28  C   UNL     1       1.970   8.551  18.139  0.00  0.00    +0.000 A 
ATOM     29  C   UNL     1       1.343   9.783  17.939  0.00  0.00    +0.000 A 
BRANCH  27  30
ATOM     30  C   UNL     1       2.612   6.584  19.629  0.00  0.00    +0.000 C 
ATOM     31  C   UNL     1       1.763   5.685  20.531  0.00  0.00    +0.000 C 
ATOM     32  C   UNL     1       2.956   5.873  18.317  0.00  0.00    +0.000 C 
ENDBRANCH  27  30
ENDBRANCH   1  24
TORSDOF 7
ENDMDL
MODEL 2
REMARK VINA RESULT:      -7.2      2.443      6.025
REMARK  Name = 
REMARK  11 active torsions:
REMARK  status: ('A' for Active; 'I' for Inactive)
REMARK    1  A    between atoms: C_1  and  C_2
REMARK    2  A    between atoms: C_2  and  O_3
REMARK    3  A    between atoms: O_3  and  C_4
REMARK    4  A    between atoms: N_9  and  C_10
REMARK    5  A    between atoms: C_10  and  C_11
REMARK    6  A    between atoms: C_10  and  C_20
REMARK    7  A    between atoms: C_14  and  C_15
REMARK    8  A    between atoms: C_15  and  C_16
REMARK    9  A    between atoms: C_15  and  C_17
REMARK   10  A    between atoms: C_24  and  C_25
REMARK   11  A    between atoms: C_28  and  O_29
REMARK                            x       y       z     vdW  Elec       q    Type
REMARK                         _______ _______ _______ _____ _____    ______ ____
ROOT
ATOM      1  C   UNL     1       0.068  11.774  19.353  0.00  0.00    +0.000 C 
ENDROOT
BRANCH   1   2
ATOM      2  C   UNL     1       0.733  10.404  19.486  0.00  0.00    +0.000 A 
ATOM      3  S   UNL     1       0.534   9.554  21.077  0.00  0.00    +0.000 S 
ATOM      4  C   UNL     1       1.397   8.208  20.439  0.00  0.00    +0.000 A 
ATOM      5  N   UNL     1       1.704   7.018  20.862  0.00  0.00    +0.000 NA
ATOM      6  C   UNL     1       2.349   6.501  19.760  0.00  0.00    +0.000 A 
ATOM      7  C   UNL     1       2.835   5.103  19.736  0.00  0.00    +0.000 C 
ATOM      8  N   UNL     1       2.472   7.334  18.703  0.00  0.00    +0.000 NA
ATOM      9  N   UNL     1       1.820   8.427  19.166  0.00  0.00    +0.000 N 
ATOM     10  C   UNL     1       1.469   9.661  18.626  0.00  0.00    +0.000 A 
BRANCH  10  11
ATOM     11  O   UNL     1       1.817  10.003  17.342  0.00  0.00    +0.000 OA
ATOM     12  H   UNL     1       1.282   9.449  16.736  0.00  0.00    +0.000 HD
ENDBRANCH  10  11
ENDBRANCH   1   2
BRANCH   1  18
ATOM     13  C   UNL     1       2.203  16.188  20.391  0.00  0.00    +0.000 C 
ATOM     14  O   UNL     1       1.564  17.231  20.341  0.00  0.00    +0.000 OA
ATOM     15  N   UNL     1       1.642  14.933  20.275  0.00  0.00    +0.000 N 
ATOM     16  C   UNL     1       0.222  14.821  19.961  0.00  0.00    +0.000 C 
ATOM     17  C   UNL     1       0.023  14.130  18.595  0.00  0.00    +0.000 C 
ATOM     18  N   UNL     1       0.701  12.800  18.473  0.00  0.00    +0.000 NA
ATOM     19  C   UNL     1       2.138  13.025  18.763  0.00  0.00    +0.000 C 
ATOM     20  C   UNL     1       2.427  13.705  20.119  0.00  0.00    +0.000 C 
BRANCH  13  21
ATOM     21  O   UNL     1       3.556  16.134  20.497  0.00  0.00    +0.000 OA
BRANCH  21  23
ATOM     22  C   UNL     1       5.169  15.842  18.769  0.00  0.00    +0.000 C 
ATOM     23  C   UNL     1       4.276  16.842  19.483  0.00  0.00    +0.000 C 
ENDBRANCH  21  23
ENDBRANCH  13  21
ENDBRANCH   1  18
BRANCH   1  24
ATOM     24  C   UNL     1      -1.402  11.572  18.951  0.00  0.00    +0.000 A 
ATOM     25  C   UNL     1      -1.737  10.920  17.754  0.00  0.00    +0.000 A 
ATOM     26  C   UNL     1      -3.067  10.849  17.331  0.00  0.00    +0.000 A 
ATOM     27  C   UNL     1      -4.093  11.430  18.089  0.00  0.00    +0.000 A 
ATOM     28  C   UNL     1      -3.758  12.067  19.293  0.00  0.00    +0.000 A 
ATOM     29  C   UNL     1      -2.432  12.125  19.726  0.00  0.00    +0.000 A 
BRANCH  27  30
ATOM     30  C   UNL     1      -5.529  11.358  17.600  0.00  0.00    +0.000 C 
ATOM     31  C   UNL     1      -6.436  10.701  18.642  0.00  0.00    +0.000 C 
ATOM     32  C   UNL     1      -6.067  12.734  17.196  0.00  0.00    +0.000 C 
ENDBRANCH  27  30
ENDBRANCH   1  24
TORSDOF 7
ENDMDL
MODEL 3
REMARK VINA RESULT:      -7.1      1.123      1.301
REMARK  Name = 
REMARK  11 active torsions:
REMARK  status: ('A' for Active; 'I' for Inactive)
REMARK    1  A    between atoms: C_1  and  C_2
REMARK    2  A    between atoms: C_2  and  O_3
REMARK    3  A    between atoms: O_3  and  C_4
REMARK    4  A    between atoms: N_9  and  C_10
REMARK    5  A    between atoms: C_10  and  C_11
REMARK    6  A    between atoms: C_10  and  C_20
REMARK    7  A    between atoms: C_14  and  C_15
REMARK    8  A    between atoms: C_15  and  C_16
REMARK    9  A    between atoms: C_15  and  C_17
REMARK   10  A    between atoms: C_24  and  C_25
REMARK   11  A    between atoms: C_28  and  O_29
REMARK                            x       y       z     vdW  Elec       q    Type
REMARK                         _______ _______ _______ _____ _____    ______ ____
ROOT
ATOM      1  C   UNL     1       0.149  11.883  18.826  0.00  0.00    +0.000 C 
ENDROOT
BRANCH   1   2
ATOM      2  C   UNL     1      -1.373  11.824  18.697  0.00  0.00    +0.000 A 
ATOM      3  S   UNL     1      -2.035  11.394  17.061  0.00  0.00    +0.000 S 
ATOM      4  C   UNL     1      -3.626  11.445  17.719  0.00  0.00    +0.000 A 
ATOM      5  N   UNL     1      -4.820  11.186  17.277  0.00  0.00    +0.000 NA
ATOM      6  C   UNL     1      -5.576  11.399  18.410  0.00  0.00    +0.000 A 
ATOM      7  C   UNL     1      -7.035  11.155  18.420  0.00  0.00    +0.000 C 
ATOM      8  N   UNL     1      -4.895  11.804  19.505  0.00  0.00    +0.000 NA
ATOM      9  N   UNL     1      -3.627  11.800  19.031  0.00  0.00    +0.000 N 
ATOM     10  C   UNL     1      -2.372  12.031  19.587  0.00  0.00    +0.000 A 
BRANCH  10  11
ATOM     11  O   UNL     1      -2.230  12.376  20.909  0.00  0.00    +0.000 OA
ATOM     12  H   UNL     1      -2.908  11.883  21.415  0.00  0.00    +0.000 HD
ENDBRANCH  10  11
ENDBRANCH   1   2
BRANCH   1  18
ATOM     13  C   UNL     1       2.364  16.355  18.361  0.00  0.00    +0.000 C 
ATOM     14  O   UNL     1       3.580  16.454  18.250  0.00  0.00    +0.000 OA
ATOM     15  N   UNL     1       1.682  15.156  18.332  0.00  0.00    +0.000 N 
ATOM     16  C   UNL     1       2.443  13.912  18.278  0.00  0.00    +0.000 C 
ATOM     17  C   UNL     1       2.195  13.072  19.550  0.00  0.00    +0.000 C 
ATOM     18  N   UNL     1       0.750  12.800  19.837  0.00  0.00    +0.000 NA
ATOM     19  C   UNL     1       0.077  14.119  19.918  0.00  0.00    +0.000 C 
ATOM     20  C   UNL     1       0.264  15.021  18.679  0.00  0.00    +0.000 C 
BRANCH  13  21
ATOM     21  O   UNL     1       1.539  17.406  18.599  0.00  0.00    +0.000 OA
BRANCH  21  23
ATOM     22  C   UNL     1      -0.119  18.267  17.121  0.00  0.00    +0.000 C 
ATOM     23  C   UNL     1       1.353  18.297  17.496  0.00  0.00    +0.000 C 
ENDBRANCH  21  23
ENDBRANCH  13  21
ENDBRANCH   1  18
BRANCH   1  24
ATOM     24  C   UNL     1       0.684  10.456  19.027  0.00  0.00    +0.000 A 
ATOM     25  C   UNL     1       0.621   9.834  20.284  0.00  0.00    +0.000 A 
ATOM     26  C   UNL     1       1.219   8.589  20.492  0.00  0.00    +0.000 A 
ATOM     27  C   UNL     1       1.897   7.937  19.455  0.00  0.00    +0.000 A 
ATOM     28  C   UNL     1       1.945   8.551  18.194  0.00  0.00    +0.000 A 
ATOM     29  C   UNL     1       1.334   9.788  17.978  0.00  0.00    +0.000 A 
BRANCH  27  30
ATOM     30  C   UNL     1       2.558   6.593  19.709  0.00  0.00    +0.000 C 
ATOM     31  C   UNL     1       1.691   5.711  20.609  0.00  0.00    +0.000 C 
ATOM     32  C   UNL     1       2.907   5.868  18.406  0.00  0.00    +0.000 C 
ENDBRANCH  27  30
ENDBRANCH   1  24
TORSDOF 7
ENDMDL
MODEL 4
REMARK VINA RESULT:      -7.0      2.495      5.891
REMARK  Name = 
REMARK  11 active torsions:
REMARK  status: ('A' for Active; 'I' for Inactive)
REMARK    1  A    between atoms: C_1  and  C_2
REMARK    2  A    between atoms: C_2  and  O_3
REMARK    3  A    between atoms: O_3  and  C_4
REMARK    4  A    between atoms: N_9  and  C_10
REMARK    5  A    between atoms: C_10  and  C_11
REMARK    6  A    between atoms: C_10  and  C_20
REMARK    7  A    between atoms: C_14  and  C_15
REMARK    8  A    between atoms: C_15  and  C_16
REMARK    9  A    between atoms: C_15  and  C_17
REMARK   10  A    between atoms: C_24  and  C_25
REMARK   11  A    between atoms: C_28  and  O_29
REMARK                            x       y       z     vdW  Elec       q    Type
REMARK                         _______ _______ _______ _____ _____    ______ ____
ROOT
ATOM      1  C   UNL     1       0.143  12.138  19.370  0.00  0.00    +0.000 C 
ENDROOT
BRANCH   1   2
ATOM      2  C   UNL     1       0.731  10.736  19.528  0.00  0.00    +0.000 A 
ATOM      3  S   UNL     1       0.478   9.924  21.132  0.00  0.00    +0.000 S 
ATOM      4  C   UNL     1       1.268   8.522  20.519  0.00  0.00    +0.000 A 
ATOM      5  N   UNL     1       1.507   7.323  20.962  0.00  0.00    +0.000 NA
ATOM      6  C   UNL     1       2.127   6.754  19.872  0.00  0.00    +0.000 A 
ATOM      7  C   UNL     1       2.535   5.332  19.873  0.00  0.00    +0.000 C 
ATOM      8  N   UNL     1       2.300   7.562  18.803  0.00  0.00    +0.000 NA
ATOM      9  N   UNL     1       1.708   8.697  19.245  0.00  0.00    +0.000 N 
ATOM     10  C   UNL     1       1.428   9.939  18.683  0.00  0.00    +0.000 A 
BRANCH  10  11
ATOM     11  O   UNL     1       1.799  10.241  17.396  0.00  0.00    +0.000 OA
ATOM     12  H   UNL     1       1.452  11.134  17.193  0.00  0.00    +0.000 HD
ENDBRANCH  10  11
ENDBRANCH   1   2
BRANCH   1  18
ATOM     13  C   UNL     1       2.435  16.425  20.586  0.00  0.00    +0.000 C 
ATOM     14  O   UNL     1       1.854  17.501  20.512  0.00  0.00    +0.000 OA
ATOM     15  N   UNL     1       1.819  15.203  20.422  0.00  0.00    +0.000 N 
ATOM     16  C   UNL     1       0.416  15.167  20.024  0.00  0.00    +0.000 C 
ATOM     17  C   UNL     1       0.262  14.500  18.640  0.00  0.00    +0.000 C 
ATOM     18  N   UNL     1       0.878  13.138  18.542  0.00  0.00    +0.000 NA
ATOM     19  C   UNL     1       2.304  13.286  18.917  0.00  0.00    +0.000 C 
ATOM     20  C   UNL     1       2.548  13.937  20.296  0.00  0.00    +0.000 C 
BRANCH  13  21
ATOM     21  O   UNL     1       3.775  16.301  20.770  0.00  0.00    +0.000 OA
BRANCH  21  23
ATOM     22  C   UNL     1       5.412  18.026  20.632  0.00  0.00    +0.000 C 
ATOM     23  C   UNL     1       4.588  17.024  19.841  0.00  0.00    +0.000 C 
ENDBRANCH  21  23
ENDBRANCH  13  21
ENDBRANCH   1  18
BRANCH   1  24
ATOM     24  C   UNL     1      -1.308  12.012  18.877  0.00  0.00    +0.000 A 
ATOM     25  C   UNL     1      -2.383  12.358  19.711  0.00  0.00    +0.000 A 
ATOM     26  C   UNL     1      -3.700  12.125  19.307  0.00  0.00    +0.000 A 
ATOM     27  C   UNL     1      -3.976  11.537  18.065  0.00  0.00    +0.000 A 
ATOM     28  C   UNL     1      -2.901  11.206  17.226  0.00  0.00    +0.000 A 
ATOM     29  C   UNL     1      -1.585  11.454  17.620  0.00  0.00    +0.000 A 
BRANCH  27  30
ATOM     30  C   UNL     1      -5.414  11.273  17.655  0.00  0.00    +0.000 C 
ATOM     31  C   UNL     1      -6.190  10.575  18.774  0.00  0.00    +0.000 C 
ATOM     32  C   UNL     1      -6.129  12.554  17.212  0.00  0.00    +0.000 C 
ENDBRANCH  27  30
ENDBRANCH   1  24
TORSDOF 7
ENDMDL
MODEL 5
REMARK VINA RESULT:      -6.6      2.135      2.452
REMARK  Name = 
REMARK  11 active torsions:
REMARK  status: ('A' for Active; 'I' for Inactive)
REMARK    1  A    between atoms: C_1  and  C_2
REMARK    2  A    between atoms: C_2  and  O_3
REMARK    3  A    between atoms: O_3  and  C_4
REMARK    4  A    between atoms: N_9  and  C_10
REMARK    5  A    between atoms: C_10  and  C_11
REMARK    6  A    between atoms: C_10  and  C_20
REMARK    7  A    between atoms: C_14  and  C_15
REMARK    8  A    between atoms: C_15  and  C_16
REMARK    9  A    between atoms: C_15  and  C_17
REMARK   10  A    between atoms: C_24  and  C_25
REMARK   11  A    between atoms: C_28  and  O_29
REMARK                            x       y       z     vdW  Elec       q    Type
REMARK                         _______ _______ _______ _____ _____    ______ ____
ROOT
ATOM      1  C   UNL     1       0.122  12.242  20.266  0.00  0.00    +0.000 C 
ENDROOT
BRANCH   1   2
ATOM      2  C   UNL     1      -1.210  12.272  21.014  0.00  0.00    +0.000 A 
ATOM      3  S   UNL     1      -1.155  11.895  22.789  0.00  0.00    +0.000 S 
ATOM      4  C   UNL     1      -2.847  12.201  22.883  0.00  0.00    +0.000 A 
ATOM      5  N   UNL     1      -3.729  12.252  23.836  0.00  0.00    +0.000 NA
ATOM      6  C   UNL     1      -4.858  12.618  23.136  0.00  0.00    +0.000 A 
ATOM      7  C   UNL     1      -6.142  12.876  23.824  0.00  0.00    +0.000 C 
ATOM      8  N   UNL     1      -4.703  12.761  21.801  0.00  0.00    +0.000 NA
ATOM      9  N   UNL     1      -3.380  12.509  21.671  0.00  0.00    +0.000 N 
ATOM     10  C   UNL     1      -2.477  12.536  20.612  0.00  0.00    +0.000 A 
BRANCH  10  11
ATOM     11  O   UNL     1      -2.879  12.852  19.338  0.00  0.00    +0.000 OA
ATOM     12  H   UNL     1      -3.155  12.019  18.903  0.00  0.00    +0.000 HD
ENDBRANCH  10  11
ENDBRANCH   1   2
BRANCH   1  18
ATOM     13  C   UNL     1       2.014  16.512  18.449  0.00  0.00    +0.000 C 
ATOM     14  O   UNL     1       2.976  16.511  17.691  0.00  0.00    +0.000 OA
ATOM     15  N   UNL     1       1.349  15.374  18.854  0.00  0.00    +0.000 N 
ATOM     16  C   UNL     1       1.874  14.071  18.460  0.00  0.00    +0.000 C 
ATOM     17  C   UNL     1       2.305  13.263  19.703  0.00  0.00    +0.000 C 
ATOM     18  N   UNL     1       1.235  13.113  20.741  0.00  0.00    +0.000 NA
ATOM     19  C   UNL     1       0.802  14.483  21.108  0.00  0.00    +0.000 C 
ATOM     20  C   UNL     1       0.343  15.358  19.921  0.00  0.00    +0.000 C 
BRANCH  13  21
ATOM     21  O   UNL     1       1.521  17.630  19.042  0.00  0.00    +0.000 OA
BRANCH  21  23
ATOM     22  C   UNL     1      -0.116  18.022  17.357  0.00  0.00    +0.000 C 
ATOM     23  C   UNL     1       1.030  18.631  18.146  0.00  0.00    +0.000 C 
ENDBRANCH  21  23
ENDBRANCH  13  21
ENDBRANCH   1  18
BRANCH   1  24
ATOM     24  C   UNL     1       0.600  10.784  20.168  0.00  0.00    +0.000 A 
ATOM     25  C   UNL     1       0.820  10.020  21.324  0.00  0.00    +0.000 A 
ATOM     26  C   UNL     1       1.373   8.740  21.237  0.00  0.00    +0.000 A 
ATOM     27  C   UNL     1       1.724   8.194  19.995  0.00  0.00    +0.000 A 
ATOM     28  C   UNL     1       1.488   8.952  18.838  0.00  0.00    +0.000 A 
ATOM     29  C   UNL     1       0.920  10.225  18.921  0.00  0.00    +0.000 A 
BRANCH  27  30
ATOM     30  C   UNL     1       2.343   6.809  19.924  0.00  0.00    +0.000 C 
ATOM     31  C   UNL     1       1.493   5.783  20.679  0.00  0.00    +0.000 C 
ATOM     32  C   UNL     1       2.585   6.360  18.480  0.00  0.00    +0.000 C 
ENDBRANCH  27  30
ENDBRANCH   1  24
TORSDOF 7
ENDMDL
MODEL 6
REMARK VINA RESULT:      -6.6      2.413      5.895
REMARK  Name = 
REMARK  11 active torsions:
REMARK  status: ('A' for Active; 'I' for Inactive)
REMARK    1  A    between atoms: C_1  and  C_2
REMARK    2  A    between atoms: C_2  and  O_3
REMARK    3  A    between atoms: O_3  and  C_4
REMARK    4  A    between atoms: N_9  and  C_10
REMARK    5  A    between atoms: C_10  and  C_11
REMARK    6  A    between atoms: C_10  and  C_20
REMARK    7  A    between atoms: C_14  and  C_15
REMARK    8  A    between atoms: C_15  and  C_16
REMARK    9  A    between atoms: C_15  and  C_17
REMARK   10  A    between atoms: C_24  and  C_25
REMARK   11  A    between atoms: C_28  and  O_29
REMARK                            x       y       z     vdW  Elec       q    Type
REMARK                         _______ _______ _______ _____ _____    ______ ____
ROOT
ATOM      1  C   UNL     1       0.303  12.437  19.458  0.00  0.00    +0.000 C 
ENDROOT
BRANCH   1   2
ATOM      2  C   UNL     1       0.800  11.002  19.630  0.00  0.00    +0.000 A 
ATOM      3  S   UNL     1       0.590  10.259  21.274  0.00  0.00    +0.000 S 
ATOM      4  C   UNL     1       1.241   8.786  20.664  0.00  0.00    +0.000 A 
ATOM      5  N   UNL     1       1.422   7.588  21.134  0.00  0.00    +0.000 NA
ATOM      6  C   UNL     1       1.933   6.942  20.029  0.00  0.00    +0.000 A 
ATOM      7  C   UNL     1       2.240   5.495  20.056  0.00  0.00    +0.000 C 
ATOM      8  N   UNL     1       2.096   7.703  18.925  0.00  0.00    +0.000 NA
ATOM      9  N   UNL     1       1.613   8.890  19.361  0.00  0.00    +0.000 N 
ATOM     10  C   UNL     1       1.387  10.132  18.774  0.00  0.00    +0.000 A 
BRANCH  10  11
ATOM     11  O   UNL     1       1.699  10.367  17.458  0.00  0.00    +0.000 OA
ATOM     12  H   UNL     1       2.240   9.612  17.146  0.00  0.00    +0.000 HD
ENDBRANCH  10  11
ENDBRANCH   1   2
BRANCH   1  18
ATOM     13  C   UNL     1       2.865  16.742  19.604  0.00  0.00    +0.000 C 
ATOM     14  O   UNL     1       2.302  17.823  19.482  0.00  0.00    +0.000 OA
ATOM     15  N   UNL     1       2.205  15.538  19.733  0.00  0.00    +0.000 N 
ATOM     16  C   UNL     1       0.752  15.512  19.607  0.00  0.00    +0.000 C 
ATOM     17  C   UNL     1       0.330  14.667  18.385  0.00  0.00    +0.000 C 
ATOM     18  N   UNL     1       0.890  13.278  18.375  0.00  0.00    +0.000 NA
ATOM     19  C   UNL     1       2.364  13.411  18.459  0.00  0.00    +0.000 C 
ATOM     20  C   UNL     1       2.873  14.235  19.662  0.00  0.00    +0.000 C 
BRANCH  13  21
ATOM     21  O   UNL     1       4.213  16.583  19.557  0.00  0.00    +0.000 OA
BRANCH  21  23
ATOM     22  C   UNL     1       5.419  16.506  21.609  0.00  0.00    +0.000 C 
ATOM     23  C   UNL     1       4.956  17.397  20.469  0.00  0.00    +0.000 C 
ENDBRANCH  21  23
ENDBRANCH  13  21
ENDBRANCH   1  18
BRANCH   1  24
ATOM     24  C   UNL     1      -1.230  12.418  19.337  0.00  0.00    +0.000 A 
ATOM     25  C   UNL     1      -2.038  12.974  20.341  0.00  0.00    +0.000 A 
ATOM     26  C   UNL     1      -3.428  12.843  20.289  0.00  0.00    +0.000 A 
ATOM     27  C   UNL     1      -4.044  12.152  19.238  0.00  0.00    +0.000 A 
ATOM     28  C   UNL     1      -3.236  11.610  18.226  0.00  0.00    +0.000 A 
ATOM     29  C   UNL     1      -1.848  11.754  18.267  0.00  0.00    +0.000 A 
BRANCH  27  30
ATOM     30  C   UNL     1      -5.555  12.004  19.212  0.00  0.00    +0.000 C 
ATOM     31  C   UNL     1      -5.979  10.780  18.398  0.00  0.00    +0.000 C 
ATOM     32  C   UNL     1      -6.152  11.956  20.622  0.00  0.00    +0.000 C 
ENDBRANCH  27  30
ENDBRANCH   1  24
TORSDOF 7
ENDMDL
MODEL 7
REMARK VINA RESULT:      -6.6      2.496      6.176
REMARK  Name = 
REMARK  11 active torsions:
REMARK  status: ('A' for Active; 'I' for Inactive)
REMARK    1  A    between atoms: C_1  and  C_2
REMARK    2  A    between atoms: C_2  and  O_3
REMARK    3  A    between atoms: O_3  and  C_4
REMARK    4  A    between atoms: N_9  and  C_10
REMARK    5  A    between atoms: C_10  and  C_11
REMARK    6  A    between atoms: C_10  and  C_20
REMARK    7  A    between atoms: C_14  and  C_15
REMARK    8  A    between atoms: C_15  and  C_16
REMARK    9  A    between atoms: C_15  and  C_17
REMARK   10  A    between atoms: C_24  and  C_25
REMARK   11  A    between atoms: C_28  and  O_29
REMARK                            x       y       z     vdW  Elec       q    Type
REMARK                         _______ _______ _______ _____ _____    ______ ____
ROOT
ATOM      1  C   UNL     1       0.275  10.971  19.058  0.00  0.00    +0.000 C 
ENDROOT
BRANCH   1   2
ATOM      2  C   UNL     1       1.152  12.129  19.532  0.00  0.00    +0.000 A 
ATOM      3  S   UNL     1       0.936  12.662  21.254  0.00  0.00    +0.000 S 
ATOM      4  C   UNL     1       2.207  13.804  21.034  0.00  0.00    +0.000 A 
ATOM      5  N   UNL     1       2.842  14.642  21.798  0.00  0.00    +0.000 NA
ATOM      6  C   UNL     1       3.768  15.156  20.916  0.00  0.00    +0.000 A 
ATOM      7  C   UNL     1       4.793  16.129  21.356  0.00  0.00    +0.000 C 
ATOM      8  N   UNL     1       3.700  14.689  19.650  0.00  0.00    +0.000 NA
ATOM      9  N   UNL     1       2.692  13.792  19.765  0.00  0.00    +0.000 N 
ATOM     10  C   UNL     1       2.099  12.870  18.908  0.00  0.00    +0.000 A 
BRANCH  10  11
ATOM     11  O   UNL     1       2.509  12.741  17.604  0.00  0.00    +0.000 OA
ATOM     12  H   UNL     1       2.883  11.841  17.503  0.00  0.00    +0.000 HD
ENDBRANCH  10  11
ENDBRANCH   1   2
BRANCH   1  18
ATOM     13  C   UNL     1      -4.677  11.184  18.311  0.00  0.00    +0.000 C 
ATOM     14  O   UNL     1      -5.320  10.184  18.021  0.00  0.00    +0.000 OA
ATOM     15  N   UNL     1      -3.349  11.167  18.684  0.00  0.00    +0.000 N 
ATOM     16  C   UNL     1      -2.617   9.906  18.630  0.00  0.00    +0.000 C 
ATOM     17  C   UNL     1      -1.469   9.991  17.601  0.00  0.00    +0.000 C 
ATOM     18  N   UNL     1      -0.533  11.140  17.815  0.00  0.00    +0.000 NA
ATOM     19  C   UNL     1      -1.360  12.371  17.808  0.00  0.00    +0.000 C 
ATOM     20  C   UNL     1      -2.528  12.374  18.819  0.00  0.00    +0.000 C 
BRANCH  13  21
ATOM     21  O   UNL     1      -5.168  12.447  18.233  0.00  0.00    +0.000 OA
BRANCH  21  23
ATOM     22  C   UNL     1      -6.772  13.974  17.354  0.00  0.00    +0.000 C 
ATOM     23  C   UNL     1      -5.952  12.727  17.070  0.00  0.00    +0.000 C 
ENDBRANCH  21  23
ENDBRANCH  13  21
ENDBRANCH   1  18
BRANCH   1  24
ATOM     24  C   UNL     1       1.142   9.705  18.953  0.00  0.00    +0.000 A 
ATOM     25  C   UNL     1       1.793   9.377  17.753  0.00  0.00    +0.000 A 
ATOM     26  C   UNL     1       2.476   8.166  17.623  0.00  0.00    +0.000 A 
ATOM     27  C   UNL     1       2.523   7.251  18.684  0.00  0.00    +0.000 A 
ATOM     28  C   UNL     1       1.886   7.588  19.888  0.00  0.00    +0.000 A 
ATOM     29  C   UNL     1       1.216   8.805  20.026  0.00  0.00    +0.000 A 
BRANCH  27  30
ATOM     30  C   UNL     1       3.254   5.931  18.514  0.00  0.00    +0.000 C 
ATOM     31  C   UNL     1       2.323   4.849  17.961  0.00  0.00    +0.000 C 
ATOM     32  C   UNL     1       4.503   6.075  17.640  0.00  0.00    +0.000 C 
ENDBRANCH  27  30
ENDBRANCH   1  24
TORSDOF 7
ENDMDL
MODEL 8
REMARK VINA RESULT:      -6.6      2.823      6.226
REMARK  Name = 
REMARK  11 active torsions:
REMARK  status: ('A' for Active; 'I' for Inactive)
REMARK    1  A    between atoms: C_1  and  C_2
REMARK    2  A    between atoms: C_2  and  O_3
REMARK    3  A    between atoms: O_3  and  C_4
REMARK    4  A    between atoms: N_9  and  C_10
REMARK    5  A    between atoms: C_10  and  C_11
REMARK    6  A    between atoms: C_10  and  C_20
REMARK    7  A    between atoms: C_14  and  C_15
REMARK    8  A    between atoms: C_15  and  C_16
REMARK    9  A    between atoms: C_15  and  C_17
REMARK   10  A    between atoms: C_24  and  C_25
REMARK   11  A    between atoms: C_28  and  O_29
REMARK                            x       y       z     vdW  Elec       q    Type
REMARK                         _______ _______ _______ _____ _____    ______ ____
ROOT
ATOM      1  C   UNL     1       0.209  10.895  19.188  0.00  0.00    +0.000 C 
ENDROOT
BRANCH   1   2
ATOM      2  C   UNL     1       1.016  12.029  19.819  0.00  0.00    +0.000 A 
ATOM      3  S   UNL     1       2.298  12.790  18.783  0.00  0.00    +0.000 S 
ATOM      4  C   UNL     1       2.631  13.902  20.054  0.00  0.00    +0.000 A 
ATOM      5  N   UNL     1       3.403  14.938  20.202  0.00  0.00    +0.000 NA
ATOM      6  C   UNL     1       3.066  15.342  21.476  0.00  0.00    +0.000 A 
ATOM      7  C   UNL     1       3.651  16.560  22.078  0.00  0.00    +0.000 C 
ATOM      8  N   UNL     1       2.150  14.580  22.113  0.00  0.00    +0.000 NA
ATOM      9  N   UNL     1       1.867  13.668  21.154  0.00  0.00    +0.000 N 
ATOM     10  C   UNL     1       0.970  12.610  21.042  0.00  0.00    +0.000 A 
BRANCH  10  11
ATOM     11  O   UNL     1       0.125  12.278  22.072  0.00  0.00    +0.000 OA
ATOM     12  H   UNL     1       0.229  12.959  22.767  0.00  0.00    +0.000 HD
ENDBRANCH  10  11
ENDBRANCH   1   2
BRANCH   1  18
ATOM     13  C   UNL     1      -4.689  11.299  18.201  0.00  0.00    +0.000 C 
ATOM     14  O   UNL     1      -5.343  10.335  17.824  0.00  0.00    +0.000 OA
ATOM     15  N   UNL     1      -3.383  11.221  18.641  0.00  0.00    +0.000 N 
ATOM     16  C   UNL     1      -2.684   9.943  18.554  0.00  0.00    +0.000 C 
ATOM     17  C   UNL     1      -1.482  10.049  17.591  0.00  0.00    +0.000 C 
ATOM     18  N   UNL     1      -0.527  11.156  17.917  0.00  0.00    +0.000 NA
ATOM     19  C   UNL     1      -1.319  12.410  17.936  0.00  0.00    +0.000 C 
ATOM     20  C   UNL     1      -2.538  12.393  18.884  0.00  0.00    +0.000 C 
BRANCH  13  21
ATOM     21  O   UNL     1      -5.140  12.579  18.169  0.00  0.00    +0.000 OA
BRANCH  21  23
ATOM     22  C   UNL     1      -7.336  13.295  17.586  0.00  0.00    +0.000 C 
ATOM     23  C   UNL     1      -6.451  12.777  18.707  0.00  0.00    +0.000 C 
ENDBRANCH  21  23
ENDBRANCH  13  21
ENDBRANCH   1  18
BRANCH   1  24
ATOM     24  C   UNL     1       1.123   9.669  19.023  0.00  0.00    +0.000 A 
ATOM     25  C   UNL     1       1.737   9.390  17.792  0.00  0.00    +0.000 A 
ATOM     26  C   UNL     1       2.464   8.210  17.612  0.00  0.00    +0.000 A 
ATOM     27  C   UNL     1       2.592   7.281  18.653  0.00  0.00    +0.000 A 
ATOM     28  C   UNL     1       1.992   7.569  19.887  0.00  0.00    +0.000 A 
ATOM     29  C   UNL     1       1.279   8.755  20.076  0.00  0.00    +0.000 A 
BRANCH  27  30
ATOM     30  C   UNL     1       3.370   5.996  18.428  0.00  0.00    +0.000 C 
ATOM     31  C   UNL     1       2.457   4.876  17.924  0.00  0.00    +0.000 C 
ATOM     32  C   UNL     1       4.557   6.200  17.481  0.00  0.00    +0.000 C 
ENDBRANCH  27  30
ENDBRANCH   1  24
TORSDOF 7
ENDMDL
MODEL 9
REMARK VINA RESULT:      -6.6      1.175      1.714
REMARK  Name = 
REMARK  11 active torsions:
REMARK  status: ('A' for Active; 'I' for Inactive)
REMARK    1  A    between atoms: C_1  and  C_2
REMARK    2  A    between atoms: C_2  and  O_3
REMARK    3  A    between atoms: O_3  and  C_4
REMARK    4  A    between atoms: N_9  and  C_10
REMARK    5  A    between atoms: C_10  and  C_11
REMARK    6  A    between atoms: C_10  and  C_20
REMARK    7  A    between atoms: C_14  and  C_15
REMARK    8  A    between atoms: C_15  and  C_16
REMARK    9  A    between atoms: C_15  and  C_17
REMARK   10  A    between atoms: C_24  and  C_25
REMARK   11  A    between atoms: C_28  and  O_29
REMARK                            x       y       z     vdW  Elec       q    Type
REMARK                         _______ _______ _______ _____ _____    ______ ____
ROOT
ATOM      1  C   UNL     1       0.329  11.951  18.818  0.00  0.00    +0.000 C 
ENDROOT
BRANCH   1   2
ATOM      2  C   UNL     1      -1.190  11.830  18.699  0.00  0.00    +0.000 A 
ATOM      3  S   UNL     1      -1.846  11.388  17.065  0.00  0.00    +0.000 S 
ATOM      4  C   UNL     1      -3.432  11.369  17.734  0.00  0.00    +0.000 A 
ATOM      5  N   UNL     1      -4.619  11.065  17.299  0.00  0.00    +0.000 NA
ATOM      6  C   UNL     1      -5.374  11.237  18.438  0.00  0.00    +0.000 A 
ATOM      7  C   UNL     1      -6.822  10.934  18.457  0.00  0.00    +0.000 C 
ATOM      8  N   UNL     1      -4.702  11.660  19.532  0.00  0.00    +0.000 NA
ATOM      9  N   UNL     1      -3.438  11.712  19.049  0.00  0.00    +0.000 N 
ATOM     10  C   UNL     1      -2.190  11.989  19.598  0.00  0.00    +0.000 A 
BRANCH  10  11
ATOM     11  O   UNL     1      -2.051  12.328  20.922  0.00  0.00    +0.000 OA
ATOM     12  H   UNL     1      -2.947  12.518  21.270  0.00  0.00    +0.000 HD
ENDBRANCH  10  11
ENDBRANCH   1   2
BRANCH   1  18
ATOM     13  C   UNL     1       2.532  16.429  18.358  0.00  0.00    +0.000 C 
ATOM     14  O   UNL     1       3.749  16.534  18.276  0.00  0.00    +0.000 OA
ATOM     15  N   UNL     1       1.857  15.226  18.325  0.00  0.00    +0.000 N 
ATOM     16  C   UNL     1       2.625  13.986  18.304  0.00  0.00    +0.000 C 
ATOM     17  C   UNL     1       2.351  13.159  19.579  0.00  0.00    +0.000 C 
ATOM     18  N   UNL     1       0.901  12.882  19.833  0.00  0.00    +0.000 NA
ATOM     19  C   UNL     1       0.218  14.197  19.883  0.00  0.00    +0.000 C 
ATOM     20  C   UNL     1       0.432  15.087  18.639  0.00  0.00    +0.000 C 
BRANCH  13  21
ATOM     21  O   UNL     1       1.695  17.478  18.564  0.00  0.00    +0.000 OA
BRANCH  21  23
ATOM     22  C   UNL     1      -0.098  18.590  17.457  0.00  0.00    +0.000 C 
ATOM     23  C   UNL     1       1.381  18.246  17.398  0.00  0.00    +0.000 C 
ENDBRANCH  21  23
ENDBRANCH  13  21
ENDBRANCH   1  18
BRANCH   1  24
ATOM     24  C   UNL     1       0.923  10.544  19.001  0.00  0.00    +0.000 A 
ATOM     25  C   UNL     1       1.580   9.897  17.943  0.00  0.00    +0.000 A 
ATOM     26  C   UNL     1       2.007   8.573  18.074  0.00  0.00    +0.000 A 
ATOM     27  C   UNL     1       1.785   7.863  19.261  0.00  0.00    +0.000 A 
ATOM     28  C   UNL     1       1.143   8.516  20.324  0.00  0.00    +0.000 A 
ATOM     29  C   UNL     1       0.730   9.844  20.202  0.00  0.00    +0.000 A 
BRANCH  27  30
ATOM     30  C   UNL     1       2.239   6.418  19.375  0.00  0.00    +0.000 C 
ATOM     31  C   UNL     1       3.743   6.289  19.123  0.00  0.00    +0.000 C 
ATOM     32  C   UNL     1       1.856   5.799  20.722  0.00  0.00    +0.000 C 
ENDBRANCH  27  30
ENDBRANCH   1  24
TORSDOF 7
ENDMDL
