MODEL 1
REMARK VINA RESULT:      -8.0      0.000      0.000
REMARK  Name = 
REMARK  8 active torsions:
REMARK  status: ('A' for Active; 'I' for Inactive)
REMARK    1  A    between atoms: C_1  and  C_2
REMARK    2  A    between atoms: C_2  and  N_3
REMARK    3  A    between atoms: C_2  and  C_21
REMARK    4  A    between atoms: C_4  and  C_6
REMARK    5  A    between atoms: N_9  and  S_10
REMARK    6  A    between atoms: S_10  and  C_13
REMARK    7  A    between atoms: N_23  and  C_24
REMARK    8  A    between atoms: C_24  and  C_25
REMARK                            x       y       z     vdW  Elec       q    Type
REMARK                         _______ _______ _______ _____ _____    ______ ____
ROOT
ATOM      1  N   UNL     1       0.068  10.936  20.733  0.00  0.00    +0.000 N 
ATOM      2  C   UNL     1       0.700  12.147  20.844  0.00  0.00    +0.000 C 
ATOM      3  O   UNL     1       1.841  12.260  21.280  0.00  0.00    +0.000 OA
ATOM      4  H   UNL     1      -0.753  10.851  20.140  0.00  0.00    +0.000 HD
ENDROOT
BRANCH   2   5
ATOM      5  C   UNL     1      -0.153  13.343  20.393  0.00  0.00    +0.000 C 
ATOM      6  C   UNL     1      -1.640  13.189  20.729  0.00  0.00    +0.000 C 
ATOM      7  C   UNL     1      -2.303  12.066  19.935  0.00  0.00    +0.000 C 
ATOM      8  N   UNL     1      -2.096  12.242  18.467  0.00  0.00    +0.000 NA
ATOM      9  C   UNL     1      -0.660  12.430  18.097  0.00  0.00    +0.000 C 
ATOM     10  C   UNL     1      -0.034  13.579  18.885  0.00  0.00    +0.000 C 
BRANCH   8  11
ATOM     11  S   UNL     1      -2.816  10.969  17.533  0.00  0.00    +0.000 S 
ATOM     12  O   UNL     1      -2.491  11.193  16.144  0.00  0.00    +0.000 OA
ATOM     13  O   UNL     1      -2.487   9.715  18.180  0.00  0.00    +0.000 OA
BRANCH  11  14
ATOM     14  C   UNL     1      -4.558  11.259  17.718  0.00  0.00    +0.000 A 
ATOM     15  C   UNL     1      -5.295  10.414  18.552  0.00  0.00    +0.000 A 
ATOM     16  C   UNL     1      -6.658  10.645  18.729  0.00  0.00    +0.000 A 
ATOM     17  C   UNL     1      -7.275  11.722  18.088  0.00  0.00    +0.000 A 
ATOM     18  C   UNL     1      -6.530  12.572  17.268  0.00  0.00    +0.000 A 
ATOM     19  C   UNL     1      -5.166  12.344  17.080  0.00  0.00    +0.000 A 
ENDBRANCH  11  14
ENDBRANCH   8  11
ENDBRANCH   2   5
BRANCH   1  21
ATOM     20  C   UNL     1      -0.389   8.796  21.845  0.00  0.00    +0.000 C 
ATOM     21  C   UNL     1       0.664   9.672  21.173  0.00  0.00    +0.000 C 
BRANCH  21  22
ATOM     22  C   UNL     1       1.260   8.967  19.934  0.00  0.00    +0.000 C 
ATOM     23  O   UNL     1       1.116   9.426  18.801  0.00  0.00    +0.000 OA
ATOM     24  N   UNL     1       1.961   7.811  20.193  0.00  0.00    +0.000 N 
ATOM     25  H   UNL     1       2.094   7.504  21.147  0.00  0.00    +0.000 HD
BRANCH  24  26
ATOM     26  C   UNL     1       2.591   7.038  19.145  0.00  0.00    +0.000 C 
BRANCH  26  27
ATOM     27  C   UNL     1       2.137   5.601  19.155  0.00  0.00    +0.000 A 
ATOM     28  C   UNL     1       1.934   4.918  17.945  0.00  0.00    +0.000 A 
ATOM     29  C   UNL     1       1.549   3.574  17.937  0.00  0.00    +0.000 A 
ATOM     30  C   UNL     1       1.353   2.898  19.141  0.00  0.00    +0.000 A 
ATOM     31  C   UNL     1       1.535   3.573  20.346  0.00  0.00    +0.000 A 
ATOM     32 CL   UNL     1       1.300   2.736  21.832  0.00  0.00    +0.000 Cl
ATOM     33  C   UNL     1       1.918   4.916  20.361  0.00  0.00    +0.000 A 
ENDBRANCH  26  27
ENDBRANCH  24  26
ENDBRANCH  21  22
ENDBRANCH   1  21
TORSDOF 7
ENDMDL
MODEL 2
REMARK VINA RESULT:      -7.8      2.822      3.858
REMARK  Name = 
REMARK  8 active torsions:
REMARK  status: ('A' for Active; 'I' for Inactive)
REMARK    1  A    between atoms: C_1  and  C_2
REMARK    2  A    between atoms: C_2  and  N_3
REMARK    3  A    between atoms: C_2  and  C_21
REMARK    4  A    between atoms: C_4  and  C_6
REMARK    5  A    between atoms: N_9  and  S_10
REMARK    6  A    between atoms: S_10  and  C_13
REMARK    7  A    between atoms: N_23  and  C_24
REMARK    8  A    between atoms: C_24  and  C_25
REMARK                            x       y       z     vdW  Elec       q    Type
REMARK                         _______ _______ _______ _____ _____    ______ ____
ROOT
ATOM      1  N   UNL     1       0.455  10.065  19.315  0.00  0.00    +0.000 N 
ATOM      2  C   UNL     1       0.722  11.320  18.833  0.00  0.00    +0.000 C 
ATOM      3  O   UNL     1       1.860  11.775  18.769  0.00  0.00    +0.000 OA
ATOM      4  H   UNL     1      -0.442   9.631  19.115  0.00  0.00    +0.000 HD
ENDROOT
BRANCH   2   5
ATOM      5  C   UNL     1      -0.526  12.104  18.399  0.00  0.00    +0.000 C 
ATOM      6  C   UNL     1      -0.395  13.617  18.612  0.00  0.00    +0.000 C 
ATOM      7  C   UNL     1      -0.335  13.994  20.090  0.00  0.00    +0.000 C 
ATOM      8  N   UNL     1      -1.501  13.441  20.841  0.00  0.00    +0.000 NA
ATOM      9  C   UNL     1      -1.686  11.973  20.635  0.00  0.00    +0.000 C 
ATOM     10  C   UNL     1      -1.773  11.631  19.149  0.00  0.00    +0.000 C 
BRANCH   8  11
ATOM     11  S   UNL     1      -1.453  13.829  22.531  0.00  0.00    +0.000 S 
ATOM     12  O   UNL     1      -0.662  12.824  23.201  0.00  0.00    +0.000 OA
ATOM     13  O   UNL     1      -1.120  15.235  22.646  0.00  0.00    +0.000 OA
BRANCH  11  14
ATOM     14  C   UNL     1      -3.137  13.605  23.051  0.00  0.00    +0.000 A 
ATOM     15  C   UNL     1      -4.141  14.336  22.411  0.00  0.00    +0.000 A 
ATOM     16  C   UNL     1      -5.470  14.152  22.789  0.00  0.00    +0.000 A 
ATOM     17  C   UNL     1      -5.792  13.232  23.789  0.00  0.00    +0.000 A 
ATOM     18  C   UNL     1      -4.785  12.493  24.415  0.00  0.00    +0.000 A 
ATOM     19  C   UNL     1      -3.451  12.676  24.047  0.00  0.00    +0.000 A 
ENDBRANCH  11  14
ENDBRANCH   8  11
ENDBRANCH   2   5
BRANCH   1  21
ATOM     20  C   UNL     1       0.929   8.368  21.024  0.00  0.00    +0.000 C 
ATOM     21  C   UNL     1       1.484   9.171  19.851  0.00  0.00    +0.000 C 
BRANCH  21  22
ATOM     22  C   UNL     1       1.948   8.236  18.712  0.00  0.00    +0.000 C 
ATOM     23  O   UNL     1       1.718   8.498  17.531  0.00  0.00    +0.000 OA
ATOM     24  N   UNL     1       2.633   7.112  19.112  0.00  0.00    +0.000 N 
ATOM     25  H   UNL     1       2.840   6.969  20.092  0.00  0.00    +0.000 HD
BRANCH  24  26
ATOM     26  C   UNL     1       3.146   6.142  18.170  0.00  0.00    +0.000 C 
BRANCH  26  27
ATOM     27  C   UNL     1       2.667   4.747  18.481  0.00  0.00    +0.000 A 
ATOM     28  C   UNL     1       2.699   3.754  17.489  0.00  0.00    +0.000 A 
ATOM     29  C   UNL     1       2.294   2.446  17.772  0.00  0.00    +0.000 A 
ATOM     30  C   UNL     1       1.843   2.117  19.049  0.00  0.00    +0.000 A 
ATOM     31  C   UNL     1       1.792   3.101  20.035  0.00  0.00    +0.000 A 
ATOM     32 CL   UNL     1       1.242   2.693  21.615  0.00  0.00    +0.000 Cl
ATOM     33  C   UNL     1       2.193   4.409  19.758  0.00  0.00    +0.000 A 
ENDBRANCH  26  27
ENDBRANCH  24  26
ENDBRANCH  21  22
ENDBRANCH   1  21
TORSDOF 7
ENDMDL
MODEL 3
REMARK VINA RESULT:      -7.6      2.928      3.938
REMARK  Name = 
REMARK  8 active torsions:
REMARK  status: ('A' for Active; 'I' for Inactive)
REMARK    1  A    between atoms: C_1  and  C_2
REMARK    2  A    between atoms: C_2  and  N_3
REMARK    3  A    between atoms: C_2  and  C_21
REMARK    4  A    between atoms: C_4  and  C_6
REMARK    5  A    between atoms: N_9  and  S_10
REMARK    6  A    between atoms: S_10  and  C_13
REMARK    7  A    between atoms: N_23  and  C_24
REMARK    8  A    between atoms: C_24  and  C_25
REMARK                            x       y       z     vdW  Elec       q    Type
REMARK                         _______ _______ _______ _____ _____    ______ ____
ROOT
ATOM      1  N   UNL     1       0.462  10.389  19.198  0.00  0.00    +0.000 N 
ATOM      2  C   UNL     1       0.621  11.743  19.057  0.00  0.00    +0.000 C 
ATOM      3  O   UNL     1       1.661  12.322  19.356  0.00  0.00    +0.000 OA
ATOM      4  H   UNL     1      -0.294   9.919  18.709  0.00  0.00    +0.000 HD
ENDROOT
BRANCH   2   5
ATOM      5  C   UNL     1      -0.620  12.466  18.510  0.00  0.00    +0.000 C 
ATOM      6  C   UNL     1      -0.543  13.991  18.648  0.00  0.00    +0.000 C 
ATOM      7  C   UNL     1      -0.582  14.446  20.105  0.00  0.00    +0.000 C 
ATOM      8  N   UNL     1      -1.775  13.899  20.816  0.00  0.00    +0.000 NA
ATOM      9  C   UNL     1      -1.908  12.416  20.678  0.00  0.00    +0.000 C 
ATOM     10  C   UNL     1      -1.897  11.995  19.210  0.00  0.00    +0.000 C 
BRANCH   8  11
ATOM     11  S   UNL     1      -1.838  14.376  22.483  0.00  0.00    +0.000 S 
ATOM     12  O   UNL     1      -0.847  13.614  23.205  0.00  0.00    +0.000 OA
ATOM     13  O   UNL     1      -1.836  15.824  22.521  0.00  0.00    +0.000 OA
BRANCH  11  14
ATOM     14  C   UNL     1      -3.433  13.800  23.013  0.00  0.00    +0.000 A 
ATOM     15  C   UNL     1      -3.500  12.885  24.068  0.00  0.00    +0.000 A 
ATOM     16  C   UNL     1      -4.745  12.445  24.514  0.00  0.00    +0.000 A 
ATOM     17  C   UNL     1      -5.912  12.927  23.919  0.00  0.00    +0.000 A 
ATOM     18  C   UNL     1      -5.839  13.853  22.875  0.00  0.00    +0.000 A 
ATOM     19  C   UNL     1      -4.597  14.295  22.418  0.00  0.00    +0.000 A 
ENDBRANCH  11  14
ENDBRANCH   8  11
ENDBRANCH   2   5
BRANCH   1  21
ATOM     20  C   UNL     1       0.934   8.769  20.981  0.00  0.00    +0.000 C 
ATOM     21  C   UNL     1       1.488   9.513  19.769  0.00  0.00    +0.000 C 
BRANCH  21  22
ATOM     22  C   UNL     1       1.937   8.522  18.671  0.00  0.00    +0.000 C 
ATOM     23  O   UNL     1       2.068   8.877  17.499  0.00  0.00    +0.000 OA
ATOM     24  N   UNL     1       2.183   7.237  19.099  0.00  0.00    +0.000 N 
ATOM     25  H   UNL     1       2.110   7.011  20.082  0.00  0.00    +0.000 HD
BRANCH  24  26
ATOM     26  C   UNL     1       2.623   6.193  18.200  0.00  0.00    +0.000 C 
BRANCH  26  27
ATOM     27  C   UNL     1       2.366   4.819  18.765  0.00  0.00    +0.000 A 
ATOM     28  C   UNL     1       1.330   4.620  19.691  0.00  0.00    +0.000 A 
ATOM     29  C   UNL     1       1.056   3.346  20.195  0.00  0.00    +0.000 A 
ATOM     30  C   UNL     1       1.820   2.255  19.786  0.00  0.00    +0.000 A 
ATOM     31  C   UNL     1       2.862   2.446  18.880  0.00  0.00    +0.000 A 
ATOM     32 CL   UNL     1       3.801   1.097  18.369  0.00  0.00    +0.000 Cl
ATOM     33  C   UNL     1       3.142   3.717  18.374  0.00  0.00    +0.000 A 
ENDBRANCH  26  27
ENDBRANCH  24  26
ENDBRANCH  21  22
ENDBRANCH   1  21
TORSDOF 7
ENDMDL
MODEL 4
REMARK VINA RESULT:      -7.6      0.933      1.499
REMARK  Name = 
REMARK  8 active torsions:
REMARK  status: ('A' for Active; 'I' for Inactive)
REMARK    1  A    between atoms: C_1  and  C_2
REMARK    2  A    between atoms: C_2  and  N_3
REMARK    3  A    between atoms: C_2  and  C_21
REMARK    4  A    between atoms: C_4  and  C_6
REMARK    5  A    between atoms: N_9  and  S_10
REMARK    6  A    between atoms: S_10  and  C_13
REMARK    7  A    between atoms: N_23  and  C_24
REMARK    8  A    between atoms: C_24  and  C_25
REMARK                            x       y       z     vdW  Elec       q    Type
REMARK                         _______ _______ _______ _____ _____    ______ ____
ROOT
ATOM      1  N   UNL     1       0.197  11.081  20.325  0.00  0.00    +0.000 N 
ATOM      2  C   UNL     1       0.698  12.312  20.663  0.00  0.00    +0.000 C 
ATOM      3  O   UNL     1       1.669  12.451  21.400  0.00  0.00    +0.000 OA
ATOM      4  H   UNL     1      -0.426  10.995  19.527  0.00  0.00    +0.000 HD
ENDROOT
BRANCH   2   5
ATOM      5  C   UNL     1      -0.075  13.492  20.054  0.00  0.00    +0.000 C 
ATOM      6  C   UNL     1      -1.577  13.455  20.359  0.00  0.00    +0.000 C 
ATOM      7  C   UNL     1      -2.282  12.286  19.676  0.00  0.00    +0.000 C 
ATOM      8  N   UNL     1      -2.029  12.282  18.205  0.00  0.00    +0.000 NA
ATOM      9  C   UNL     1      -0.576  12.351  17.861  0.00  0.00    +0.000 C 
ATOM     10  C   UNL     1       0.094  13.547  18.534  0.00  0.00    +0.000 C 
BRANCH   8  11
ATOM     11  S   UNL     1      -2.796  10.951  17.398  0.00  0.00    +0.000 S 
ATOM     12  O   UNL     1      -2.595  11.112  15.977  0.00  0.00    +0.000 OA
ATOM     13  O   UNL     1      -2.384   9.737  18.074  0.00  0.00    +0.000 OA
BRANCH  11  14
ATOM     14  C   UNL     1      -4.522  11.217  17.718  0.00  0.00    +0.000 A 
ATOM     15  C   UNL     1      -5.168  12.280  17.079  0.00  0.00    +0.000 A 
ATOM     16  C   UNL     1      -6.529  12.486  17.298  0.00  0.00    +0.000 A 
ATOM     17  C   UNL     1      -7.240  11.627  18.139  0.00  0.00    +0.000 A 
ATOM     18  C   UNL     1      -6.593  10.558  18.764  0.00  0.00    +0.000 A 
ATOM     19  C   UNL     1      -5.229  10.348  18.554  0.00  0.00    +0.000 A 
ENDBRANCH  11  14
ENDBRANCH   8  11
ENDBRANCH   2   5
BRANCH   1  21
ATOM     20  C   UNL     1      -0.359   9.051  21.588  0.00  0.00    +0.000 C 
ATOM     21  C   UNL     1       0.731   9.822  20.849  0.00  0.00    +0.000 C 
BRANCH  21  22
ATOM     22  C   UNL     1       1.278   9.000  19.660  0.00  0.00    +0.000 C 
ATOM     23  O   UNL     1       1.179   9.404  18.500  0.00  0.00    +0.000 OA
ATOM     24  N   UNL     1       1.882   7.809  19.992  0.00  0.00    +0.000 N 
ATOM     25  H   UNL     1       1.983   7.549  20.964  0.00  0.00    +0.000 HD
BRANCH  24  26
ATOM     26  C   UNL     1       2.456   6.929  18.998  0.00  0.00    +0.000 C 
BRANCH  26  27
ATOM     27  C   UNL     1       2.277   5.478  19.361  0.00  0.00    +0.000 A 
ATOM     28  C   UNL     1       1.576   5.123  20.525  0.00  0.00    +0.000 A 
ATOM     29  C   UNL     1       1.369   3.781  20.855  0.00  0.00    +0.000 A 
ATOM     30  C   UNL     1       1.868   2.775  20.029  0.00  0.00    +0.000 A 
ATOM     31  C   UNL     1       2.579   3.117  18.880  0.00  0.00    +0.000 A 
ATOM     32 CL   UNL     1       3.189   1.875  17.857  0.00  0.00    +0.000 Cl
ATOM     33  C   UNL     1       2.791   4.457  18.547  0.00  0.00    +0.000 A 
ENDBRANCH  26  27
ENDBRANCH  24  26
ENDBRANCH  21  22
ENDBRANCH   1  21
TORSDOF 7
ENDMDL
MODEL 5
REMARK VINA RESULT:      -7.6      3.084      3.845
REMARK  Name = 
REMARK  8 active torsions:
REMARK  status: ('A' for Active; 'I' for Inactive)
REMARK    1  A    between atoms: C_1  and  C_2
REMARK    2  A    between atoms: C_2  and  N_3
REMARK    3  A    between atoms: C_2  and  C_21
REMARK    4  A    between atoms: C_4  and  C_6
REMARK    5  A    between atoms: N_9  and  S_10
REMARK    6  A    between atoms: S_10  and  C_13
REMARK    7  A    between atoms: N_23  and  C_24
REMARK    8  A    between atoms: C_24  and  C_25
REMARK                            x       y       z     vdW  Elec       q    Type
REMARK                         _______ _______ _______ _____ _____    ______ ____
ROOT
ATOM      1  N   UNL     1       0.087  10.341  20.031  0.00  0.00    +0.000 N 
ATOM      2  C   UNL     1       0.198  11.688  20.259  0.00  0.00    +0.000 C 
ATOM      3  O   UNL     1       0.981  12.158  21.079  0.00  0.00    +0.000 OA
ATOM      4  H   UNL     1      -0.368  10.011  19.185  0.00  0.00    +0.000 HD
ENDROOT
BRANCH   2   5
ATOM      5  C   UNL     1      -0.755  12.547  19.414  0.00  0.00    +0.000 C 
ATOM      6  C   UNL     1      -0.574  14.052  19.638  0.00  0.00    +0.000 C 
ATOM      7  C   UNL     1      -0.989  14.486  21.042  0.00  0.00    +0.000 C 
ATOM      8  N   UNL     1      -2.384  14.057  21.355  0.00  0.00    +0.000 NA
ATOM      9  C   UNL     1      -2.614  12.599  21.117  0.00  0.00    +0.000 C 
ATOM     10  C   UNL     1      -2.219  12.203  19.696  0.00  0.00    +0.000 C 
BRANCH   8  11
ATOM     11  S   UNL     1      -2.881  14.511  22.954  0.00  0.00    +0.000 S 
ATOM     12  O   UNL     1      -2.146  13.705  23.898  0.00  0.00    +0.000 OA
ATOM     13  O   UNL     1      -2.846  15.958  23.025  0.00  0.00    +0.000 OA
BRANCH  11  14
ATOM     14  C   UNL     1      -4.576  13.984  23.021  0.00  0.00    +0.000 A 
ATOM     15  C   UNL     1      -4.945  13.026  23.970  0.00  0.00    +0.000 A 
ATOM     16  C   UNL     1      -6.276  12.622  24.054  0.00  0.00    +0.000 A 
ATOM     17  C   UNL     1      -7.232  13.182  23.204  0.00  0.00    +0.000 A 
ATOM     18  C   UNL     1      -6.861  14.150  22.268  0.00  0.00    +0.000 A 
ATOM     19  C   UNL     1      -5.529  14.556  22.173  0.00  0.00    +0.000 A 
ENDBRANCH  11  14
ENDBRANCH   8  11
ENDBRANCH   2   5
BRANCH   1  21
ATOM     20  C   UNL     1      -0.097   8.478  21.618  0.00  0.00    +0.000 C 
ATOM     21  C   UNL     1       0.845   9.332  20.776  0.00  0.00    +0.000 C 
BRANCH  21  22
ATOM     22  C   UNL     1       1.616   8.463  19.757  0.00  0.00    +0.000 C 
ATOM     23  O   UNL     1       1.680   8.771  18.567  0.00  0.00    +0.000 OA
ATOM     24  N   UNL     1       2.224   7.342  20.277  0.00  0.00    +0.000 N 
ATOM     25  H   UNL     1       2.184   7.162  21.271  0.00  0.00    +0.000 HD
BRANCH  24  26
ATOM     26  C   UNL     1       2.994   6.431  19.460  0.00  0.00    +0.000 C 
BRANCH  26  27
ATOM     27  C   UNL     1       2.589   4.996  19.681  0.00  0.00    +0.000 A 
ATOM     28  C   UNL     1       1.536   4.689  20.558  0.00  0.00    +0.000 A 
ATOM     29  C   UNL     1       1.124   3.367  20.745  0.00  0.00    +0.000 A 
ATOM     30  C   UNL     1       1.766   2.333  20.064  0.00  0.00    +0.000 A 
ATOM     31  C   UNL     1       2.823   2.628  19.205  0.00  0.00    +0.000 A 
ATOM     32 CL   UNL     1       3.610   1.352  18.359  0.00  0.00    +0.000 Cl
ATOM     33  C   UNL     1       3.241   3.946  19.015  0.00  0.00    +0.000 A 
ENDBRANCH  26  27
ENDBRANCH  24  26
ENDBRANCH  21  22
ENDBRANCH   1  21
TORSDOF 7
ENDMDL
MODEL 6
REMARK VINA RESULT:      -7.5      3.534      8.064
REMARK  Name = 
REMARK  8 active torsions:
REMARK  status: ('A' for Active; 'I' for Inactive)
REMARK    1  A    between atoms: C_1  and  C_2
REMARK    2  A    between atoms: C_2  and  N_3
REMARK    3  A    between atoms: C_2  and  C_21
REMARK    4  A    between atoms: C_4  and  C_6
REMARK    5  A    between atoms: N_9  and  S_10
REMARK    6  A    between atoms: S_10  and  C_13
REMARK    7  A    between atoms: N_23  and  C_24
REMARK    8  A    between atoms: C_24  and  C_25
REMARK                            x       y       z     vdW  Elec       q    Type
REMARK                         _______ _______ _______ _____ _____    ______ ____
ROOT
ATOM      1  N   UNL     1      -2.198  12.270  18.968  0.00  0.00    +0.000 N 
ATOM      2  C   UNL     1      -1.070  13.045  18.910  0.00  0.00    +0.000 C 
ATOM      3  O   UNL     1      -0.480  13.277  17.859  0.00  0.00    +0.000 OA
ATOM      4  H   UNL     1      -2.795  12.312  19.789  0.00  0.00    +0.000 HD
ENDROOT
BRANCH   2   5
ATOM      5  C   UNL     1      -0.605  13.579  20.273  0.00  0.00    +0.000 C 
ATOM      6  C   UNL     1       0.884  13.336  20.544  0.00  0.00    +0.000 C 
ATOM      7  C   UNL     1       1.212  11.854  20.706  0.00  0.00    +0.000 C 
ATOM      8  N   UNL     1       0.360  11.219  21.755  0.00  0.00    +0.000 NA
ATOM      9  C   UNL     1      -1.100  11.460  21.548  0.00  0.00    +0.000 C 
ATOM     10  C   UNL     1      -1.400  12.952  21.421  0.00  0.00    +0.000 C 
BRANCH   8  11
ATOM     11  S   UNL     1       0.689   9.526  21.948  0.00  0.00    +0.000 S 
ATOM     12  O   UNL     1       1.816   9.386  22.840  0.00  0.00    +0.000 OA
ATOM     13  O   UNL     1      -0.570   8.868  22.233  0.00  0.00    +0.000 OA
BRANCH  11  14
ATOM     14  C   UNL     1       1.233   9.027  20.332  0.00  0.00    +0.000 A 
ATOM     15  C   UNL     1       1.968   7.844  20.206  0.00  0.00    +0.000 A 
ATOM     16  C   UNL     1       2.379   7.425  18.942  0.00  0.00    +0.000 A 
ATOM     17  C   UNL     1       2.045   8.176  17.813  0.00  0.00    +0.000 A 
ATOM     18  C   UNL     1       1.298   9.349  17.943  0.00  0.00    +0.000 A 
ATOM     19  C   UNL     1       0.887   9.779  19.206  0.00  0.00    +0.000 A 
ENDBRANCH  11  14
ENDBRANCH   8  11
ENDBRANCH   2   5
BRANCH   1  21
ATOM     20  C   UNL     1      -2.293  10.153  17.729  0.00  0.00    +0.000 C 
ATOM     21  C   UNL     1      -2.776  11.598  17.801  0.00  0.00    +0.000 C 
BRANCH  21  22
ATOM     22  C   UNL     1      -4.315  11.661  17.925  0.00  0.00    +0.000 C 
ATOM     23  O   UNL     1      -5.045  11.560  16.937  0.00  0.00    +0.000 OA
ATOM     24  N   UNL     1      -4.799  11.825  19.203  0.00  0.00    +0.000 N 
ATOM     25  H   UNL     1      -4.158  11.851  19.985  0.00  0.00    +0.000 HD
BRANCH  24  26
ATOM     26  C   UNL     1      -6.214  11.891  19.492  0.00  0.00    +0.000 C 
BRANCH  26  27
ATOM     27  C   UNL     1      -6.479  12.175  20.948  0.00  0.00    +0.000 A 
ATOM     28  C   UNL     1      -7.673  11.740  21.545  0.00  0.00    +0.000 A 
ATOM     29  C   UNL     1      -7.916  11.963  22.903  0.00  0.00    +0.000 A 
ATOM     30  C   UNL     1      -6.972  12.633  23.680  0.00  0.00    +0.000 A 
ATOM     31  C   UNL     1      -5.792  13.083  23.092  0.00  0.00    +0.000 A 
ATOM     32 CL   UNL     1      -4.623  13.904  24.053  0.00  0.00    +0.000 Cl
ATOM     33  C   UNL     1      -5.544  12.866  21.735  0.00  0.00    +0.000 A 
ENDBRANCH  26  27
ENDBRANCH  24  26
ENDBRANCH  21  22
ENDBRANCH   1  21
TORSDOF 7
ENDMDL
MODEL 7
REMARK VINA RESULT:      -7.4      4.472      9.531
REMARK  Name = 
REMARK  8 active torsions:
REMARK  status: ('A' for Active; 'I' for Inactive)
REMARK    1  A    between atoms: C_1  and  C_2
REMARK    2  A    between atoms: C_2  and  N_3
REMARK    3  A    between atoms: C_2  and  C_21
REMARK    4  A    between atoms: C_4  and  C_6
REMARK    5  A    between atoms: N_9  and  S_10
REMARK    6  A    between atoms: S_10  and  C_13
REMARK    7  A    between atoms: N_23  and  C_24
REMARK    8  A    between atoms: C_24  and  C_25
REMARK                            x       y       z     vdW  Elec       q    Type
REMARK                         _______ _______ _______ _____ _____    ______ ____
ROOT
ATOM      1  N   UNL     1       1.482   6.533  19.502  0.00  0.00    +0.000 N 
ATOM      2  C   UNL     1       1.597   5.739  20.613  0.00  0.00    +0.000 C 
ATOM      3  O   UNL     1       2.274   6.056  21.586  0.00  0.00    +0.000 OA
ATOM      4  H   UNL     1       0.728   6.367  18.842  0.00  0.00    +0.000 HD
ENDROOT
BRANCH   2   5
ATOM      5  C   UNL     1       0.822   4.415  20.520  0.00  0.00    +0.000 C 
ATOM      6  C   UNL     1       1.415   3.303  21.394  0.00  0.00    +0.000 C 
ATOM      7  C   UNL     1       2.788   2.849  20.906  0.00  0.00    +0.000 C 
ATOM      8  N   UNL     1       2.750   2.446  19.469  0.00  0.00    +0.000 NA
ATOM      9  C   UNL     1       2.148   3.489  18.585  0.00  0.00    +0.000 C 
ATOM     10  C   UNL     1       0.763   3.900  19.081  0.00  0.00    +0.000 C 
BRANCH   8  11
ATOM     11  S   UNL     1       4.301   1.947  18.873  0.00  0.00    +0.000 S 
ATOM     12  O   UNL     1       5.132   1.615  20.007  0.00  0.00    +0.000 OA
ATOM     13  O   UNL     1       4.072   0.986  17.813  0.00  0.00    +0.000 OA
BRANCH  11  14
ATOM     14  C   UNL     1       4.961   3.432  18.156  0.00  0.00    +0.000 A 
ATOM     15  C   UNL     1       4.868   3.608  16.772  0.00  0.00    +0.000 A 
ATOM     16  C   UNL     1       5.357   4.780  16.197  0.00  0.00    +0.000 A 
ATOM     17  C   UNL     1       5.921   5.772  17.001  0.00  0.00    +0.000 A 
ATOM     18  C   UNL     1       5.998   5.597  18.385  0.00  0.00    +0.000 A 
ATOM     19  C   UNL     1       5.516   4.424  18.969  0.00  0.00    +0.000 A 
ENDBRANCH  11  14
ENDBRANCH   8  11
ENDBRANCH   2   5
BRANCH   1  21
ATOM     20  C   UNL     1       2.563   8.023  17.878  0.00  0.00    +0.000 C 
ATOM     21  C   UNL     1       2.194   7.804  19.342  0.00  0.00    +0.000 C 
BRANCH  21  22
ATOM     22  C   UNL     1       1.276   8.935  19.855  0.00  0.00    +0.000 C 
ATOM     23  O   UNL     1       1.114   9.136  21.060  0.00  0.00    +0.000 OA
ATOM     24  N   UNL     1       0.671   9.694  18.879  0.00  0.00    +0.000 N 
ATOM     25  H   UNL     1       0.878   9.520  17.905  0.00  0.00    +0.000 HD
BRANCH  24  26
ATOM     26  C   UNL     1      -0.208  10.799  19.192  0.00  0.00    +0.000 C 
BRANCH  26  27
ATOM     27  C   UNL     1      -1.476  10.757  18.379  0.00  0.00    +0.000 A 
ATOM     28  C   UNL     1      -1.539   9.981  17.211  0.00  0.00    +0.000 A 
ATOM     29  C   UNL     1      -2.719   9.902  16.466  0.00  0.00    +0.000 A 
ATOM     30  C   UNL     1      -3.850  10.607  16.875  0.00  0.00    +0.000 A 
ATOM     31  C   UNL     1      -3.792  11.394  18.024  0.00  0.00    +0.000 A 
ATOM     32 CL   UNL     1      -5.191  12.259  18.533  0.00  0.00    +0.000 Cl
ATOM     33  C   UNL     1      -2.615  11.478  18.771  0.00  0.00    +0.000 A 
ENDBRANCH  26  27
ENDBRANCH  24  26
ENDBRANCH  21  22
ENDBRANCH   1  21
TORSDOF 7
ENDMDL
MODEL 8
REMARK VINA RESULT:      -7.4      3.894      6.377
REMARK  Name = 
REMARK  8 active torsions:
REMARK  status: ('A' for Active; 'I' for Inactive)
REMARK    1  A    between atoms: C_1  and  C_2
REMARK    2  A    between atoms: C_2  and  N_3
REMARK    3  A    between atoms: C_2  and  C_21
REMARK    4  A    between atoms: C_4  and  C_6
REMARK    5  A    between atoms: N_9  and  S_10
REMARK    6  A    between atoms: S_10  and  C_13
REMARK    7  A    between atoms: N_23  and  C_24
REMARK    8  A    between atoms: C_24  and  C_25
REMARK                            x       y       z     vdW  Elec       q    Type
REMARK                         _______ _______ _______ _____ _____    ______ ____
ROOT
ATOM      1  N   UNL     1      -4.439  12.143  18.446  0.00  0.00    +0.000 N 
ATOM      2  C   UNL     1      -5.760  11.826  18.625  0.00  0.00    +0.000 C 
ATOM      3  O   UNL     1      -6.212  10.711  18.379  0.00  0.00    +0.000 OA
ATOM      4  H   UNL     1      -4.056  12.971  18.894  0.00  0.00    +0.000 HD
ENDROOT
BRANCH   2   5
ATOM      5  C   UNL     1      -6.621  12.990  19.139  0.00  0.00    +0.000 C 
ATOM      6  C   UNL     1      -5.794  14.181  19.636  0.00  0.00    +0.000 C 
ATOM      7  C   UNL     1      -4.998  13.853  20.896  0.00  0.00    +0.000 C 
ATOM      8  N   UNL     1      -5.881  13.320  21.975  0.00  0.00    +0.000 NA
ATOM      9  C   UNL     1      -6.731  12.177  21.525  0.00  0.00    +0.000 C 
ATOM     10  C   UNL     1      -7.538  12.546  20.281  0.00  0.00    +0.000 C 
BRANCH   8  11
ATOM     11  S   UNL     1      -5.005  12.912  23.416  0.00  0.00    +0.000 S 
ATOM     12  O   UNL     1      -5.923  12.284  24.337  0.00  0.00    +0.000 OA
ATOM     13  O   UNL     1      -3.785  12.243  23.009  0.00  0.00    +0.000 OA
BRANCH  11  14
ATOM     14  C   UNL     1      -4.578  14.496  24.099  0.00  0.00    +0.000 A 
ATOM     15  C   UNL     1      -3.294  14.678  24.622  0.00  0.00    +0.000 A 
ATOM     16  C   UNL     1      -2.935  15.923  25.136  0.00  0.00    +0.000 A 
ATOM     17  C   UNL     1      -3.848  16.979  25.114  0.00  0.00    +0.000 A 
ATOM     18  C   UNL     1      -5.124  16.795  24.577  0.00  0.00    +0.000 A 
ATOM     19  C   UNL     1      -5.494  15.550  24.065  0.00  0.00    +0.000 A 
ENDBRANCH  11  14
ENDBRANCH   8  11
ENDBRANCH   2   5
BRANCH   1  21
ATOM     20  C   UNL     1      -3.484  11.246  16.370  0.00  0.00    +0.000 C 
ATOM     21  C   UNL     1      -3.453  11.210  17.894  0.00  0.00    +0.000 C 
BRANCH  21  22
ATOM     22  C   UNL     1      -2.060  11.614  18.428  0.00  0.00    +0.000 C 
ATOM     23  O   UNL     1      -1.898  12.640  19.090  0.00  0.00    +0.000 OA
ATOM     24  N   UNL     1      -1.035  10.749  18.120  0.00  0.00    +0.000 N 
ATOM     25  H   UNL     1      -1.232   9.893  17.617  0.00  0.00    +0.000 HD
BRANCH  24  26
ATOM     26  C   UNL     1       0.326  10.975  18.554  0.00  0.00    +0.000 C 
BRANCH  26  27
ATOM     27  C   UNL     1       0.966   9.715  19.078  0.00  0.00    +0.000 A 
ATOM     28  C   UNL     1       0.703   9.284  20.388  0.00  0.00    +0.000 A 
ATOM     29  C   UNL     1       1.259   8.098  20.876  0.00  0.00    +0.000 A 
ATOM     30  C   UNL     1       2.093   7.333  20.063  0.00  0.00    +0.000 A 
ATOM     31  C   UNL     1       2.374   7.762  18.767  0.00  0.00    +0.000 A 
ATOM     32 CL   UNL     1       3.398   6.813  17.761  0.00  0.00    +0.000 Cl
ATOM     33  C   UNL     1       1.823   8.947  18.275  0.00  0.00    +0.000 A 
ENDBRANCH  26  27
ENDBRANCH  24  26
ENDBRANCH  21  22
ENDBRANCH   1  21
TORSDOF 7
ENDMDL
MODEL 9
REMARK VINA RESULT:      -7.3      5.186     10.320
REMARK  Name = 
REMARK  8 active torsions:
REMARK  status: ('A' for Active; 'I' for Inactive)
REMARK    1  A    between atoms: C_1  and  C_2
REMARK    2  A    between atoms: C_2  and  N_3
REMARK    3  A    between atoms: C_2  and  C_21
REMARK    4  A    between atoms: C_4  and  C_6
REMARK    5  A    between atoms: N_9  and  S_10
REMARK    6  A    between atoms: S_10  and  C_13
REMARK    7  A    between atoms: N_23  and  C_24
REMARK    8  A    between atoms: C_24  and  C_25
REMARK                            x       y       z     vdW  Elec       q    Type
REMARK                         _______ _______ _______ _____ _____    ______ ____
ROOT
ATOM      1  N   UNL     1       2.836   5.763  19.265  0.00  0.00    +0.000 N 
ATOM      2  C   UNL     1       2.522   4.504  18.824  0.00  0.00    +0.000 C 
ATOM      3  O   UNL     1       1.387   4.187  18.482  0.00  0.00    +0.000 OA
ATOM      4  H   UNL     1       3.808   6.058  19.290  0.00  0.00    +0.000 HD
ENDROOT
BRANCH   2   5
ATOM      5  C   UNL     1       3.709   3.528  18.815  0.00  0.00    +0.000 C 
ATOM      6  C   UNL     1       5.020   4.164  19.292  0.00  0.00    +0.000 C 
ATOM      7  C   UNL     1       5.535   5.229  18.328  0.00  0.00    +0.000 C 
ATOM      8  N   UNL     1       5.668   4.690  16.942  0.00  0.00    +0.000 NA
ATOM      9  C   UNL     1       4.422   4.031  16.448  0.00  0.00    +0.000 C 
ATOM     10  C   UNL     1       3.949   2.950  17.419  0.00  0.00    +0.000 C 
BRANCH   8  11
ATOM     11  S   UNL     1       6.229   5.882  15.812  0.00  0.00    +0.000 S 
ATOM     12  O   UNL     1       5.155   6.819  15.578  0.00  0.00    +0.000 OA
ATOM     13  O   UNL     1       7.527   6.338  16.268  0.00  0.00    +0.000 OA
BRANCH  11  14
ATOM     14  C   UNL     1       6.451   4.954  14.314  0.00  0.00    +0.000 A 
ATOM     15  C   UNL     1       5.459   4.046  13.933  0.00  0.00    +0.000 A 
ATOM     16  C   UNL     1       5.606   3.330  12.746  0.00  0.00    +0.000 A 
ATOM     17  C   UNL     1       6.729   3.532  11.941  0.00  0.00    +0.000 A 
ATOM     18  C   UNL     1       7.709   4.451  12.319  0.00  0.00    +0.000 A 
ATOM     19  C   UNL     1       7.573   5.168  13.509  0.00  0.00    +0.000 A 
ENDBRANCH  11  14
ENDBRANCH   8  11
ENDBRANCH   2   5
BRANCH   1  21
ATOM     20  C   UNL     1       1.738   7.237  20.892  0.00  0.00    +0.000 C 
ATOM     21  C   UNL     1       1.846   6.831  19.425  0.00  0.00    +0.000 C 
BRANCH  21  22
ATOM     22  C   UNL     1       2.288   8.028  18.553  0.00  0.00    +0.000 C 
ATOM     23  O   UNL     1       3.167   7.911  17.698  0.00  0.00    +0.000 OA
ATOM     24  N   UNL     1       1.627   9.211  18.794  0.00  0.00    +0.000 N 
ATOM     25  H   UNL     1       0.876   9.240  19.471  0.00  0.00    +0.000 HD
BRANCH  24  26
ATOM     26  C   UNL     1       1.912  10.421  18.056  0.00  0.00    +0.000 C 
BRANCH  26  27
ATOM     27  C   UNL     1       1.580  11.657  18.851  0.00  0.00    +0.000 A 
ATOM     28  C   UNL     1       0.988  11.542  20.119  0.00  0.00    +0.000 A 
ATOM     29  C   UNL     1       0.709  12.677  20.885  0.00  0.00    +0.000 A 
ATOM     30  C   UNL     1       1.010  13.944  20.388  0.00  0.00    +0.000 A 
ATOM     31  C   UNL     1       1.582  14.070  19.123  0.00  0.00    +0.000 A 
ATOM     32 CL   UNL     1       1.960  15.634  18.513  0.00  0.00    +0.000 Cl
ATOM     33  C   UNL     1       1.861  12.939  18.352  0.00  0.00    +0.000 A 
ENDBRANCH  26  27
ENDBRANCH  24  26
ENDBRANCH  21  22
ENDBRANCH   1  21
TORSDOF 7
ENDMDL
