MODEL 1
REMARK VINA RESULT:      -7.8      0.000      0.000
REMARK  Name = 
REMARK  3 active torsions:
REMARK  status: ('A' for Active; 'I' for Inactive)
REMARK    1  A    between atoms: C_4  and  O_5
REMARK    2  A    between atoms: C_6  and  C_7
REMARK    3  A    between atoms: C_10  and  C_11
REMARK                            x       y       z     vdW  Elec       q    Type
REMARK                         _______ _______ _______ _____ _____    ______ ____
ROOT
ATOM      1  C   UNL     1       1.282   9.281  19.276  0.00  0.00    +0.000 A 
ATOM      2  C   UNL     1       1.485   8.191  20.128  0.00  0.00    +0.000 A 
ATOM      3  C   UNL     1       2.282   7.116  19.716  0.00  0.00    +0.000 A 
ATOM      4  C   UNL     1       2.875   7.111  18.442  0.00  0.00    +0.000 A 
ATOM      5  C   UNL     1       2.622   8.180  17.581  0.00  0.00    +0.000 A 
ATOM      6  C   UNL     1       1.873   9.279  18.009  0.00  0.00    +0.000 A 
ENDROOT
BRANCH   4   7
ATOM      7  C   UNL     1       3.642   5.902  18.029  0.00  0.00    +0.000 C 
ATOM      8  O   UNL     1       4.863   6.036  17.928  0.00  0.00    +0.000 OA
ATOM      9  N   UNL     1       3.019   4.681  17.794  0.00  0.00    +0.000 N 
ATOM     10  C   UNL     1       1.588   4.377  17.671  0.00  0.00    +0.000 C 
ATOM     11  C   UNL     1       1.222   3.262  18.662  0.00  0.00    +0.000 C 
ATOM     12  O   UNL     1       2.020   2.089  18.428  0.00  0.00    +0.000 OA
ATOM     13  C   UNL     1       3.425   2.382  18.552  0.00  0.00    +0.000 C 
ATOM     14  C   UNL     1       3.852   3.493  17.585  0.00  0.00    +0.000 C 
ENDBRANCH   4   7
BRANCH   1  19
ATOM     15  O   UNL     1      -2.235  12.535  19.698  0.00  0.00    +0.000 OA
ATOM     16  C   UNL     1      -1.202  11.921  19.885  0.00  0.00    +0.000 C 
ATOM     17  O   UNL     1      -0.303  12.207  20.872  0.00  0.00    +0.000 OA
ATOM     18  C   UNL     1       0.781  11.295  20.780  0.00  0.00    +0.000 C 
ATOM     19  C   UNL     1       0.424  10.390  19.667  0.00  0.00    +0.000 C 
ATOM     20  C   UNL     1      -0.735  10.754  19.121  0.00  0.00    +0.000 C 
ATOM     21 BR   UNL     1      -1.664  10.021  17.721  0.00  0.00    +0.000 Br
BRANCH  18  22
ATOM     22  O   UNL     1       0.942  10.611  22.007  0.00  0.00    +0.000 OA
ATOM     23  H   UNL     1       1.179   9.693  21.807  0.00  0.00    +0.000 HD
ENDBRANCH  18  22
ENDBRANCH   1  19
TORSDOF 3
ENDMDL
MODEL 2
REMARK VINA RESULT:      -7.8      0.220      1.051
REMARK  Name = 
REMARK  3 active torsions:
REMARK  status: ('A' for Active; 'I' for Inactive)
REMARK    1  A    between atoms: C_4  and  O_5
REMARK    2  A    between atoms: C_6  and  C_7
REMARK    3  A    between atoms: C_10  and  C_11
REMARK                            x       y       z     vdW  Elec       q    Type
REMARK                         _______ _______ _______ _____ _____    ______ ____
ROOT
ATOM      1  C   UNL     1       1.225   9.307  19.296  0.00  0.00    +0.000 A 
ATOM      2  C   UNL     1       1.806   9.221  18.027  0.00  0.00    +0.000 A 
ATOM      3  C   UNL     1       2.547   8.088  17.669  0.00  0.00    +0.000 A 
ATOM      4  C   UNL     1       2.730   7.034  18.580  0.00  0.00    +0.000 A 
ATOM      5  C   UNL     1       2.190   7.155  19.862  0.00  0.00    +0.000 A 
ATOM      6  C   UNL     1       1.403   8.258  20.203  0.00  0.00    +0.000 A 
ENDROOT
BRANCH   4   7
ATOM      7  C   UNL     1       3.599   5.894  18.171  0.00  0.00    +0.000 C 
ATOM      8  O   UNL     1       4.810   6.117  18.132  0.00  0.00    +0.000 OA
ATOM      9  N   UNL     1       3.075   4.641  17.873  0.00  0.00    +0.000 N 
ATOM     10  C   UNL     1       1.676   4.242  17.674  0.00  0.00    +0.000 C 
ATOM     11  C   UNL     1       1.346   3.075  18.615  0.00  0.00    +0.000 C 
ATOM     12  O   UNL     1       2.235   1.968  18.387  0.00  0.00    +0.000 OA
ATOM     13  C   UNL     1       3.608   2.354  18.587  0.00  0.00    +0.000 C 
ATOM     14  C   UNL     1       4.000   3.521  17.671  0.00  0.00    +0.000 C 
ENDBRANCH   4   7
BRANCH   1  19
ATOM     15  O   UNL     1      -1.975  12.860  19.816  0.00  0.00    +0.000 OA
ATOM     16  C   UNL     1      -0.990  12.162  19.967  0.00  0.00    +0.000 C 
ATOM     17  O   UNL     1      -0.024  12.384  20.905  0.00  0.00    +0.000 OA
ATOM     18  C   UNL     1       0.972  11.380  20.781  0.00  0.00    +0.000 C 
ATOM     19  C   UNL     1       0.485  10.492  19.705  0.00  0.00    +0.000 C 
ATOM     20  C   UNL     1      -0.663  10.947  19.205  0.00  0.00    +0.000 C 
ATOM     21 BR   UNL     1      -1.718  10.275  17.865  0.00  0.00    +0.000 Br
BRANCH  18  22
ATOM     22  O   UNL     1       1.132  10.705  22.012  0.00  0.00    +0.000 OA
ATOM     23  H   UNL     1       1.862  11.127  22.491  0.00  0.00    +0.000 HD
ENDBRANCH  18  22
ENDBRANCH   1  19
TORSDOF 3
ENDMDL
MODEL 3
REMARK VINA RESULT:      -7.5      1.826      2.316
REMARK  Name = 
REMARK  3 active torsions:
REMARK  status: ('A' for Active; 'I' for Inactive)
REMARK    1  A    between atoms: C_4  and  O_5
REMARK    2  A    between atoms: C_6  and  C_7
REMARK    3  A    between atoms: C_10  and  C_11
REMARK                            x       y       z     vdW  Elec       q    Type
REMARK                         _______ _______ _______ _____ _____    ______ ____
ROOT
ATOM      1  C   UNL     1       0.992   9.540  18.970  0.00  0.00    +0.000 A 
ATOM      2  C   UNL     1       1.624   9.035  17.829  0.00  0.00    +0.000 A 
ATOM      3  C   UNL     1       2.354   7.843  17.901  0.00  0.00    +0.000 A 
ATOM      4  C   UNL     1       2.475   7.148  19.116  0.00  0.00    +0.000 A 
ATOM      5  C   UNL     1       1.884   7.690  20.260  0.00  0.00    +0.000 A 
ATOM      6  C   UNL     1       1.109   8.849  20.180  0.00  0.00    +0.000 A 
ENDROOT
BRANCH   4   7
ATOM      7  C   UNL     1       3.335   5.931  19.148  0.00  0.00    +0.000 C 
ATOM      8  O   UNL     1       4.553   6.122  19.150  0.00  0.00    +0.000 OA
ATOM      9  N   UNL     1       2.795   4.650  19.198  0.00  0.00    +0.000 N 
ATOM     10  C   UNL     1       1.404   4.221  19.008  0.00  0.00    +0.000 C 
ATOM     11  C   UNL     1       0.959   3.398  20.225  0.00  0.00    +0.000 C 
ATOM     12  O   UNL     1       1.825   2.267  20.420  0.00  0.00    +0.000 OA
ATOM     13  C   UNL     1       3.190   2.685  20.613  0.00  0.00    +0.000 C 
ATOM     14  C   UNL     1       3.694   3.515  19.425  0.00  0.00    +0.000 C 
ENDBRANCH   4   7
BRANCH   1  19
ATOM     15  O   UNL     1      -0.361  14.137  18.559  0.00  0.00    +0.000 OA
ATOM     16  C   UNL     1      -0.396  12.936  18.745  0.00  0.00    +0.000 C 
ATOM     17  O   UNL     1      -1.531  12.232  19.025  0.00  0.00    +0.000 OA
ATOM     18  C   UNL     1      -1.192  10.864  19.190  0.00  0.00    +0.000 C 
ATOM     19  C   UNL     1       0.262  10.799  18.928  0.00  0.00    +0.000 C 
ATOM     20  C   UNL     1       0.748  12.013  18.678  0.00  0.00    +0.000 C 
ATOM     21 BR   UNL     1       2.459  12.547  18.297  0.00  0.00    +0.000 Br
BRANCH  18  22
ATOM     22  O   UNL     1      -1.941  10.068  18.294  0.00  0.00    +0.000 OA
ATOM     23  H   UNL     1      -1.636   9.153  18.382  0.00  0.00    +0.000 HD
ENDBRANCH  18  22
ENDBRANCH   1  19
TORSDOF 3
ENDMDL
MODEL 4
REMARK VINA RESULT:      -7.5      2.031      2.286
REMARK  Name = 
REMARK  3 active torsions:
REMARK  status: ('A' for Active; 'I' for Inactive)
REMARK    1  A    between atoms: C_4  and  O_5
REMARK    2  A    between atoms: C_6  and  C_7
REMARK    3  A    between atoms: C_10  and  C_11
REMARK                            x       y       z     vdW  Elec       q    Type
REMARK                         _______ _______ _______ _____ _____    ______ ____
ROOT
ATOM      1  C   UNL     1       1.125   9.440  18.855  0.00  0.00    +0.000 A 
ATOM      2  C   UNL     1       1.172   8.754  20.073  0.00  0.00    +0.000 A 
ATOM      3  C   UNL     1       1.963   7.607  20.201  0.00  0.00    +0.000 A 
ATOM      4  C   UNL     1       2.704   7.120  19.111  0.00  0.00    +0.000 A 
ATOM      5  C   UNL     1       2.607   7.783  17.886  0.00  0.00    +0.000 A 
ATOM      6  C   UNL     1       1.864   8.960  17.769  0.00  0.00    +0.000 A 
ENDROOT
BRANCH   4   7
ATOM      7  C   UNL     1       3.459   5.847  19.286  0.00  0.00    +0.000 C 
ATOM      8  O   UNL     1       4.683   5.947  19.393  0.00  0.00    +0.000 OA
ATOM      9  N   UNL     1       2.817   4.615  19.351  0.00  0.00    +0.000 N 
ATOM     10  C   UNL     1       1.419   4.280  19.052  0.00  0.00    +0.000 C 
ATOM     11  C   UNL     1       0.803   3.564  20.262  0.00  0.00    +0.000 C 
ATOM     12  O   UNL     1       1.556   2.385  20.597  0.00  0.00    +0.000 OA
ATOM     13  C   UNL     1       2.926   2.711  20.895  0.00  0.00    +0.000 C 
ATOM     14  C   UNL     1       3.599   3.432  19.720  0.00  0.00    +0.000 C 
ENDBRANCH   4   7
BRANCH   1  19
ATOM     15  O   UNL     1      -0.679  13.889  18.557  0.00  0.00    +0.000 OA
ATOM     16  C   UNL     1      -0.590  12.676  18.542  0.00  0.00    +0.000 C 
ATOM     17  O   UNL     1      -1.612  11.832  18.216  0.00  0.00    +0.000 OA
ATOM     18  C   UNL     1      -1.149  10.494  18.317  0.00  0.00    +0.000 C 
ATOM     19  C   UNL     1       0.278  10.612  18.685  0.00  0.00    +0.000 C 
ATOM     20  C   UNL     1       0.619  11.891  18.835  0.00  0.00    +0.000 C 
ATOM     21 BR   UNL     1       2.229  12.640  19.288  0.00  0.00    +0.000 Br
BRANCH  18  22
ATOM     22  O   UNL     1      -1.339   9.824  17.087  0.00  0.00    +0.000 OA
ATOM     23  H   UNL     1      -0.691   9.104  17.037  0.00  0.00    +0.000 HD
ENDBRANCH  18  22
ENDBRANCH   1  19
TORSDOF 3
ENDMDL
MODEL 5
REMARK VINA RESULT:      -7.3      3.109      7.776
REMARK  Name = 
REMARK  3 active torsions:
REMARK  status: ('A' for Active; 'I' for Inactive)
REMARK    1  A    between atoms: C_4  and  O_5
REMARK    2  A    between atoms: C_6  and  C_7
REMARK    3  A    between atoms: C_10  and  C_11
REMARK                            x       y       z     vdW  Elec       q    Type
REMARK                         _______ _______ _______ _____ _____    ______ ____
ROOT
ATOM      1  C   UNL     1       2.151   5.411  19.225  0.00  0.00    +0.000 A 
ATOM      2  C   UNL     1       2.340   6.354  18.209  0.00  0.00    +0.000 A 
ATOM      3  C   UNL     1       2.097   7.710  18.455  0.00  0.00    +0.000 A 
ATOM      4  C   UNL     1       1.647   8.141  19.715  0.00  0.00    +0.000 A 
ATOM      5  C   UNL     1       1.410   7.185  20.705  0.00  0.00    +0.000 A 
ATOM      6  C   UNL     1       1.705   5.838  20.480  0.00  0.00    +0.000 A 
ENDROOT
BRANCH   4   7
ATOM      7  C   UNL     1       1.324   9.585  19.890  0.00  0.00    +0.000 C 
ATOM      8  O   UNL     1       1.303  10.269  18.866  0.00  0.00    +0.000 OA
ATOM      9  N   UNL     1       1.037  10.128  21.138  0.00  0.00    +0.000 N 
ATOM     10  C   UNL     1       1.201   9.532  22.470  0.00  0.00    +0.000 C 
ATOM     11  C   UNL     1      -0.137   9.598  23.220  0.00  0.00    +0.000 C 
ATOM     12  O   UNL     1      -0.602  10.955  23.317  0.00  0.00    +0.000 OA
ATOM     13  C   UNL     1      -0.770  11.541  22.011  0.00  0.00    +0.000 C 
ATOM     14  C   UNL     1       0.538  11.504  21.210  0.00  0.00    +0.000 C 
ENDBRANCH   4   7
BRANCH   1  19
ATOM     15  O   UNL     1       3.972   1.028  18.446  0.00  0.00    +0.000 OA
ATOM     16  C   UNL     1       3.181   1.936  18.614  0.00  0.00    +0.000 C 
ATOM     17  O   UNL     1       1.826   1.779  18.661  0.00  0.00    +0.000 OA
ATOM     18  C   UNL     1       1.225   3.050  18.859  0.00  0.00    +0.000 C 
ATOM     19  C   UNL     1       2.358   3.991  18.980  0.00  0.00    +0.000 C 
ATOM     20  C   UNL     1       3.516   3.353  18.825  0.00  0.00    +0.000 C 
ATOM     21 BR   UNL     1       5.233   3.993  18.865  0.00  0.00    +0.000 Br
BRANCH  18  22
ATOM     22  O   UNL     1       0.412   3.025  20.015  0.00  0.00    +0.000 OA
ATOM     23  H   UNL     1       0.190   3.941  20.242  0.00  0.00    +0.000 HD
ENDBRANCH  18  22
ENDBRANCH   1  19
TORSDOF 3
ENDMDL
MODEL 6
REMARK VINA RESULT:      -7.3      1.621      2.676
REMARK  Name = 
REMARK  3 active torsions:
REMARK  status: ('A' for Active; 'I' for Inactive)
REMARK    1  A    between atoms: C_4  and  O_5
REMARK    2  A    between atoms: C_6  and  C_7
REMARK    3  A    between atoms: C_10  and  C_11
REMARK                            x       y       z     vdW  Elec       q    Type
REMARK                         _______ _______ _______ _____ _____    ______ ____
ROOT
ATOM      1  C   UNL     1       1.487   8.887  19.440  0.00  0.00    +0.000 A 
ATOM      2  C   UNL     1       1.656   7.726  20.201  0.00  0.00    +0.000 A 
ATOM      3  C   UNL     1       2.367   6.640  19.678  0.00  0.00    +0.000 A 
ATOM      4  C   UNL     1       2.906   6.694  18.381  0.00  0.00    +0.000 A 
ATOM      5  C   UNL     1       2.685   7.838  17.611  0.00  0.00    +0.000 A 
ATOM      6  C   UNL     1       2.025   8.944  18.151  0.00  0.00    +0.000 A 
ENDROOT
BRANCH   4   7
ATOM      7  C   UNL     1       3.578   5.475  17.848  0.00  0.00    +0.000 C 
ATOM      8  O   UNL     1       2.840   4.563  17.471  0.00  0.00    +0.000 OA
ATOM      9  N   UNL     1       4.963   5.381  17.756  0.00  0.00    +0.000 N 
ATOM     10  C   UNL     1       5.993   6.260  18.324  0.00  0.00    +0.000 C 
ATOM     11  C   UNL     1       6.931   6.728  17.202  0.00  0.00    +0.000 C 
ATOM     12  O   UNL     1       7.525   5.604  16.530  0.00  0.00    +0.000 OA
ATOM     13  C   UNL     1       6.517   4.742  15.968  0.00  0.00    +0.000 C 
ATOM     14  C   UNL     1       5.546   4.240  17.044  0.00  0.00    +0.000 C 
ENDBRANCH   4   7
BRANCH   1  19
ATOM     15  O   UNL     1      -1.742  12.372  20.187  0.00  0.00    +0.000 OA
ATOM     16  C   UNL     1      -0.774  11.648  20.319  0.00  0.00    +0.000 C 
ATOM     17  O   UNL     1       0.111  11.724  21.356  0.00  0.00    +0.000 OA
ATOM     18  C   UNL     1       1.113  10.736  21.175  0.00  0.00    +0.000 C 
ATOM     19  C   UNL     1       0.717  10.013  19.948  0.00  0.00    +0.000 C 
ATOM     20  C   UNL     1      -0.385  10.547  19.425  0.00  0.00    +0.000 C 
ATOM     21 BR   UNL     1      -1.325  10.082  17.922  0.00  0.00    +0.000 Br
BRANCH  18  22
ATOM     22  O   UNL     1       1.170   9.893  22.309  0.00  0.00    +0.000 OA
ATOM     23  H   UNL     1       1.424   9.007  22.008  0.00  0.00    +0.000 HD
ENDBRANCH  18  22
ENDBRANCH   1  19
TORSDOF 3
ENDMDL
MODEL 7
REMARK VINA RESULT:      -7.2      2.583      7.424
REMARK  Name = 
REMARK  3 active torsions:
REMARK  status: ('A' for Active; 'I' for Inactive)
REMARK    1  A    between atoms: C_4  and  O_5
REMARK    2  A    between atoms: C_6  and  C_7
REMARK    3  A    between atoms: C_10  and  C_11
REMARK                            x       y       z     vdW  Elec       q    Type
REMARK                         _______ _______ _______ _____ _____    ______ ____
ROOT
ATOM      1  C   UNL     1       2.649   6.432  19.393  0.00  0.00    +0.000 A 
ATOM      2  C   UNL     1       2.033   6.772  20.601  0.00  0.00    +0.000 A 
ATOM      3  C   UNL     1       1.368   7.996  20.730  0.00  0.00    +0.000 A 
ATOM      4  C   UNL     1       1.322   8.904  19.659  0.00  0.00    +0.000 A 
ATOM      5  C   UNL     1       1.986   8.577  18.475  0.00  0.00    +0.000 A 
ATOM      6  C   UNL     1       2.603   7.332  18.324  0.00  0.00    +0.000 A 
ENDROOT
BRANCH   4   7
ATOM      7  C   UNL     1       0.673  10.227  19.884  0.00  0.00    +0.000 C 
ATOM      8  O   UNL     1       1.278  11.016  20.612  0.00  0.00    +0.000 OA
ATOM      9  N   UNL     1      -0.537  10.562  19.287  0.00  0.00    +0.000 N 
ATOM     10  C   UNL     1      -1.486   9.705  18.565  0.00  0.00    +0.000 C 
ATOM     11  C   UNL     1      -1.755  10.307  17.179  0.00  0.00    +0.000 C 
ATOM     12  O   UNL     1      -2.258  11.650  17.293  0.00  0.00    +0.000 OA
ATOM     13  C   UNL     1      -1.327  12.495  17.997  0.00  0.00    +0.000 C 
ATOM     14  C   UNL     1      -1.017  11.943  19.394  0.00  0.00    +0.000 C 
ENDBRANCH   4   7
BRANCH   1  19
ATOM     15  O   UNL     1       3.988   1.855  18.769  0.00  0.00    +0.000 OA
ATOM     16  C   UNL     1       4.034   3.055  18.962  0.00  0.00    +0.000 C 
ATOM     17  O   UNL     1       5.187   3.768  19.109  0.00  0.00    +0.000 OA
ATOM     18  C   UNL     1       4.856   5.131  19.330  0.00  0.00    +0.000 C 
ATOM     19  C   UNL     1       3.382   5.182  19.248  0.00  0.00    +0.000 C 
ATOM     20  C   UNL     1       2.881   3.965  19.046  0.00  0.00    +0.000 C 
ATOM     21 BR   UNL     1       1.141   3.415  18.870  0.00  0.00    +0.000 Br
BRANCH  18  22
ATOM     22  O   UNL     1       5.483   5.944  18.357  0.00  0.00    +0.000 OA
ATOM     23  H   UNL     1       6.390   5.624  18.242  0.00  0.00    +0.000 HD
ENDBRANCH  18  22
ENDBRANCH   1  19
TORSDOF 3
ENDMDL
MODEL 8
REMARK VINA RESULT:      -7.2      1.426      1.972
REMARK  Name = 
REMARK  3 active torsions:
REMARK  status: ('A' for Active; 'I' for Inactive)
REMARK    1  A    between atoms: C_4  and  O_5
REMARK    2  A    between atoms: C_6  and  C_7
REMARK    3  A    between atoms: C_10  and  C_11
REMARK                            x       y       z     vdW  Elec       q    Type
REMARK                         _______ _______ _______ _____ _____    ______ ____
ROOT
ATOM      1  C   UNL     1       1.164   8.946  20.429  0.00  0.00    +0.000 A 
ATOM      2  C   UNL     1       1.481   9.226  19.097  0.00  0.00    +0.000 A 
ATOM      3  C   UNL     1       2.139   8.270  18.315  0.00  0.00    +0.000 A 
ATOM      4  C   UNL     1       2.503   7.026  18.860  0.00  0.00    +0.000 A 
ATOM      5  C   UNL     1       2.228   6.778  20.207  0.00  0.00    +0.000 A 
ATOM      6  C   UNL     1       1.522   7.709  20.973  0.00  0.00    +0.000 A 
ENDROOT
BRANCH   4   7
ATOM      7  C   UNL     1       3.277   6.083  18.004  0.00  0.00    +0.000 C 
ATOM      8  O   UNL     1       4.383   6.470  17.625  0.00  0.00    +0.000 OA
ATOM      9  N   UNL     1       2.788   4.824  17.670  0.00  0.00    +0.000 N 
ATOM     10  C   UNL     1       1.440   4.272  17.856  0.00  0.00    +0.000 C 
ATOM     11  C   UNL     1       1.539   2.951  18.631  0.00  0.00    +0.000 C 
ATOM     12  O   UNL     1       2.389   2.017  17.944  0.00  0.00    +0.000 OA
ATOM     13  C   UNL     1       3.714   2.554  17.765  0.00  0.00    +0.000 C 
ATOM     14  C   UNL     1       3.681   3.879  16.994  0.00  0.00    +0.000 C 
ENDBRANCH   4   7
BRANCH   1  19
ATOM     15  O   UNL     1      -0.858  12.910  22.257  0.00  0.00    +0.000 OA
ATOM     16  C   UNL     1      -0.430  11.776  22.150  0.00  0.00    +0.000 C 
ATOM     17  O   UNL     1      -0.512  10.826  23.126  0.00  0.00    +0.000 OA
ATOM     18  C   UNL     1       0.099   9.635  22.657  0.00  0.00    +0.000 C 
ATOM     19  C   UNL     1       0.516   9.941  21.273  0.00  0.00    +0.000 C 
ATOM     20  C   UNL     1       0.224  11.203  20.964  0.00  0.00    +0.000 C 
ATOM     21 BR   UNL     1       0.507  12.137  19.412  0.00  0.00    +0.000 Br
BRANCH  18  22
ATOM     22  O   UNL     1      -0.819   8.562  22.724  0.00  0.00    +0.000 OA
ATOM     23  H   UNL     1      -0.404   7.789  22.311  0.00  0.00    +0.000 HD
ENDBRANCH  18  22
ENDBRANCH   1  19
TORSDOF 3
ENDMDL
MODEL 9
REMARK VINA RESULT:      -7.2      1.436      1.679
REMARK  Name = 
REMARK  3 active torsions:
REMARK  status: ('A' for Active; 'I' for Inactive)
REMARK    1  A    between atoms: C_4  and  O_5
REMARK    2  A    between atoms: C_6  and  C_7
REMARK    3  A    between atoms: C_10  and  C_11
REMARK                            x       y       z     vdW  Elec       q    Type
REMARK                         _______ _______ _______ _____ _____    ______ ____
ROOT
ATOM      1  C   UNL     1       1.122   9.166  19.494  0.00  0.00    +0.000 A 
ATOM      2  C   UNL     1       1.505   8.133  20.354  0.00  0.00    +0.000 A 
ATOM      3  C   UNL     1       2.335   7.105  19.891  0.00  0.00    +0.000 A 
ATOM      4  C   UNL     1       2.780   7.089  18.558  0.00  0.00    +0.000 A 
ATOM      5  C   UNL     1       2.348   8.098  17.695  0.00  0.00    +0.000 A 
ATOM      6  C   UNL     1       1.566   9.154  18.168  0.00  0.00    +0.000 A 
ENDROOT
BRANCH   4   7
ATOM      7  C   UNL     1       3.591   5.924  18.102  0.00  0.00    +0.000 C 
ATOM      8  O   UNL     1       4.807   6.106  18.012  0.00  0.00    +0.000 OA
ATOM      9  N   UNL     1       3.012   4.692  17.818  0.00  0.00    +0.000 N 
ATOM     10  C   UNL     1       1.593   4.343  17.677  0.00  0.00    +0.000 C 
ATOM     11  C   UNL     1       1.264   3.179  18.622  0.00  0.00    +0.000 C 
ATOM     12  O   UNL     1       2.104   2.044  18.346  0.00  0.00    +0.000 OA
ATOM     13  C   UNL     1       3.497   2.382  18.489  0.00  0.00    +0.000 C 
ATOM     14  C   UNL     1       3.888   3.544  17.566  0.00  0.00    +0.000 C 
ENDBRANCH   4   7
BRANCH   1  19
ATOM     15  O   UNL     1      -1.691  12.138  22.023  0.00  0.00    +0.000 OA
ATOM     16  C   UNL     1      -1.092  11.623  21.097  0.00  0.00    +0.000 C 
ATOM     17  O   UNL     1      -1.093  12.100  19.819  0.00  0.00    +0.000 OA
ATOM     18  C   UNL     1      -0.301  11.243  19.011  0.00  0.00    +0.000 C 
ATOM     19  C   UNL     1       0.226  10.223  19.942  0.00  0.00    +0.000 C 
ATOM     20  C   UNL     1      -0.242  10.426  21.172  0.00  0.00    +0.000 C 
ATOM     21 BR   UNL     1       0.056   9.490  22.720  0.00  0.00    +0.000 Br
BRANCH  18  22
ATOM     22  O   UNL     1       0.724  11.984  18.380  0.00  0.00    +0.000 OA
ATOM     23  H   UNL     1       1.572  11.580  18.617  0.00  0.00    +0.000 HD
ENDBRANCH  18  22
ENDBRANCH   1  19
TORSDOF 3
ENDMDL
