MODEL 1
REMARK VINA RESULT:      -7.5      0.000      0.000
REMARK  Name = 
REMARK  5 active torsions:
REMARK  status: ('A' for Active; 'I' for Inactive)
REMARK    1  A    between atoms: C_1  and  C_2
REMARK    2  A    between atoms: N_4  and  C_5
REMARK    3  A    between atoms: C_8  and  N_9
REMARK    4  A    between atoms: C_16  and  C_17
REMARK    5  A    between atoms: C_17  and  O_19
REMARK                            x       y       z     vdW  Elec       q    Type
REMARK                         _______ _______ _______ _____ _____    ______ ____
ROOT
ATOM      1  C   UNL     1       6.171   4.953  15.376  0.00  0.00    +0.000 A 
ATOM      2  C   UNL     1       4.914   4.389  15.458  0.00  0.00    +0.000 A 
ATOM      3  C   UNL     1       4.292   4.221  16.698  0.00  0.00    +0.000 A 
ATOM      4  C   UNL     1       4.865   4.581  17.940  0.00  0.00    +0.000 A 
ATOM      5  C   UNL     1       6.153   5.174  17.834  0.00  0.00    +0.000 A 
ATOM      6  C   UNL     1       6.792   5.326  16.567  0.00  0.00    +0.000 A 
ENDROOT
BRANCH   4   7
ATOM      7  N   UNL     1       4.096   4.345  19.089  0.00  0.00    +0.000 N 
ATOM      8  C   UNL     1       4.225   3.036  19.758  0.00  0.00    +0.000 C 
ATOM      9  C   UNL     1       3.005   2.157  19.459  0.00  0.00    +0.000 C 
ATOM     10  C   UNL     1       1.751   2.536  20.244  0.00  0.00    +0.000 C 
ATOM     11  C   UNL     1       1.332   3.999  20.110  0.00  0.00    +0.000 C 
ATOM     12  C   UNL     1       2.320   4.958  20.772  0.00  0.00    +0.000 C 
ATOM     13  C   UNL     1       3.486   5.416  19.883  0.00  0.00    +0.000 C 
ENDBRANCH   4   7
BRANCH   1  17
ATOM     14  C   UNL     1       7.690   4.751  11.927  0.00  0.00    +0.000 C 
ATOM     15  C   UNL     1       6.747   4.343  13.023  0.00  0.00    +0.000 C 
ATOM     16  O   UNL     1       5.997   3.385  12.872  0.00  0.00    +0.000 OA
ATOM     17  N   UNL     1       6.843   5.149  14.150  0.00  0.00    +0.000 N 
ATOM     18  H   UNL     1       7.413   5.982  14.065  0.00  0.00    +0.000 HD
ENDBRANCH   1  17
BRANCH   5  19
ATOM     19  C   UNL     1       6.996   5.612  18.986  0.00  0.00    +0.000 C 
ATOM     20  O   UNL     1       7.010   5.087  20.084  0.00  0.00    +0.000 OA
BRANCH  19  21
ATOM     21  O   UNL     1       7.837   6.633  18.674  0.00  0.00    +0.000 OA
ATOM     22  H   UNL     1       7.944   7.313  19.363  0.00  0.00    +0.000 HD
ENDBRANCH  19  21
ENDBRANCH   5  19
TORSDOF 4
ENDMDL
MODEL 2
REMARK VINA RESULT:      -7.4      3.602      7.340
REMARK  Name = 
REMARK  5 active torsions:
REMARK  status: ('A' for Active; 'I' for Inactive)
REMARK    1  A    between atoms: C_1  and  C_2
REMARK    2  A    between atoms: N_4  and  C_5
REMARK    3  A    between atoms: C_8  and  N_9
REMARK    4  A    between atoms: C_16  and  C_17
REMARK    5  A    between atoms: C_17  and  O_19
REMARK                            x       y       z     vdW  Elec       q    Type
REMARK                         _______ _______ _______ _____ _____    ______ ____
ROOT
ATOM      1  C   UNL     1       1.163   7.621  20.687  0.00  0.00    +0.000 A 
ATOM      2  C   UNL     1       2.034   7.967  19.674  0.00  0.00    +0.000 A 
ATOM      3  C   UNL     1       2.829   6.995  19.060  0.00  0.00    +0.000 A 
ATOM      4  C   UNL     1       2.833   5.624  19.407  0.00  0.00    +0.000 A 
ATOM      5  C   UNL     1       1.919   5.285  20.441  0.00  0.00    +0.000 A 
ATOM      6  C   UNL     1       1.124   6.283  21.079  0.00  0.00    +0.000 A 
ENDROOT
BRANCH   4   7
ATOM      7  N   UNL     1       3.693   4.786  18.681  0.00  0.00    +0.000 N 
ATOM      8  C   UNL     1       4.947   4.348  19.324  0.00  0.00    +0.000 C 
ATOM      9  C   UNL     1       6.143   5.115  18.749  0.00  0.00    +0.000 C 
ATOM     10  C   UNL     1       6.583   4.646  17.365  0.00  0.00    +0.000 C 
ATOM     11  C   UNL     1       5.474   4.630  16.314  0.00  0.00    +0.000 C 
ATOM     12  C   UNL     1       4.413   3.567  16.594  0.00  0.00    +0.000 C 
ATOM     13  C   UNL     1       3.265   4.013  17.512  0.00  0.00    +0.000 C 
ENDBRANCH   4   7
BRANCH   1  17
ATOM     14  C   UNL     1      -0.456  10.163  22.959  0.00  0.00    +0.000 C 
ATOM     15  C   UNL     1       0.694   9.366  22.411  0.00  0.00    +0.000 C 
ATOM     16  O   UNL     1       1.811   9.464  22.910  0.00  0.00    +0.000 OA
ATOM     17  N   UNL     1       0.335   8.560  21.339  0.00  0.00    +0.000 N 
ATOM     18  H   UNL     1      -0.595   8.695  20.961  0.00  0.00    +0.000 HD
ENDBRANCH   1  17
BRANCH   5  19
ATOM     19  C   UNL     1       1.747   3.920  21.024  0.00  0.00    +0.000 C 
ATOM     20  O   UNL     1       2.379   3.475  21.964  0.00  0.00    +0.000 OA
BRANCH  19  21
ATOM     21  O   UNL     1       0.734   3.219  20.450  0.00  0.00    +0.000 OA
ATOM     22  H   UNL     1       0.174   2.712  21.065  0.00  0.00    +0.000 HD
ENDBRANCH  19  21
ENDBRANCH   5  19
TORSDOF 4
ENDMDL
MODEL 3
REMARK VINA RESULT:      -7.2      1.160      1.647
REMARK  Name = 
REMARK  5 active torsions:
REMARK  status: ('A' for Active; 'I' for Inactive)
REMARK    1  A    between atoms: C_1  and  C_2
REMARK    2  A    between atoms: N_4  and  C_5
REMARK    3  A    between atoms: C_8  and  N_9
REMARK    4  A    between atoms: C_16  and  C_17
REMARK    5  A    between atoms: C_17  and  O_19
REMARK                            x       y       z     vdW  Elec       q    Type
REMARK                         _______ _______ _______ _____ _____    ______ ____
ROOT
ATOM      1  C   UNL     1       6.446   4.929  15.646  0.00  0.00    +0.000 A 
ATOM      2  C   UNL     1       5.490   3.984  15.331  0.00  0.00    +0.000 A 
ATOM      3  C   UNL     1       4.648   3.470  16.321  0.00  0.00    +0.000 A 
ATOM      4  C   UNL     1       4.695   3.837  17.686  0.00  0.00    +0.000 A 
ATOM      5  C   UNL     1       5.675   4.821  17.988  0.00  0.00    +0.000 A 
ATOM      6  C   UNL     1       6.545   5.329  16.979  0.00  0.00    +0.000 A 
ENDROOT
BRANCH   4   7
ATOM      7  N   UNL     1       3.769   3.223  18.543  0.00  0.00    +0.000 N 
ATOM      8  C   UNL     1       2.436   2.889  18.005  0.00  0.00    +0.000 C 
ATOM      9  C   UNL     1       1.385   3.880  18.516  0.00  0.00    +0.000 C 
ATOM     10  C   UNL     1       0.957   3.651  19.964  0.00  0.00    +0.000 C 
ATOM     11  C   UNL     1       2.107   3.610  20.970  0.00  0.00    +0.000 C 
ATOM     12  C   UNL     1       3.000   2.383  20.793  0.00  0.00    +0.000 C 
ATOM     13  C   UNL     1       4.149   2.548  19.787  0.00  0.00    +0.000 C 
ENDBRANCH   4   7
BRANCH   1  17
ATOM     14  C   UNL     1       8.583   5.771  12.652  0.00  0.00    +0.000 C 
ATOM     15  C   UNL     1       7.480   5.053  13.376  0.00  0.00    +0.000 C 
ATOM     16  O   UNL     1       6.827   4.183  12.808  0.00  0.00    +0.000 OA
ATOM     17  N   UNL     1       7.319   5.484  14.687  0.00  0.00    +0.000 N 
ATOM     18  H   UNL     1       7.846   6.304  14.962  0.00  0.00    +0.000 HD
ENDBRANCH   1  17
BRANCH   5  19
ATOM     19  C   UNL     1       5.962   5.360  19.352  0.00  0.00    +0.000 C 
ATOM     20  O   UNL     1       7.059   5.388  19.877  0.00  0.00    +0.000 OA
BRANCH  19  21
ATOM     21  O   UNL     1       4.871   5.908  19.949  0.00  0.00    +0.000 OA
ATOM     22  H   UNL     1       4.060   5.368  19.917  0.00  0.00    +0.000 HD
ENDBRANCH  19  21
ENDBRANCH   5  19
TORSDOF 4
ENDMDL
MODEL 4
REMARK VINA RESULT:      -7.1      1.893      2.185
REMARK  Name = 
REMARK  5 active torsions:
REMARK  status: ('A' for Active; 'I' for Inactive)
REMARK    1  A    between atoms: C_1  and  C_2
REMARK    2  A    between atoms: N_4  and  C_5
REMARK    3  A    between atoms: C_8  and  N_9
REMARK    4  A    between atoms: C_16  and  C_17
REMARK    5  A    between atoms: C_17  and  O_19
REMARK                            x       y       z     vdW  Elec       q    Type
REMARK                         _______ _______ _______ _____ _____    ______ ____
ROOT
ATOM      1  C   UNL     1       6.003   4.991  15.595  0.00  0.00    +0.000 A 
ATOM      2  C   UNL     1       5.932   3.642  15.876  0.00  0.00    +0.000 A 
ATOM      3  C   UNL     1       5.089   3.172  16.887  0.00  0.00    +0.000 A 
ATOM      4  C   UNL     1       4.271   3.992  17.697  0.00  0.00    +0.000 A 
ATOM      5  C   UNL     1       4.346   5.377  17.383  0.00  0.00    +0.000 A 
ATOM      6  C   UNL     1       5.222   5.855  16.363  0.00  0.00    +0.000 A 
ENDROOT
BRANCH   4   7
ATOM      7  N   UNL     1       3.482   3.350  18.663  0.00  0.00    +0.000 N 
ATOM      8  C   UNL     1       2.196   2.766  18.237  0.00  0.00    +0.000 C 
ATOM      9  C   UNL     1       1.027   3.643  18.698  0.00  0.00    +0.000 C 
ATOM     10  C   UNL     1       0.695   3.518  20.182  0.00  0.00    +0.000 C 
ATOM     11  C   UNL     1       1.875   3.759  21.123  0.00  0.00    +0.000 C 
ATOM     12  C   UNL     1       2.936   2.664  21.028  0.00  0.00    +0.000 C 
ATOM     13  C   UNL     1       4.007   2.881  19.948  0.00  0.00    +0.000 C 
ENDBRANCH   4   7
BRANCH   1  17
ATOM     14  C   UNL     1       8.135   5.686  12.559  0.00  0.00    +0.000 C 
ATOM     15  C   UNL     1       7.111   4.930  13.357  0.00  0.00    +0.000 C 
ATOM     16  O   UNL     1       6.612   3.901  12.912  0.00  0.00    +0.000 OA
ATOM     17  N   UNL     1       6.833   5.520  14.583  0.00  0.00    +0.000 N 
ATOM     18  H   UNL     1       7.228   6.439  14.744  0.00  0.00    +0.000 HD
ENDBRANCH   1  17
BRANCH   5  19
ATOM     19  C   UNL     1       3.617   6.463  18.103  0.00  0.00    +0.000 C 
ATOM     20  O   UNL     1       3.216   6.397  19.251  0.00  0.00    +0.000 OA
BRANCH  19  21
ATOM     21  O   UNL     1       3.502   7.604  17.373  0.00  0.00    +0.000 OA
ATOM     22  H   UNL     1       3.732   7.522  16.430  0.00  0.00    +0.000 HD
ENDBRANCH  19  21
ENDBRANCH   5  19
TORSDOF 4
ENDMDL
MODEL 5
REMARK VINA RESULT:      -7.1      1.005      1.014
REMARK  Name = 
REMARK  5 active torsions:
REMARK  status: ('A' for Active; 'I' for Inactive)
REMARK    1  A    between atoms: C_1  and  C_2
REMARK    2  A    between atoms: N_4  and  C_5
REMARK    3  A    between atoms: C_8  and  N_9
REMARK    4  A    between atoms: C_16  and  C_17
REMARK    5  A    between atoms: C_17  and  O_19
REMARK                            x       y       z     vdW  Elec       q    Type
REMARK                         _______ _______ _______ _____ _____    ______ ____
ROOT
ATOM      1  C   UNL     1       5.605   4.132  15.412  0.00  0.00    +0.000 A 
ATOM      2  C   UNL     1       4.334   3.652  15.656  0.00  0.00    +0.000 A 
ATOM      3  C   UNL     1       3.773   3.746  16.933  0.00  0.00    +0.000 A 
ATOM      4  C   UNL     1       4.425   4.304  18.057  0.00  0.00    +0.000 A 
ATOM      5  C   UNL     1       5.726   4.806  17.783  0.00  0.00    +0.000 A 
ATOM      6  C   UNL     1       6.302   4.690  16.483  0.00  0.00    +0.000 A 
ENDROOT
BRANCH   4   7
ATOM      7  N   UNL     1       3.710   4.322  19.264  0.00  0.00    +0.000 N 
ATOM      8  C   UNL     1       3.825   3.155  20.160  0.00  0.00    +0.000 C 
ATOM      9  C   UNL     1       2.559   2.294  20.087  0.00  0.00    +0.000 C 
ATOM     10  C   UNL     1       1.364   2.869  20.843  0.00  0.00    +0.000 C 
ATOM     11  C   UNL     1       0.993   4.301  20.456  0.00  0.00    +0.000 C 
ATOM     12  C   UNL     1       2.051   5.318  20.881  0.00  0.00    +0.000 C 
ATOM     13  C   UNL     1       3.183   5.548  19.869  0.00  0.00    +0.000 C 
ENDBRANCH   4   7
BRANCH   1  17
ATOM     14  C   UNL     1       7.619   4.617  12.257  0.00  0.00    +0.000 C 
ATOM     15  C   UNL     1       7.286   4.838  13.706  0.00  0.00    +0.000 C 
ATOM     16  O   UNL     1       7.933   5.636  14.377  0.00  0.00    +0.000 OA
ATOM     17  N   UNL     1       6.217   4.066  14.142  0.00  0.00    +0.000 N 
ATOM     18  H   UNL     1       5.879   3.357  13.503  0.00  0.00    +0.000 HD
ENDBRANCH   1  17
BRANCH   5  19
ATOM     19  C   UNL     1       6.646   5.411  18.793  0.00  0.00    +0.000 C 
ATOM     20  O   UNL     1       6.743   5.056  19.953  0.00  0.00    +0.000 OA
BRANCH  19  21
ATOM     21  O   UNL     1       7.451   6.374  18.272  0.00  0.00    +0.000 OA
ATOM     22  H   UNL     1       7.880   6.958  18.923  0.00  0.00    +0.000 HD
ENDBRANCH  19  21
ENDBRANCH   5  19
TORSDOF 4
ENDMDL
MODEL 6
REMARK VINA RESULT:      -6.8      2.209      2.691
REMARK  Name = 
REMARK  5 active torsions:
REMARK  status: ('A' for Active; 'I' for Inactive)
REMARK    1  A    between atoms: C_1  and  C_2
REMARK    2  A    between atoms: N_4  and  C_5
REMARK    3  A    between atoms: C_8  and  N_9
REMARK    4  A    between atoms: C_16  and  C_17
REMARK    5  A    between atoms: C_17  and  O_19
REMARK                            x       y       z     vdW  Elec       q    Type
REMARK                         _______ _______ _______ _____ _____    ______ ____
ROOT
ATOM      1  C   UNL     1       5.753   4.490  15.445  0.00  0.00    +0.000 A 
ATOM      2  C   UNL     1       5.742   5.660  16.176  0.00  0.00    +0.000 A 
ATOM      3  C   UNL     1       4.997   5.754  17.355  0.00  0.00    +0.000 A 
ATOM      4  C   UNL     1       4.203   4.712  17.888  0.00  0.00    +0.000 A 
ATOM      5  C   UNL     1       4.238   3.510  17.129  0.00  0.00    +0.000 A 
ATOM      6  C   UNL     1       4.985   3.425  15.917  0.00  0.00    +0.000 A 
ENDROOT
BRANCH   4   7
ATOM      7  N   UNL     1       3.524   4.978  19.086  0.00  0.00    +0.000 N 
ATOM      8  C   UNL     1       3.977   4.293  20.312  0.00  0.00    +0.000 C 
ATOM      9  C   UNL     1       3.012   3.163  20.686  0.00  0.00    +0.000 C 
ATOM     10  C   UNL     1       1.709   3.635  21.325  0.00  0.00    +0.000 C 
ATOM     11  C   UNL     1       0.938   4.674  20.509  0.00  0.00    +0.000 C 
ATOM     12  C   UNL     1       1.662   6.017  20.433  0.00  0.00    +0.000 C 
ATOM     13  C   UNL     1       2.671   6.154  19.284  0.00  0.00    +0.000 C 
ENDBRANCH   4   7
BRANCH   1  17
ATOM     14  C   UNL     1       7.057   3.742  11.983  0.00  0.00    +0.000 C 
ATOM     15  C   UNL     1       5.988   3.926  13.023  0.00  0.00    +0.000 C 
ATOM     16  O   UNL     1       4.811   3.714  12.749  0.00  0.00    +0.000 OA
ATOM     17  N   UNL     1       6.490   4.339  14.251  0.00  0.00    +0.000 N 
ATOM     18  H   UNL     1       7.468   4.601  14.276  0.00  0.00    +0.000 HD
ENDBRANCH   1  17
BRANCH   5  19
ATOM     19  C   UNL     1       3.467   2.271  17.445  0.00  0.00    +0.000 C 
ATOM     20  O   UNL     1       2.271   2.125  17.266  0.00  0.00    +0.000 OA
BRANCH  19  21
ATOM     21  O   UNL     1       4.250   1.253  17.891  0.00  0.00    +0.000 OA
ATOM     22  H   UNL     1       4.741   1.433  18.712  0.00  0.00    +0.000 HD
ENDBRANCH  19  21
ENDBRANCH   5  19
TORSDOF 4
ENDMDL
MODEL 7
REMARK VINA RESULT:      -6.8      3.884      6.552
REMARK  Name = 
REMARK  5 active torsions:
REMARK  status: ('A' for Active; 'I' for Inactive)
REMARK    1  A    between atoms: C_1  and  C_2
REMARK    2  A    between atoms: N_4  and  C_5
REMARK    3  A    between atoms: C_8  and  N_9
REMARK    4  A    between atoms: C_16  and  C_17
REMARK    5  A    between atoms: C_17  and  O_19
REMARK                            x       y       z     vdW  Elec       q    Type
REMARK                         _______ _______ _______ _____ _____    ______ ____
ROOT
ATOM      1  C   UNL     1       1.842   8.416  19.016  0.00  0.00    +0.000 A 
ATOM      2  C   UNL     1       2.781   8.525  18.010  0.00  0.00    +0.000 A 
ATOM      3  C   UNL     1       3.597   7.438  17.682  0.00  0.00    +0.000 A 
ATOM      4  C   UNL     1       3.556   6.179  18.325  0.00  0.00    +0.000 A 
ATOM      5  C   UNL     1       2.573   6.083  19.347  0.00  0.00    +0.000 A 
ATOM      6  C   UNL     1       1.756   7.200  19.693  0.00  0.00    +0.000 A 
ENDROOT
BRANCH   4   7
ATOM      7  N   UNL     1       4.445   5.199  17.862  0.00  0.00    +0.000 N 
ATOM      8  C   UNL     1       5.454   4.672  18.802  0.00  0.00    +0.000 C 
ATOM      9  C   UNL     1       6.836   5.255  18.490  0.00  0.00    +0.000 C 
ATOM     10  C   UNL     1       7.518   4.637  17.272  0.00  0.00    +0.000 C 
ATOM     11  C   UNL     1       6.685   4.667  15.991  0.00  0.00    +0.000 C 
ATOM     12  C   UNL     1       5.463   3.754  16.062  0.00  0.00    +0.000 C 
ATOM     13  C   UNL     1       4.202   4.393  16.662  0.00  0.00    +0.000 C 
ENDBRANCH   4   7
BRANCH   1  17
ATOM     14  C   UNL     1      -0.661  11.232  19.242  0.00  0.00    +0.000 C 
ATOM     15  C   UNL     1      -0.025  10.025  18.612  0.00  0.00    +0.000 C 
ATOM     16  O   UNL     1      -0.411   9.618  17.521  0.00  0.00    +0.000 OA
ATOM     17  N   UNL     1       0.991   9.479  19.386  0.00  0.00    +0.000 N 
ATOM     18  H   UNL     1       1.096   9.850  20.323  0.00  0.00    +0.000 HD
ENDBRANCH   1  17
BRANCH   5  19
ATOM     19  C   UNL     1       2.341   4.883  20.207  0.00  0.00    +0.000 C 
ATOM     20  O   UNL     1       2.059   3.772  19.798  0.00  0.00    +0.000 OA
BRANCH  19  21
ATOM     21  O   UNL     1       2.556   5.124  21.527  0.00  0.00    +0.000 OA
ATOM     22  H   UNL     1       3.448   4.905  21.853  0.00  0.00    +0.000 HD
ENDBRANCH  19  21
ENDBRANCH   5  19
TORSDOF 4
ENDMDL
MODEL 8
REMARK VINA RESULT:      -6.8      1.416      1.816
REMARK  Name = 
REMARK  5 active torsions:
REMARK  status: ('A' for Active; 'I' for Inactive)
REMARK    1  A    between atoms: C_1  and  C_2
REMARK    2  A    between atoms: N_4  and  C_5
REMARK    3  A    between atoms: C_8  and  N_9
REMARK    4  A    between atoms: C_16  and  C_17
REMARK    5  A    between atoms: C_17  and  O_19
REMARK                            x       y       z     vdW  Elec       q    Type
REMARK                         _______ _______ _______ _____ _____    ______ ____
ROOT
ATOM      1  C   UNL     1       6.212   4.101  14.710  0.00  0.00    +0.000 A 
ATOM      2  C   UNL     1       5.006   3.629  15.187  0.00  0.00    +0.000 A 
ATOM      3  C   UNL     1       4.455   4.151  16.361  0.00  0.00    +0.000 A 
ATOM      4  C   UNL     1       5.054   5.159  17.151  0.00  0.00    +0.000 A 
ATOM      5  C   UNL     1       6.287   5.643  16.636  0.00  0.00    +0.000 A 
ATOM      6  C   UNL     1       6.856   5.094  15.449  0.00  0.00    +0.000 A 
ENDROOT
BRANCH   4   7
ATOM      7  N   UNL     1       4.356   5.568  18.297  0.00  0.00    +0.000 N 
ATOM      8  C   UNL     1       4.753   4.994  19.597  0.00  0.00    +0.000 C 
ATOM      9  C   UNL     1       3.736   3.942  20.054  0.00  0.00    +0.000 C 
ATOM     10  C   UNL     1       2.437   4.522  20.606  0.00  0.00    +0.000 C 
ATOM     11  C   UNL     1       1.727   5.501  19.671  0.00  0.00    +0.000 C 
ATOM     12  C   UNL     1       2.503   6.803  19.482  0.00  0.00    +0.000 C 
ATOM     13  C   UNL     1       3.545   6.788  18.354  0.00  0.00    +0.000 C 
ENDBRANCH   4   7
BRANCH   1  17
ATOM     14  C   UNL     1       7.065   2.680  11.320  0.00  0.00    +0.000 C 
ATOM     15  C   UNL     1       6.158   3.299  12.346  0.00  0.00    +0.000 C 
ATOM     16  O   UNL     1       4.970   3.478  12.098  0.00  0.00    +0.000 OA
ATOM     17  N   UNL     1       6.813   3.614  13.530  0.00  0.00    +0.000 N 
ATOM     18  H   UNL     1       7.822   3.529  13.527  0.00  0.00    +0.000 HD
ENDBRANCH   1  17
BRANCH   5  19
ATOM     19  C   UNL     1       7.145   6.677  17.288  0.00  0.00    +0.000 C 
ATOM     20  O   UNL     1       7.224   7.842  16.943  0.00  0.00    +0.000 OA
BRANCH  19  21
ATOM     21  O   UNL     1       7.794   6.215  18.389  0.00  0.00    +0.000 OA
ATOM     22  H   UNL     1       8.559   6.745  18.678  0.00  0.00    +0.000 HD
ENDBRANCH  19  21
ENDBRANCH   5  19
TORSDOF 4
ENDMDL
MODEL 9
REMARK VINA RESULT:      -6.8      1.341      2.144
REMARK  Name = 
REMARK  5 active torsions:
REMARK  status: ('A' for Active; 'I' for Inactive)
REMARK    1  A    between atoms: C_1  and  C_2
REMARK    2  A    between atoms: N_4  and  C_5
REMARK    3  A    between atoms: C_8  and  N_9
REMARK    4  A    between atoms: C_16  and  C_17
REMARK    5  A    between atoms: C_17  and  O_19
REMARK                            x       y       z     vdW  Elec       q    Type
REMARK                         _______ _______ _______ _____ _____    ______ ____
ROOT
ATOM      1  C   UNL     1       6.414   5.038  15.451  0.00  0.00    +0.000 A 
ATOM      2  C   UNL     1       5.199   4.704  14.888  0.00  0.00    +0.000 A 
ATOM      3  C   UNL     1       4.145   4.256  15.689  0.00  0.00    +0.000 A 
ATOM      4  C   UNL     1       4.216   4.092  17.092  0.00  0.00    +0.000 A 
ATOM      5  C   UNL     1       5.469   4.455  17.655  0.00  0.00    +0.000 A 
ATOM      6  C   UNL     1       6.548   4.894  16.832  0.00  0.00    +0.000 A 
ENDROOT
BRANCH   4   7
ATOM      7  N   UNL     1       3.058   3.635  17.739  0.00  0.00    +0.000 N 
ATOM      8  C   UNL     1       1.977   4.605  18.001  0.00  0.00    +0.000 C 
ATOM      9  C   UNL     1       1.956   4.999  19.482  0.00  0.00    +0.000 C 
ATOM     10  C   UNL     1       1.354   3.943  20.405  0.00  0.00    +0.000 C 
ATOM     11  C   UNL     1       1.987   2.557  20.287  0.00  0.00    +0.000 C 
ATOM     12  C   UNL     1       1.695   1.889  18.944  0.00  0.00    +0.000 C 
ATOM     13  C   UNL     1       2.686   2.220  17.818  0.00  0.00    +0.000 C 
ENDBRANCH   4   7
BRANCH   1  17
ATOM     14  C   UNL     1       9.100   5.726  12.891  0.00  0.00    +0.000 C 
ATOM     15  C   UNL     1       7.787   5.174  13.369  0.00  0.00    +0.000 C 
ATOM     16  O   UNL     1       7.082   4.509  12.618  0.00  0.00    +0.000 OA
ATOM     17  N   UNL     1       7.510   5.499  14.691  0.00  0.00    +0.000 N 
ATOM     18  H   UNL     1       8.129   6.169  15.133  0.00  0.00    +0.000 HD
ENDBRANCH   1  17
BRANCH   5  19
ATOM     19  C   UNL     1       5.826   4.346  19.102  0.00  0.00    +0.000 C 
ATOM     20  O   UNL     1       6.383   5.210  19.753  0.00  0.00    +0.000 OA
BRANCH  19  21
ATOM     21  O   UNL     1       5.392   3.192  19.673  0.00  0.00    +0.000 OA
ATOM     22  H   UNL     1       4.462   3.193  19.964  0.00  0.00    +0.000 HD
ENDBRANCH  19  21
ENDBRANCH   5  19
TORSDOF 4
ENDMDL
