MODEL 1
REMARK VINA RESULT:      -8.7      0.000      0.000
REMARK  Name = 
REMARK  3 active torsions:
REMARK  status: ('A' for Active; 'I' for Inactive)
REMARK    1  A    between atoms: C_4  and  C_5
REMARK    2  A    between atoms: C_5  and  N_6
REMARK    3  A    between atoms: C_18  and  C_19
REMARK                            x       y       z     vdW  Elec       q    Type
REMARK                         _______ _______ _______ _____ _____    ______ ____
ROOT
ATOM      1  N   UNL     1       2.043   6.972  19.461  0.00  0.00    +0.000 N 
ATOM      2  C   UNL     1       1.340   6.528  20.545  0.00  0.00    +0.000 A 
ATOM      3  C   UNL     1       1.207   5.167  20.808  0.00  0.00    +0.000 A 
ATOM      4  C   UNL     1       1.579   4.325  19.761  0.00  0.00    +0.000 A 
ATOM      5  C   UNL     1       1.657   4.921  18.487  0.00  0.00    +0.000 A 
ATOM      6  N   UNL     1       1.584   3.775  17.696  0.00  0.00    +0.000 N 
ATOM      7  C   UNL     1       2.452   2.865  18.266  0.00  0.00    +0.000 A 
ATOM      8  C   UNL     1       3.259   1.903  17.665  0.00  0.00    +0.000 A 
ATOM      9  C   UNL     1       4.350   1.493  18.425  0.00  0.00    +0.000 A 
ATOM     10  C   UNL     1       4.513   1.905  19.753  0.00  0.00    +0.000 A 
ATOM     11  C   UNL     1       3.549   2.703  20.394  0.00  0.00    +0.000 A 
ATOM     12  C   UNL     1       2.504   3.227  19.611  0.00  0.00    +0.000 A 
ATOM     13  C   UNL     1       2.464   6.091  18.498  0.00  0.00    +0.000 A 
ATOM     14  H   UNL     1       0.750   3.469  17.212  0.00  0.00    +0.000 HD
ENDROOT
BRANCH  13  15
ATOM     15  C   UNL     1       3.944   6.019  18.164  0.00  0.00    +0.000 A 
ATOM     16  C   UNL     1       4.905   5.463  19.058  0.00  0.00    +0.000 A 
ATOM     17  C   UNL     1       6.191   5.063  18.665  0.00  0.00    +0.000 A 
ATOM     18  C   UNL     1       6.485   5.118  17.332  0.00  0.00    +0.000 A 
ATOM     19  C   UNL     1       5.619   5.702  16.449  0.00  0.00    +0.000 A 
ATOM     20  C   UNL     1       4.407   6.246  16.847  0.00  0.00    +0.000 A 
ATOM     21  O   UNL     1       6.047   5.557  15.159  0.00  0.00    +0.000 OA
ATOM     22  C   UNL     1       7.100   4.583  15.354  0.00  0.00    +0.000 C 
ATOM     23  O   UNL     1       7.555   4.546  16.722  0.00  0.00    +0.000 OA
ENDBRANCH  13  15
BRANCH   1  24
ATOM     24  C   UNL     1       2.350   8.434  19.435  0.00  0.00    +0.000 C 
BRANCH  24  28
ATOM     25  C   UNL     1      -1.124  10.963  19.191  0.00  0.00    +0.000 A 
ATOM     26  C   UNL     1      -0.649  10.321  18.045  0.00  0.00    +0.000 A 
ATOM     27  C   UNL     1       0.490   9.522  18.115  0.00  0.00    +0.000 A 
ATOM     28  C   UNL     1       1.181   9.372  19.324  0.00  0.00    +0.000 A 
ATOM     29  C   UNL     1       0.707  10.031  20.479  0.00  0.00    +0.000 A 
ATOM     30  C   UNL     1      -0.456  10.828  20.404  0.00  0.00    +0.000 A 
ENDBRANCH  24  28
ENDBRANCH   1  24
TORSDOF 3
ENDMDL
MODEL 2
REMARK VINA RESULT:      -8.3      0.761      1.363
REMARK  Name = 
REMARK  3 active torsions:
REMARK  status: ('A' for Active; 'I' for Inactive)
REMARK    1  A    between atoms: C_4  and  C_5
REMARK    2  A    between atoms: C_5  and  N_6
REMARK    3  A    between atoms: C_18  and  C_19
REMARK                            x       y       z     vdW  Elec       q    Type
REMARK                         _______ _______ _______ _____ _____    ______ ____
ROOT
ATOM      1  N   UNL     1       1.911   6.687  19.719  0.00  0.00    +0.000 N 
ATOM      2  C   UNL     1       1.199   6.103  20.729  0.00  0.00    +0.000 A 
ATOM      3  C   UNL     1       1.100   4.718  20.832  0.00  0.00    +0.000 A 
ATOM      4  C   UNL     1       1.518   4.011  19.706  0.00  0.00    +0.000 A 
ATOM      5  C   UNL     1       1.605   4.751  18.509  0.00  0.00    +0.000 A 
ATOM      6  N   UNL     1       1.582   3.701  17.592  0.00  0.00    +0.000 N 
ATOM      7  C   UNL     1       2.464   2.755  18.076  0.00  0.00    +0.000 A 
ATOM      8  C   UNL     1       3.311   1.889  17.390  0.00  0.00    +0.000 A 
ATOM      9  C   UNL     1       4.397   1.424  18.125  0.00  0.00    +0.000 A 
ATOM     10  C   UNL     1       4.520   1.686  19.494  0.00  0.00    +0.000 A 
ATOM     11  C   UNL     1       3.520   2.379  20.198  0.00  0.00    +0.000 A 
ATOM     12  C   UNL     1       2.478   2.962  19.454  0.00  0.00    +0.000 A 
ATOM     13  C   UNL     1       2.378   5.932  18.673  0.00  0.00    +0.000 A 
ATOM     14  H   UNL     1       0.769   3.430  17.056  0.00  0.00    +0.000 HD
ENDROOT
BRANCH  13  15
ATOM     15  C   UNL     1       3.865   5.939  18.369  0.00  0.00    +0.000 A 
ATOM     16  C   UNL     1       4.833   5.404  19.269  0.00  0.00    +0.000 A 
ATOM     17  C   UNL     1       6.145   5.074  18.893  0.00  0.00    +0.000 A 
ATOM     18  C   UNL     1       6.463   5.178  17.570  0.00  0.00    +0.000 A 
ATOM     19  C   UNL     1       5.589   5.746  16.683  0.00  0.00    +0.000 A 
ATOM     20  C   UNL     1       4.344   6.222  17.070  0.00  0.00    +0.000 A 
ATOM     21  O   UNL     1       6.049   5.655  15.400  0.00  0.00    +0.000 OA
ATOM     22  C   UNL     1       7.142   4.727  15.591  0.00  0.00    +0.000 C 
ATOM     23  O   UNL     1       7.570   4.674  16.968  0.00  0.00    +0.000 OA
ENDBRANCH  13  15
BRANCH   1  24
ATOM     24  C   UNL     1       2.176   8.149  19.868  0.00  0.00    +0.000 C 
BRANCH  24  28
ATOM     25  C   UNL     1      -0.563  10.596  22.112  0.00  0.00    +0.000 A 
ATOM     26  C   UNL     1       0.306   9.732  22.781  0.00  0.00    +0.000 A 
ATOM     27  C   UNL     1       1.177   8.920  22.058  0.00  0.00    +0.000 A 
ATOM     28  C   UNL     1       1.174   8.945  20.657  0.00  0.00    +0.000 A 
ATOM     29  C   UNL     1       0.286   9.809  19.981  0.00  0.00    +0.000 A 
ATOM     30  C   UNL     1      -0.583  10.639  20.721  0.00  0.00    +0.000 A 
ENDBRANCH  24  28
ENDBRANCH   1  24
TORSDOF 3
ENDMDL
MODEL 3
REMARK VINA RESULT:      -8.3      0.952      1.573
REMARK  Name = 
REMARK  3 active torsions:
REMARK  status: ('A' for Active; 'I' for Inactive)
REMARK    1  A    between atoms: C_4  and  C_5
REMARK    2  A    between atoms: C_5  and  N_6
REMARK    3  A    between atoms: C_18  and  C_19
REMARK                            x       y       z     vdW  Elec       q    Type
REMARK                         _______ _______ _______ _____ _____    ______ ____
ROOT
ATOM      1  N   UNL     1       2.089   6.813  19.365  0.00  0.00    +0.000 N 
ATOM      2  C   UNL     1       1.439   6.480  20.519  0.00  0.00    +0.000 A 
ATOM      3  C   UNL     1       1.284   5.149  20.899  0.00  0.00    +0.000 A 
ATOM      4  C   UNL     1       1.571   4.215  19.905  0.00  0.00    +0.000 A 
ATOM      5  C   UNL     1       1.591   4.705  18.584  0.00  0.00    +0.000 A 
ATOM      6  N   UNL     1       1.441   3.502  17.894  0.00  0.00    +0.000 N 
ATOM      7  C   UNL     1       2.316   2.613  18.487  0.00  0.00    +0.000 A 
ATOM      8  C   UNL     1       3.060   1.581  17.923  0.00  0.00    +0.000 A 
ATOM      9  C   UNL     1       4.182   1.198  18.652  0.00  0.00    +0.000 A 
ATOM     10  C   UNL     1       4.433   1.710  19.930  0.00  0.00    +0.000 A 
ATOM     11  C   UNL     1       3.530   2.586  20.557  0.00  0.00    +0.000 A 
ATOM     12  C   UNL     1       2.456   3.079  19.793  0.00  0.00    +0.000 A 
ATOM     13  C   UNL     1       2.429   5.845  18.455  0.00  0.00    +0.000 A 
ATOM     14  H   UNL     1       0.573   3.185  17.485  0.00  0.00    +0.000 HD
ENDROOT
BRANCH  13  15
ATOM     15  C   UNL     1       3.884   5.700  18.046  0.00  0.00    +0.000 A 
ATOM     16  C   UNL     1       4.395   6.238  16.828  0.00  0.00    +0.000 A 
ATOM     17  C   UNL     1       5.762   6.434  16.578  0.00  0.00    +0.000 A 
ATOM     18  C   UNL     1       6.628   6.191  17.606  0.00  0.00    +0.000 A 
ATOM     19  C   UNL     1       6.191   5.616  18.767  0.00  0.00    +0.000 A 
ATOM     20  C   UNL     1       4.863   5.270  18.971  0.00  0.00    +0.000 A 
ATOM     21  O   UNL     1       7.186   5.559  19.702  0.00  0.00    +0.000 OA
ATOM     22  C   UNL     1       8.168   6.416  19.074  0.00  0.00    +0.000 C 
ATOM     23  O   UNL     1       7.935   6.557  17.658  0.00  0.00    +0.000 OA
ENDBRANCH  13  15
BRANCH   1  24
ATOM     24  C   UNL     1       2.434   8.258  19.204  0.00  0.00    +0.000 C 
BRANCH  24  28
ATOM     25  C   UNL     1      -0.973  10.889  19.198  0.00  0.00    +0.000 A 
ATOM     26  C   UNL     1      -0.594  10.239  18.022  0.00  0.00    +0.000 A 
ATOM     27  C   UNL     1       0.522   9.406  18.013  0.00  0.00    +0.000 A 
ATOM     28  C   UNL     1       1.288   9.231  19.173  0.00  0.00    +0.000 A 
ATOM     29  C   UNL     1       0.912   9.898  20.359  0.00  0.00    +0.000 A 
ATOM     30  C   UNL     1      -0.229  10.729  20.363  0.00  0.00    +0.000 A 
ENDBRANCH  24  28
ENDBRANCH   1  24
TORSDOF 3
ENDMDL
MODEL 4
REMARK VINA RESULT:      -8.2      2.818      5.624
REMARK  Name = 
REMARK  3 active torsions:
REMARK  status: ('A' for Active; 'I' for Inactive)
REMARK    1  A    between atoms: C_4  and  C_5
REMARK    2  A    between atoms: C_5  and  N_6
REMARK    3  A    between atoms: C_18  and  C_19
REMARK                            x       y       z     vdW  Elec       q    Type
REMARK                         _______ _______ _______ _____ _____    ______ ____
ROOT
ATOM      1  N   UNL     1       5.163   5.367  17.230  0.00  0.00    +0.000 N 
ATOM      2  C   UNL     1       5.302   4.238  16.475  0.00  0.00    +0.000 A 
ATOM      3  C   UNL     1       4.654   3.055  16.823  0.00  0.00    +0.000 A 
ATOM      4  C   UNL     1       4.116   3.034  18.109  0.00  0.00    +0.000 A 
ATOM      5  C   UNL     1       4.614   4.003  19.003  0.00  0.00    +0.000 A 
ATOM      6  N   UNL     1       4.237   3.413  20.209  0.00  0.00    +0.000 N 
ATOM      7  C   UNL     1       2.930   3.002  20.038  0.00  0.00    +0.000 A 
ATOM      8  C   UNL     1       1.879   2.963  20.950  0.00  0.00    +0.000 A 
ATOM      9  C   UNL     1       0.608   2.973  20.383  0.00  0.00    +0.000 A 
ATOM     10  C   UNL     1       0.423   2.865  19.000  0.00  0.00    +0.000 A 
ATOM     11  C   UNL     1       1.511   2.680  18.129  0.00  0.00    +0.000 A 
ATOM     12  C   UNL     1       2.807   2.788  18.666  0.00  0.00    +0.000 A 
ATOM     13  C   UNL     1       4.546   5.312  18.455  0.00  0.00    +0.000 A 
ATOM     14  H   UNL     1       4.867   2.909  20.817  0.00  0.00    +0.000 HD
ENDROOT
BRANCH  13  15
ATOM     15  C   UNL     1       3.345   6.205  18.713  0.00  0.00    +0.000 A 
ATOM     16  C   UNL     1       2.780   6.371  20.011  0.00  0.00    +0.000 A 
ATOM     17  C   UNL     1       1.919   7.426  20.354  0.00  0.00    +0.000 A 
ATOM     18  C   UNL     1       1.706   8.392  19.413  0.00  0.00    +0.000 A 
ATOM     19  C   UNL     1       2.175   8.241  18.137  0.00  0.00    +0.000 A 
ATOM     20  C   UNL     1       2.897   7.126  17.738  0.00  0.00    +0.000 A 
ATOM     21  O   UNL     1       1.952   9.361  17.386  0.00  0.00    +0.000 OA
ATOM     22  C   UNL     1       1.562  10.287  18.428  0.00  0.00    +0.000 C 
ATOM     23  O   UNL     1       1.130   9.604  19.623  0.00  0.00    +0.000 OA
ENDBRANCH  13  15
BRANCH   1  24
ATOM     24  C   UNL     1       5.670   6.631  16.615  0.00  0.00    +0.000 C 
BRANCH  24  28
ATOM     25  C   UNL     1       8.762   8.652  18.826  0.00  0.00    +0.000 A 
ATOM     26  C   UNL     1       7.996   9.358  17.896  0.00  0.00    +0.000 A 
ATOM     27  C   UNL     1       7.011   8.703  17.160  0.00  0.00    +0.000 A 
ATOM     28  C   UNL     1       6.795   7.329  17.328  0.00  0.00    +0.000 A 
ATOM     29  C   UNL     1       7.577   6.613  18.259  0.00  0.00    +0.000 A 
ATOM     30  C   UNL     1       8.563   7.287  19.012  0.00  0.00    +0.000 A 
ENDBRANCH  24  28
ENDBRANCH   1  24
TORSDOF 3
ENDMDL
MODEL 5
REMARK VINA RESULT:      -7.4      7.399     10.224
REMARK  Name = 
REMARK  3 active torsions:
REMARK  status: ('A' for Active; 'I' for Inactive)
REMARK    1  A    between atoms: C_4  and  C_5
REMARK    2  A    between atoms: C_5  and  N_6
REMARK    3  A    between atoms: C_18  and  C_19
REMARK                            x       y       z     vdW  Elec       q    Type
REMARK                         _______ _______ _______ _____ _____    ______ ____
ROOT
ATOM      1  N   UNL     1      -4.012  11.743  18.333  0.00  0.00    +0.000 N 
ATOM      2  C   UNL     1      -3.917  10.477  17.827  0.00  0.00    +0.000 A 
ATOM      3  C   UNL     1      -2.719   9.770  17.878  0.00  0.00    +0.000 A 
ATOM      4  C   UNL     1      -1.597  10.532  18.202  0.00  0.00    +0.000 A 
ATOM      5  C   UNL     1      -1.734  11.927  18.050  0.00  0.00    +0.000 A 
ATOM      6  N   UNL     1      -0.386  12.282  18.002  0.00  0.00    +0.000 N 
ATOM      7  C   UNL     1       0.226  11.592  19.029  0.00  0.00    +0.000 A 
ATOM      8  C   UNL     1       1.284  11.967  19.852  0.00  0.00    +0.000 A 
ATOM      9  C   UNL     1       1.348  11.296  21.070  0.00  0.00    +0.000 A 
ATOM     10  C   UNL     1       0.504  10.217  21.355  0.00  0.00    +0.000 A 
ATOM     11  C   UNL     1      -0.403   9.726  20.401  0.00  0.00    +0.000 A 
ATOM     12  C   UNL     1      -0.570  10.462  19.214  0.00  0.00    +0.000 A 
ATOM     13  C   UNL     1      -2.885  12.422  18.720  0.00  0.00    +0.000 A 
ATOM     14  H   UNL     1       0.114  12.504  17.151  0.00  0.00    +0.000 HD
ENDROOT
BRANCH  13  15
ATOM     15  C   UNL     1      -2.794  12.942  20.144  0.00  0.00    +0.000 A 
ATOM     16  C   UNL     1      -2.844  14.333  20.456  0.00  0.00    +0.000 A 
ATOM     17  C   UNL     1      -3.114  14.832  21.740  0.00  0.00    +0.000 A 
ATOM     18  C   UNL     1      -3.447  13.927  22.707  0.00  0.00    +0.000 A 
ATOM     19  C   UNL     1      -3.350  12.583  22.470  0.00  0.00    +0.000 A 
ATOM     20  C   UNL     1      -2.933  12.072  21.249  0.00  0.00    +0.000 A 
ATOM     21  O   UNL     1      -3.831  11.854  23.521  0.00  0.00    +0.000 OA
ATOM     22  C   UNL     1      -4.480  12.904  24.277  0.00  0.00    +0.000 C 
ATOM     23  O   UNL     1      -3.985  14.211  23.921  0.00  0.00    +0.000 OA
ENDBRANCH  13  15
BRANCH   1  24
ATOM     24  C   UNL     1      -5.396  12.287  18.474  0.00  0.00    +0.000 C 
BRANCH  24  28
ATOM     25  C   UNL     1      -7.916  10.872  21.663  0.00  0.00    +0.000 A 
ATOM     26  C   UNL     1      -7.313  12.127  21.758  0.00  0.00    +0.000 A 
ATOM     27  C   UNL     1      -6.476  12.579  20.740  0.00  0.00    +0.000 A 
ATOM     28  C   UNL     1      -6.215  11.773  19.625  0.00  0.00    +0.000 A 
ATOM     29  C   UNL     1      -6.815  10.498  19.534  0.00  0.00    +0.000 A 
ATOM     30  C   UNL     1      -7.673  10.054  20.564  0.00  0.00    +0.000 A 
ENDBRANCH  24  28
ENDBRANCH   1  24
TORSDOF 3
ENDMDL
MODEL 6
REMARK VINA RESULT:      -7.3      5.863      8.793
REMARK  Name = 
REMARK  3 active torsions:
REMARK  status: ('A' for Active; 'I' for Inactive)
REMARK    1  A    between atoms: C_4  and  C_5
REMARK    2  A    between atoms: C_5  and  N_6
REMARK    3  A    between atoms: C_18  and  C_19
REMARK                            x       y       z     vdW  Elec       q    Type
REMARK                         _______ _______ _______ _____ _____    ______ ____
ROOT
ATOM      1  N   UNL     1      -1.238  14.510  20.028  0.00  0.00    +0.000 N 
ATOM      2  C   UNL     1      -2.314  13.950  20.657  0.00  0.00    +0.000 A 
ATOM      3  C   UNL     1      -2.529  12.575  20.628  0.00  0.00    +0.000 A 
ATOM      4  C   UNL     1      -1.758  11.877  19.700  0.00  0.00    +0.000 A 
ATOM      5  C   UNL     1      -1.178  12.649  18.673  0.00  0.00    +0.000 A 
ATOM      6  N   UNL     1      -0.915  11.637  17.751  0.00  0.00    +0.000 N 
ATOM      7  C   UNL     1      -0.342  10.607  18.470  0.00  0.00    +0.000 A 
ATOM      8  C   UNL     1       0.648   9.701  18.100  0.00  0.00    +0.000 A 
ATOM      9  C   UNL     1       1.344   9.125  19.159  0.00  0.00    +0.000 A 
ATOM     10  C   UNL     1       0.953   9.329  20.487  0.00  0.00    +0.000 A 
ATOM     11  C   UNL     1      -0.195  10.074  20.805  0.00  0.00    +0.000 A 
ATOM     12  C   UNL     1      -0.840  10.764  19.762  0.00  0.00    +0.000 A 
ATOM     13  C   UNL     1      -0.456  13.758  19.189  0.00  0.00    +0.000 A 
ATOM     14  H   UNL     1      -1.479  11.451  16.933  0.00  0.00    +0.000 HD
ENDROOT
BRANCH  13  15
ATOM     15  C   UNL     1       1.034  13.656  19.468  0.00  0.00    +0.000 A 
ATOM     16  C   UNL     1       2.019  13.907  18.468  0.00  0.00    +0.000 A 
ATOM     17  C   UNL     1       3.369  14.166  18.756  0.00  0.00    +0.000 A 
ATOM     18  C   UNL     1       3.718  14.284  20.071  0.00  0.00    +0.000 A 
ATOM     19  C   UNL     1       2.822  13.989  21.062  0.00  0.00    +0.000 A 
ATOM     20  C   UNL     1       1.525  13.579  20.791  0.00  0.00    +0.000 A 
ATOM     21  O   UNL     1       3.331  14.276  22.297  0.00  0.00    +0.000 OA
ATOM     22  C   UNL     1       4.504  15.033  21.915  0.00  0.00    +0.000 C 
ATOM     23  O   UNL     1       4.889  14.778  20.549  0.00  0.00    +0.000 OA
ENDBRANCH  13  15
BRANCH   1  24
ATOM     24  C   UNL     1      -0.961  15.941  20.357  0.00  0.00    +0.000 C 
BRANCH  24  28
ATOM     25  C   UNL     1       0.893  18.482  17.419  0.00  0.00    +0.000 A 
ATOM     26  C   UNL     1      -0.422  18.051  17.235  0.00  0.00    +0.000 A 
ATOM     27  C   UNL     1      -1.018  17.208  18.170  0.00  0.00    +0.000 A 
ATOM     28  C   UNL     1      -0.299  16.768  19.289  0.00  0.00    +0.000 A 
ATOM     29  C   UNL     1       1.034  17.194  19.468  0.00  0.00    +0.000 A 
ATOM     30  C   UNL     1       1.626  18.059  18.523  0.00  0.00    +0.000 A 
ENDBRANCH  24  28
ENDBRANCH   1  24
TORSDOF 3
ENDMDL
MODEL 7
REMARK VINA RESULT:      -7.2      5.730     10.853
REMARK  Name = 
REMARK  3 active torsions:
REMARK  status: ('A' for Active; 'I' for Inactive)
REMARK    1  A    between atoms: C_4  and  C_5
REMARK    2  A    between atoms: C_5  and  N_6
REMARK    3  A    between atoms: C_18  and  C_19
REMARK                            x       y       z     vdW  Elec       q    Type
REMARK                         _______ _______ _______ _____ _____    ______ ____
ROOT
ATOM      1  N   UNL     1      -0.065  12.124  18.779  0.00  0.00    +0.000 N 
ATOM      2  C   UNL     1       1.225  12.560  18.665  0.00  0.00    +0.000 A 
ATOM      3  C   UNL     1       1.636  13.755  19.249  0.00  0.00    +0.000 A 
ATOM      4  C   UNL     1       0.602  14.583  19.687  0.00  0.00    +0.000 A 
ATOM      5  C   UNL     1      -0.673  14.314  19.151  0.00  0.00    +0.000 A 
ATOM      6  N   UNL     1      -1.292  15.535  19.417  0.00  0.00    +0.000 N 
ATOM      7  C   UNL     1      -0.964  15.851  20.721  0.00  0.00    +0.000 A 
ATOM      8  C   UNL     1      -1.711  16.503  21.698  0.00  0.00    +0.000 A 
ATOM      9  C   UNL     1      -1.322  16.242  23.008  0.00  0.00    +0.000 A 
ATOM     10  C   UNL     1      -0.165  15.510  23.295  0.00  0.00    +0.000 A 
ATOM     11  C   UNL     1       0.687  15.058  22.272  0.00  0.00    +0.000 A 
ATOM     12  C   UNL     1       0.251  15.204  20.942  0.00  0.00    +0.000 A 
ATOM     13  C   UNL     1      -1.032  12.947  19.298  0.00  0.00    +0.000 A 
ATOM     14  H   UNL     1      -1.444  16.259  18.728  0.00  0.00    +0.000 HD
ENDROOT
BRANCH  13  15
ATOM     15  C   UNL     1      -1.829  12.476  20.502  0.00  0.00    +0.000 A 
ATOM     16  C   UNL     1      -1.208  11.968  21.680  0.00  0.00    +0.000 A 
ATOM     17  C   UNL     1      -1.863  11.855  22.917  0.00  0.00    +0.000 A 
ATOM     18  C   UNL     1      -3.129  12.359  23.003  0.00  0.00    +0.000 A 
ATOM     19  C   UNL     1      -3.786  12.795  21.886  0.00  0.00    +0.000 A 
ATOM     20  C   UNL     1      -3.206  12.769  20.626  0.00  0.00    +0.000 A 
ATOM     21  O   UNL     1      -4.990  13.359  22.202  0.00  0.00    +0.000 OA
ATOM     22  C   UNL     1      -4.846  13.467  23.638  0.00  0.00    +0.000 C 
ATOM     23  O   UNL     1      -3.828  12.581  24.146  0.00  0.00    +0.000 OA
ENDBRANCH  13  15
BRANCH   1  24
ATOM     24  C   UNL     1      -0.318  10.714  18.357  0.00  0.00    +0.000 C 
BRANCH  24  28
ATOM     25  C   UNL     1       2.276   7.576  19.755  0.00  0.00    +0.000 A 
ATOM     26  C   UNL     1       1.436   8.237  20.654  0.00  0.00    +0.000 A 
ATOM     27  C   UNL     1       0.613   9.270  20.211  0.00  0.00    +0.000 A 
ATOM     28  C   UNL     1       0.636   9.670  18.869  0.00  0.00    +0.000 A 
ATOM     29  C   UNL     1       1.494   9.011  17.963  0.00  0.00    +0.000 A 
ATOM     30  C   UNL     1       2.314   7.955  18.417  0.00  0.00    +0.000 A 
ENDBRANCH  24  28
ENDBRANCH   1  24
TORSDOF 3
ENDMDL
MODEL 8
REMARK VINA RESULT:      -7.2      7.356      9.850
REMARK  Name = 
REMARK  3 active torsions:
REMARK  status: ('A' for Active; 'I' for Inactive)
REMARK    1  A    between atoms: C_4  and  C_5
REMARK    2  A    between atoms: C_5  and  N_6
REMARK    3  A    between atoms: C_18  and  C_19
REMARK                            x       y       z     vdW  Elec       q    Type
REMARK                         _______ _______ _______ _____ _____    ______ ____
ROOT
ATOM      1  N   UNL     1      -3.993  11.545  18.172  0.00  0.00    +0.000 N 
ATOM      2  C   UNL     1      -3.803  10.289  17.669  0.00  0.00    +0.000 A 
ATOM      3  C   UNL     1      -2.568   9.653  17.770  0.00  0.00    +0.000 A 
ATOM      4  C   UNL     1      -1.508  10.478  18.145  0.00  0.00    +0.000 A 
ATOM      5  C   UNL     1      -1.719  11.863  17.990  0.00  0.00    +0.000 A 
ATOM      6  N   UNL     1      -0.394  12.296  18.002  0.00  0.00    +0.000 N 
ATOM      7  C   UNL     1       0.212  11.638  19.054  0.00  0.00    +0.000 A 
ATOM      8  C   UNL     1       1.209  12.070  19.924  0.00  0.00    +0.000 A 
ATOM      9  C   UNL     1       1.259  11.399  21.142  0.00  0.00    +0.000 A 
ATOM     10  C   UNL     1       0.468  10.271  21.387  0.00  0.00    +0.000 A 
ATOM     11  C   UNL     1      -0.367   9.732  20.393  0.00  0.00    +0.000 A 
ATOM     12  C   UNL     1      -0.524  10.463  19.201  0.00  0.00    +0.000 A 
ATOM     13  C   UNL     1      -2.925  12.287  18.610  0.00  0.00    +0.000 A 
ATOM     14  H   UNL     1       0.129  12.550  17.175  0.00  0.00    +0.000 HD
ENDROOT
BRANCH  13  15
ATOM     15  C   UNL     1      -2.928  12.805  20.037  0.00  0.00    +0.000 A 
ATOM     16  C   UNL     1      -3.076  11.945  21.165  0.00  0.00    +0.000 A 
ATOM     17  C   UNL     1      -2.740  12.317  22.476  0.00  0.00    +0.000 A 
ATOM     18  C   UNL     1      -2.143  13.533  22.649  0.00  0.00    +0.000 A 
ATOM     19  C   UNL     1      -2.040  14.416  21.608  0.00  0.00    +0.000 A 
ATOM     20  C   UNL     1      -2.511  14.122  20.336  0.00  0.00    +0.000 A 
ATOM     21  O   UNL     1      -1.319  15.521  21.960  0.00  0.00    +0.000 OA
ATOM     22  C   UNL     1      -0.768  15.070  23.220  0.00  0.00    +0.000 C 
ATOM     23  O   UNL     1      -1.517  13.968  23.772  0.00  0.00    +0.000 OA
ENDBRANCH  13  15
BRANCH   1  24
ATOM     24  C   UNL     1      -5.411  12.008  18.253  0.00  0.00    +0.000 C 
BRANCH  24  28
ATOM     25  C   UNL     1      -7.917  10.606  21.460  0.00  0.00    +0.000 A 
ATOM     26  C   UNL     1      -7.417  11.910  21.486  0.00  0.00    +0.000 A 
ATOM     27  C   UNL     1      -6.586  12.360  20.463  0.00  0.00    +0.000 A 
ATOM     28  C   UNL     1      -6.224  11.506  19.414  0.00  0.00    +0.000 A 
ATOM     29  C   UNL     1      -6.719  10.184  19.394  0.00  0.00    +0.000 A 
ATOM     30  C   UNL     1      -7.572   9.740  20.427  0.00  0.00    +0.000 A 
ENDBRANCH  24  28
ENDBRANCH   1  24
TORSDOF 3
ENDMDL
MODEL 9
REMARK VINA RESULT:      -7.1      7.468     10.480
REMARK  Name = 
REMARK  3 active torsions:
REMARK  status: ('A' for Active; 'I' for Inactive)
REMARK    1  A    between atoms: C_4  and  C_5
REMARK    2  A    between atoms: C_5  and  N_6
REMARK    3  A    between atoms: C_18  and  C_19
REMARK                            x       y       z     vdW  Elec       q    Type
REMARK                         _______ _______ _______ _____ _____    ______ ____
ROOT
ATOM      1  N   UNL     1      -4.366  11.632  18.647  0.00  0.00    +0.000 N 
ATOM      2  C   UNL     1      -4.195  10.399  18.085  0.00  0.00    +0.000 A 
ATOM      3  C   UNL     1      -2.925   9.853  17.921  0.00  0.00    +0.000 A 
ATOM      4  C   UNL     1      -1.871  10.749  18.094  0.00  0.00    +0.000 A 
ATOM      5  C   UNL     1      -2.204  12.117  18.019  0.00  0.00    +0.000 A 
ATOM      6  N   UNL     1      -0.938  12.646  17.774  0.00  0.00    +0.000 N 
ATOM      7  C   UNL     1      -0.087  12.023  18.666  0.00  0.00    +0.000 A 
ATOM      8  C   UNL     1       1.033  12.519  19.327  0.00  0.00    +0.000 A 
ATOM      9  C   UNL     1       1.375  11.840  20.493  0.00  0.00    +0.000 A 
ATOM     10  C   UNL     1       0.731  10.656  20.866  0.00  0.00    +0.000 A 
ATOM     11  C   UNL     1      -0.248  10.067  20.047  0.00  0.00    +0.000 A 
ATOM     12  C   UNL     1      -0.694  10.796  18.930  0.00  0.00    +0.000 A 
ATOM     13  C   UNL     1      -3.286  12.445  18.879  0.00  0.00    +0.000 A 
ATOM     14  H   UNL     1      -0.612  12.945  16.865  0.00  0.00    +0.000 HD
ENDROOT
BRANCH  13  15
ATOM     15  C   UNL     1      -3.036  12.948  20.290  0.00  0.00    +0.000 A 
ATOM     16  C   UNL     1      -3.111  14.330  20.636  0.00  0.00    +0.000 A 
ATOM     17  C   UNL     1      -3.234  14.795  21.955  0.00  0.00    +0.000 A 
ATOM     18  C   UNL     1      -3.394  13.860  22.937  0.00  0.00    +0.000 A 
ATOM     19  C   UNL     1      -3.264  12.526  22.661  0.00  0.00    +0.000 A 
ATOM     20  C   UNL     1      -2.986  12.056  21.385  0.00  0.00    +0.000 A 
ATOM     21  O   UNL     1      -3.568  11.758  23.749  0.00  0.00    +0.000 OA
ATOM     22  C   UNL     1      -4.163  12.762  24.605  0.00  0.00    +0.000 C 
ATOM     23  O   UNL     1      -3.782  14.098  24.216  0.00  0.00    +0.000 OA
ENDBRANCH  13  15
BRANCH   1  24
ATOM     24  C   UNL     1      -5.768  11.990  19.024  0.00  0.00    +0.000 C 
BRANCH  24  28
ATOM     25  C   UNL     1      -7.145  15.702  17.335  0.00  0.00    +0.000 A 
ATOM     26  C   UNL     1      -6.911  15.606  18.709  0.00  0.00    +0.000 A 
ATOM     27  C   UNL     1      -6.489  14.400  19.263  0.00  0.00    +0.000 A 
ATOM     28  C   UNL     1      -6.318  13.268  18.456  0.00  0.00    +0.000 A 
ATOM     29  C   UNL     1      -6.567  13.361  17.069  0.00  0.00    +0.000 A 
ATOM     30  C   UNL     1      -6.980  14.591  16.513  0.00  0.00    +0.000 A 
ENDBRANCH  24  28
ENDBRANCH   1  24
TORSDOF 3
ENDMDL
