MODEL 1
REMARK VINA RESULT:      -7.9      0.000      0.000
REMARK  Name = 
REMARK  1 active torsions:
REMARK  status: ('A' for Active; 'I' for Inactive)
REMARK    1  A    between atoms: N_11  and  C_12
REMARK                            x       y       z     vdW  Elec       q    Type
REMARK                         _______ _______ _______ _____ _____    ______ ____
ROOT
ATOM      1  O   UNL     1       7.626   6.268  15.927  0.00  0.00    +0.000 OA
ATOM      2  C   UNL     1       6.934   5.262  15.733  0.00  0.00    +0.000 C 
ATOM      3  N   UNL     1       6.971   4.645  14.503  0.00  0.00    +0.000 N 
ATOM      4  C   UNL     1       7.857   5.155  13.456  0.00  0.00    +0.000 C 
ATOM      5  C   UNL     1       7.099   4.884  12.163  0.00  0.00    +0.000 C 
ATOM      6  C   UNL     1       6.414   3.560  12.445  0.00  0.00    +0.000 C 
ATOM      7  C   UNL     1       6.120   3.615  13.936  0.00  0.00    +0.000 C 
ATOM      8  N   UNL     1       6.124   4.784  16.743  0.00  0.00    +0.000 N 
ATOM      9  C   UNL     1       5.869   5.644  17.915  0.00  0.00    +0.000 C 
ATOM     10  C   UNL     1       4.377   6.062  17.998  0.00  0.00    +0.000 C 
ATOM     11  N   UNL     1       3.442   4.927  17.792  0.00  0.00    +0.000 N 
ATOM     12  C   UNL     1       3.789   4.044  16.658  0.00  0.00    +0.000 C 
ATOM     13  C   UNL     1       5.255   3.607  16.784  0.00  0.00    +0.000 C 
ENDROOT
BRANCH  11  14
ATOM     14  C   UNL     1       2.671   4.381  18.810  0.00  0.00    +0.000 A 
ATOM     15  C   UNL     1       1.619   3.499  18.493  0.00  0.00    +0.000 A 
ATOM     16  C   UNL     1       0.806   2.926  19.474  0.00  0.00    +0.000 A 
ATOM     17  C   UNL     1       1.025   3.231  20.812  0.00  0.00    +0.000 A 
ATOM     18  C   UNL     1       2.055   4.102  21.159  0.00  0.00    +0.000 A 
ATOM     19  C   UNL     1       2.865   4.669  20.165  0.00  0.00    +0.000 A 
ENDBRANCH  11  14
TORSDOF 1
ENDMDL
MODEL 2
REMARK VINA RESULT:      -7.9      0.069      1.101
REMARK  Name = 
REMARK  1 active torsions:
REMARK  status: ('A' for Active; 'I' for Inactive)
REMARK    1  A    between atoms: N_11  and  C_12
REMARK                            x       y       z     vdW  Elec       q    Type
REMARK                         _______ _______ _______ _____ _____    ______ ____
ROOT
ATOM      1  O   UNL     1       7.623   6.268  15.932  0.00  0.00    +0.000 OA
ATOM      2  C   UNL     1       6.927   5.267  15.729  0.00  0.00    +0.000 C 
ATOM      3  N   UNL     1       6.974   4.652  14.498  0.00  0.00    +0.000 N 
ATOM      4  C   UNL     1       7.874   5.158  13.461  0.00  0.00    +0.000 C 
ATOM      5  C   UNL     1       7.129   4.894  12.160  0.00  0.00    +0.000 C 
ATOM      6  C   UNL     1       6.433   3.573  12.432  0.00  0.00    +0.000 C 
ATOM      7  C   UNL     1       6.123   3.627  13.921  0.00  0.00    +0.000 C 
ATOM      8  N   UNL     1       6.104   4.792  16.729  0.00  0.00    +0.000 N 
ATOM      9  C   UNL     1       5.841   5.652  17.899  0.00  0.00    +0.000 C 
ATOM     10  C   UNL     1       4.351   6.079  17.968  0.00  0.00    +0.000 C 
ATOM     11  N   UNL     1       3.412   4.949  17.749  0.00  0.00    +0.000 N 
ATOM     12  C   UNL     1       3.765   4.067  16.618  0.00  0.00    +0.000 C 
ATOM     13  C   UNL     1       5.228   3.620  16.758  0.00  0.00    +0.000 C 
ENDROOT
BRANCH  11  14
ATOM     14  C   UNL     1       2.626   4.407  18.758  0.00  0.00    +0.000 A 
ATOM     15  C   UNL     1       2.873   4.757  20.101  0.00  0.00    +0.000 A 
ATOM     16  C   UNL     1       2.121   4.238  21.157  0.00  0.00    +0.000 A 
ATOM     17  C   UNL     1       1.095   3.338  20.892  0.00  0.00    +0.000 A 
ATOM     18  C   UNL     1       0.827   2.968  19.576  0.00  0.00    +0.000 A 
ATOM     19  C   UNL     1       1.588   3.498  18.525  0.00  0.00    +0.000 A 
ENDBRANCH  11  14
TORSDOF 1
ENDMDL
MODEL 3
REMARK VINA RESULT:      -7.2      1.666      6.873
REMARK  Name = 
REMARK  1 active torsions:
REMARK  status: ('A' for Active; 'I' for Inactive)
REMARK    1  A    between atoms: N_11  and  C_12
REMARK                            x       y       z     vdW  Elec       q    Type
REMARK                         _______ _______ _______ _____ _____    ______ ____
ROOT
ATOM      1  O   UNL     1       3.139   6.618  19.551  0.00  0.00    +0.000 OA
ATOM      2  C   UNL     1       3.025   5.535  18.964  0.00  0.00    +0.000 C 
ATOM      3  N   UNL     1       2.441   4.474  19.617  0.00  0.00    +0.000 N 
ATOM      4  C   UNL     1       1.924   4.645  20.975  0.00  0.00    +0.000 C 
ATOM      5  C   UNL     1       2.160   3.294  21.637  0.00  0.00    +0.000 C 
ATOM      6  C   UNL     1       1.910   2.316  20.503  0.00  0.00    +0.000 C 
ATOM      7  C   UNL     1       2.382   3.066  19.267  0.00  0.00    +0.000 C 
ATOM      8  N   UNL     1       3.498   5.403  17.675  0.00  0.00    +0.000 N 
ATOM      9  C   UNL     1       4.393   6.446  17.137  0.00  0.00    +0.000 C 
ATOM     10  C   UNL     1       5.816   5.891  16.869  0.00  0.00    +0.000 C 
ATOM     11  N   UNL     1       5.808   4.590  16.153  0.00  0.00    +0.000 N 
ATOM     12  C   UNL     1       4.835   3.608  16.675  0.00  0.00    +0.000 C 
ATOM     13  C   UNL     1       3.448   4.262  16.760  0.00  0.00    +0.000 C 
ENDROOT
BRANCH  11  14
ATOM     14  C   UNL     1       6.211   4.446  14.832  0.00  0.00    +0.000 A 
ATOM     15  C   UNL     1       7.320   5.173  14.356  0.00  0.00    +0.000 A 
ATOM     16  C   UNL     1       7.766   5.073  13.036  0.00  0.00    +0.000 A 
ATOM     17  C   UNL     1       7.099   4.238  12.147  0.00  0.00    +0.000 A 
ATOM     18  C   UNL     1       5.997   3.508  12.585  0.00  0.00    +0.000 A 
ATOM     19  C   UNL     1       5.561   3.615  13.913  0.00  0.00    +0.000 A 
ENDBRANCH  11  14
TORSDOF 1
ENDMDL
MODEL 4
REMARK VINA RESULT:      -7.1      1.669      6.788
REMARK  Name = 
REMARK  1 active torsions:
REMARK  status: ('A' for Active; 'I' for Inactive)
REMARK    1  A    between atoms: N_11  and  C_12
REMARK                            x       y       z     vdW  Elec       q    Type
REMARK                         _______ _______ _______ _____ _____    ______ ____
ROOT
ATOM      1  O   UNL     1       3.136   6.519  19.635  0.00  0.00    +0.000 OA
ATOM      2  C   UNL     1       3.035   5.452  19.017  0.00  0.00    +0.000 C 
ATOM      3  N   UNL     1       2.456   4.368  19.635  0.00  0.00    +0.000 N 
ATOM      4  C   UNL     1       1.928   4.496  20.994  0.00  0.00    +0.000 C 
ATOM      5  C   UNL     1       2.170   3.129  21.618  0.00  0.00    +0.000 C 
ATOM      6  C   UNL     1       1.936   2.181  20.456  0.00  0.00    +0.000 C 
ATOM      7  C   UNL     1       2.411   2.970  19.245  0.00  0.00    +0.000 C 
ATOM      8  N   UNL     1       3.517   5.361  17.727  0.00  0.00    +0.000 N 
ATOM      9  C   UNL     1       4.407   6.426  17.226  0.00  0.00    +0.000 C 
ATOM     10  C   UNL     1       5.837   5.891  16.952  0.00  0.00    +0.000 C 
ATOM     11  N   UNL     1       5.844   4.611  16.199  0.00  0.00    +0.000 N 
ATOM     12  C   UNL     1       4.876   3.606  16.686  0.00  0.00    +0.000 C 
ATOM     13  C   UNL     1       3.483   4.247  16.780  0.00  0.00    +0.000 C 
ENDROOT
BRANCH  11  14
ATOM     14  C   UNL     1       6.257   4.507  14.877  0.00  0.00    +0.000 A 
ATOM     15  C   UNL     1       5.575   3.642  13.998  0.00  0.00    +0.000 A 
ATOM     16  C   UNL     1       5.950   3.492  12.661  0.00  0.00    +0.000 A 
ATOM     17  C   UNL     1       7.034   4.208  12.166  0.00  0.00    +0.000 A 
ATOM     18  C   UNL     1       7.730   5.069  13.010  0.00  0.00    +0.000 A 
ATOM     19  C   UNL     1       7.343   5.213  14.350  0.00  0.00    +0.000 A 
ENDBRANCH  11  14
TORSDOF 1
ENDMDL
MODEL 5
REMARK VINA RESULT:      -6.7      1.491      6.767
REMARK  Name = 
REMARK  1 active torsions:
REMARK  status: ('A' for Active; 'I' for Inactive)
REMARK    1  A    between atoms: N_11  and  C_12
REMARK                            x       y       z     vdW  Elec       q    Type
REMARK                         _______ _______ _______ _____ _____    ______ ____
ROOT
ATOM      1  O   UNL     1       4.794   5.508  20.100  0.00  0.00    +0.000 OA
ATOM      2  C   UNL     1       4.125   5.087  19.149  0.00  0.00    +0.000 C 
ATOM      3  N   UNL     1       2.935   4.442  19.396  0.00  0.00    +0.000 N 
ATOM      4  C   UNL     1       2.453   4.297  20.770  0.00  0.00    +0.000 C 
ATOM      5  C   UNL     1       1.727   2.959  20.771  0.00  0.00    +0.000 C 
ATOM      6  C   UNL     1       1.088   2.920  19.395  0.00  0.00    +0.000 C 
ATOM      7  C   UNL     1       2.079   3.667  18.515  0.00  0.00    +0.000 C 
ATOM      8  N   UNL     1       4.587   5.256  17.860  0.00  0.00    +0.000 N 
ATOM      9  C   UNL     1       5.993   5.654  17.657  0.00  0.00    +0.000 C 
ATOM     10  C   UNL     1       6.805   4.535  16.954  0.00  0.00    +0.000 C 
ATOM     11  N   UNL     1       6.103   3.956  15.780  0.00  0.00    +0.000 N 
ATOM     12  C   UNL     1       4.675   3.654  16.007  0.00  0.00    +0.000 C 
ATOM     13  C   UNL     1       3.976   4.896  16.580  0.00  0.00    +0.000 C 
ENDROOT
BRANCH  11  14
ATOM     14  C   UNL     1       6.507   4.172  14.469  0.00  0.00    +0.000 A 
ATOM     15  C   UNL     1       5.960   3.391  13.432  0.00  0.00    +0.000 A 
ATOM     16  C   UNL     1       6.334   3.558  12.096  0.00  0.00    +0.000 A 
ATOM     17  C   UNL     1       7.281   4.520  11.763  0.00  0.00    +0.000 A 
ATOM     18  C   UNL     1       7.843   5.306  12.765  0.00  0.00    +0.000 A 
ATOM     19  C   UNL     1       7.458   5.130  14.102  0.00  0.00    +0.000 A 
ENDBRANCH  11  14
TORSDOF 1
ENDMDL
MODEL 6
REMARK VINA RESULT:      -5.8      4.554      5.859
REMARK  Name = 
REMARK  1 active torsions:
REMARK  status: ('A' for Active; 'I' for Inactive)
REMARK    1  A    between atoms: N_11  and  C_12
REMARK                            x       y       z     vdW  Elec       q    Type
REMARK                         _______ _______ _______ _____ _____    ______ ____
ROOT
ATOM      1  O   UNL     1       3.839   4.839  20.072  0.00  0.00    +0.000 OA
ATOM      2  C   UNL     1       3.736   5.547  19.063  0.00  0.00    +0.000 C 
ATOM      3  N   UNL     1       4.752   5.547  18.135  0.00  0.00    +0.000 N 
ATOM      4  C   UNL     1       5.918   4.684  18.325  0.00  0.00    +0.000 C 
ATOM      5  C   UNL     1       7.071   5.477  17.726  0.00  0.00    +0.000 C 
ATOM      6  C   UNL     1       6.424   6.168  16.540  0.00  0.00    +0.000 C 
ATOM      7  C   UNL     1       4.998   6.424  17.004  0.00  0.00    +0.000 C 
ATOM      8  N   UNL     1       2.617   6.335  18.892  0.00  0.00    +0.000 N 
ATOM      9  C   UNL     1       1.719   6.551  20.043  0.00  0.00    +0.000 C 
ATOM     10  C   UNL     1       1.719   8.035  20.493  0.00  0.00    +0.000 C 
ATOM     11  N   UNL     1       1.588   8.987  19.361  0.00  0.00    +0.000 N 
ATOM     12  C   UNL     1       2.446   8.679  18.197  0.00  0.00    +0.000 C 
ATOM     13  C   UNL     1       2.238   7.214  17.785  0.00  0.00    +0.000 C 
ENDROOT
BRANCH  11  14
ATOM     14  C   UNL     1       0.443   9.737  19.126  0.00  0.00    +0.000 A 
ATOM     15  C   UNL     1      -0.071  10.566  20.143  0.00  0.00    +0.000 A 
ATOM     16  C   UNL     1      -1.222  11.337  19.967  0.00  0.00    +0.000 A 
ATOM     17  C   UNL     1      -1.900  11.291  18.754  0.00  0.00    +0.000 A 
ATOM     18  C   UNL     1      -1.420  10.480  17.729  0.00  0.00    +0.000 A 
ATOM     19  C   UNL     1      -0.263   9.712  17.918  0.00  0.00    +0.000 A 
ENDBRANCH  11  14
TORSDOF 1
ENDMDL
MODEL 7
REMARK VINA RESULT:      -5.8      3.483      4.645
REMARK  Name = 
REMARK  1 active torsions:
REMARK  status: ('A' for Active; 'I' for Inactive)
REMARK    1  A    between atoms: N_11  and  C_12
REMARK                            x       y       z     vdW  Elec       q    Type
REMARK                         _______ _______ _______ _____ _____    ______ ____
ROOT
ATOM      1  O   UNL     1       3.489   3.103  17.877  0.00  0.00    +0.000 OA
ATOM      2  C   UNL     1       3.583   4.266  17.468  0.00  0.00    +0.000 C 
ATOM      3  N   UNL     1       4.585   4.589  16.582  0.00  0.00    +0.000 N 
ATOM      4  C   UNL     1       5.499   3.553  16.101  0.00  0.00    +0.000 C 
ATOM      5  C   UNL     1       6.823   4.281  15.914  0.00  0.00    +0.000 C 
ATOM      6  C   UNL     1       6.388   5.649  15.420  0.00  0.00    +0.000 C 
ATOM      7  C   UNL     1       5.060   5.883  16.125  0.00  0.00    +0.000 C 
ATOM      8  N   UNL     1       2.695   5.222  17.917  0.00  0.00    +0.000 N 
ATOM      9  C   UNL     1       1.856   4.916  19.092  0.00  0.00    +0.000 C 
ATOM     10  C   UNL     1       2.213   5.823  20.298  0.00  0.00    +0.000 C 
ATOM     11  N   UNL     1       2.342   7.256  19.930  0.00  0.00    +0.000 N 
ATOM     12  C   UNL     1       3.119   7.507  18.698  0.00  0.00    +0.000 C 
ATOM     13  C   UNL     1       2.565   6.636  17.561  0.00  0.00    +0.000 C 
ENDROOT
BRANCH  11  14
ATOM     14  C   UNL     1       1.421   8.225  20.308  0.00  0.00    +0.000 A 
ATOM     15  C   UNL     1       0.782   8.130  21.561  0.00  0.00    +0.000 A 
ATOM     16  C   UNL     1      -0.157   9.070  21.992  0.00  0.00    +0.000 A 
ATOM     17  C   UNL     1      -0.488  10.138  21.166  0.00  0.00    +0.000 A 
ATOM     18  C   UNL     1       0.124  10.260  19.921  0.00  0.00    +0.000 A 
ATOM     19  C   UNL     1       1.066   9.311  19.501  0.00  0.00    +0.000 A 
ENDBRANCH  11  14
TORSDOF 1
ENDMDL
MODEL 8
REMARK VINA RESULT:      -5.8      3.580      4.736
REMARK  Name = 
REMARK  1 active torsions:
REMARK  status: ('A' for Active; 'I' for Inactive)
REMARK    1  A    between atoms: N_11  and  C_12
REMARK                            x       y       z     vdW  Elec       q    Type
REMARK                         _______ _______ _______ _____ _____    ______ ____
ROOT
ATOM      1  O   UNL     1       3.445   3.136  18.095  0.00  0.00    +0.000 OA
ATOM      2  C   UNL     1       3.512   4.286  17.646  0.00  0.00    +0.000 C 
ATOM      3  N   UNL     1       4.496   4.597  16.735  0.00  0.00    +0.000 N 
ATOM      4  C   UNL     1       5.422   3.561  16.276  0.00  0.00    +0.000 C 
ATOM      5  C   UNL     1       6.730   4.307  16.046  0.00  0.00    +0.000 C 
ATOM      6  C   UNL     1       6.264   5.649  15.513  0.00  0.00    +0.000 C 
ATOM      7  C   UNL     1       4.942   5.883  16.228  0.00  0.00    +0.000 C 
ATOM      8  N   UNL     1       2.613   5.241  18.075  0.00  0.00    +0.000 N 
ATOM      9  C   UNL     1       1.796   4.959  19.271  0.00  0.00    +0.000 C 
ATOM     10  C   UNL     1       2.153   5.913  20.441  0.00  0.00    +0.000 C 
ATOM     11  N   UNL     1       2.250   7.335  20.023  0.00  0.00    +0.000 N 
ATOM     12  C   UNL     1       3.006   7.557  18.773  0.00  0.00    +0.000 C 
ATOM     13  C   UNL     1       2.453   6.639  17.673  0.00  0.00    +0.000 C 
ENDROOT
BRANCH  11  14
ATOM     14  C   UNL     1       1.318   8.300  20.383  0.00  0.00    +0.000 A 
ATOM     15  C   UNL     1       1.040   9.365  19.503  0.00  0.00    +0.000 A 
ATOM     16  C   UNL     1       0.118  10.367  19.814  0.00  0.00    +0.000 A 
ATOM     17  C   UNL     1      -0.552  10.330  21.031  0.00  0.00    +0.000 A 
ATOM     18  C   UNL     1      -0.299   9.292  21.924  0.00  0.00    +0.000 A 
ATOM     19  C   UNL     1       0.628   8.291  21.599  0.00  0.00    +0.000 A 
ENDBRANCH  11  14
TORSDOF 1
ENDMDL
MODEL 9
REMARK VINA RESULT:      -5.7      4.667      5.939
REMARK  Name = 
REMARK  1 active torsions:
REMARK  status: ('A' for Active; 'I' for Inactive)
REMARK    1  A    between atoms: N_11  and  C_12
REMARK                            x       y       z     vdW  Elec       q    Type
REMARK                         _______ _______ _______ _____ _____    ______ ____
ROOT
ATOM      1  O   UNL     1       3.805   5.021  20.190  0.00  0.00    +0.000 OA
ATOM      2  C   UNL     1       3.734   5.758  19.200  0.00  0.00    +0.000 C 
ATOM      3  N   UNL     1       4.797   5.817  18.327  0.00  0.00    +0.000 N 
ATOM      4  C   UNL     1       5.977   4.981  18.552  0.00  0.00    +0.000 C 
ATOM      5  C   UNL     1       7.135   5.826  18.040  0.00  0.00    +0.000 C 
ATOM      6  C   UNL     1       6.530   6.537  16.842  0.00  0.00    +0.000 C 
ATOM      7  C   UNL     1       5.075   6.736  17.238  0.00  0.00    +0.000 C 
ATOM      8  N   UNL     1       2.602   6.519  18.993  0.00  0.00    +0.000 N 
ATOM      9  C   UNL     1       1.639   6.672  20.101  0.00  0.00    +0.000 C 
ATOM     10  C   UNL     1       1.571   8.141  20.597  0.00  0.00    +0.000 C 
ATOM     11  N   UNL     1       1.471   9.124  19.488  0.00  0.00    +0.000 N 
ATOM     12  C   UNL     1       2.397   8.879  18.363  0.00  0.00    +0.000 C 
ATOM     13  C   UNL     1       2.255   7.423  17.896  0.00  0.00    +0.000 C 
ENDROOT
BRANCH  11  14
ATOM     14  C   UNL     1       0.317   9.849  19.216  0.00  0.00    +0.000 A 
ATOM     15  C   UNL     1      -0.329   9.694  17.973  0.00  0.00    +0.000 A 
ATOM     16  C   UNL     1      -1.486  10.401  17.641  0.00  0.00    +0.000 A 
ATOM     17  C   UNL     1      -2.029  11.298  18.555  0.00  0.00    +0.000 A 
ATOM     18  C   UNL     1      -1.413  11.477  19.791  0.00  0.00    +0.000 A 
ATOM     19  C   UNL     1      -0.252  10.760  20.112  0.00  0.00    +0.000 A 
ENDBRANCH  11  14
TORSDOF 1
ENDMDL
