MODEL 1
REMARK VINA RESULT:      -6.4      0.000      0.000
REMARK  Name = 
REMARK  6 active torsions:
REMARK  status: ('A' for Active; 'I' for Inactive)
REMARK    1  A    between atoms: C_2  and  C_4
REMARK    2  A    between atoms: C_4  and  O_5
REMARK    3  A    between atoms: O_5  and  C_6
REMARK    4  A    between atoms: C_12  and  C_13
REMARK    5  A    between atoms: C_15  and  C_16
REMARK    6  A    between atoms: C_16  and  N_17
REMARK                            x       y       z     vdW  Elec       q    Type
REMARK                         _______ _______ _______ _____ _____    ______ ____
ROOT
ATOM      1  C   UNL     1       3.495   5.235  19.110  0.00  0.00    +0.000 A 
ATOM      2  C   UNL     1       2.672   5.836  20.070  0.00  0.00    +0.000 A 
ATOM      3  C   UNL     1       2.114   7.093  19.836  0.00  0.00    +0.000 A 
ATOM      4  C   UNL     1       2.390   7.757  18.648  0.00  0.00    +0.000 A 
ATOM      5 CL   UNL     1       1.730   9.321  18.369  0.00  0.00    +0.000 Cl
ATOM      6  C   UNL     1       3.207   7.166  17.686  0.00  0.00    +0.000 A 
ATOM      7  C   UNL     1       3.764   5.888  17.883  0.00  0.00    +0.000 A 
ENDROOT
BRANCH   7   8
ATOM      8  C   UNL     1       4.638   5.268  16.810  0.00  0.00    +0.000 C 
ATOM      9  C   UNL     1       5.286   6.155  15.773  0.00  0.00    +0.000 C 
ATOM     10  C   UNL     1       6.144   5.494  16.817  0.00  0.00    +0.000 C 
BRANCH  10  11
ATOM     11  C   UNL     1       7.072   4.377  16.466  0.00  0.00    +0.000 C 
BRANCH  11  12
ATOM     12  N   UNL     1       8.016   4.196  17.558  0.00  0.00    +0.000 NA
ATOM     13  H   UNL     1       7.582   4.507  18.426  0.00  0.00    +0.000 HD
ATOM     14  H   UNL     1       8.815   4.812  17.412  0.00  0.00    +0.000 HD
ENDBRANCH  11  12
ENDBRANCH  10  11
ENDBRANCH   7   8
BRANCH   1  15
ATOM     15  O   UNL     1       4.143   4.039  19.301  0.00  0.00    +0.000 OA
BRANCH  15  16
ATOM     16  C   UNL     1       3.389   2.979  19.890  0.00  0.00    +0.000 C 
BRANCH  16  18
ATOM     17  C   UNL     1       1.274   2.348  18.629  0.00  0.00    +0.000 C 
ATOM     18  C   UNL     1       2.590   2.235  18.850  0.00  0.00    +0.000 C 
ATOM     19  F   UNL     1       3.271   1.382  18.047  0.00  0.00    +0.000 F 
ENDBRANCH  16  18
ENDBRANCH  15  16
ENDBRANCH   1  15
TORSDOF 6
ENDMDL
MODEL 2
REMARK VINA RESULT:      -6.2      3.169      4.495
REMARK  Name = 
REMARK  6 active torsions:
REMARK  status: ('A' for Active; 'I' for Inactive)
REMARK    1  A    between atoms: C_2  and  C_4
REMARK    2  A    between atoms: C_4  and  O_5
REMARK    3  A    between atoms: O_5  and  C_6
REMARK    4  A    between atoms: C_12  and  C_13
REMARK    5  A    between atoms: C_15  and  C_16
REMARK    6  A    between atoms: C_16  and  N_17
REMARK                            x       y       z     vdW  Elec       q    Type
REMARK                         _______ _______ _______ _____ _____    ______ ____
ROOT
ATOM      1  C   UNL     1       3.202   4.436  17.833  0.00  0.00    +0.000 A 
ATOM      2  C   UNL     1       4.297   3.618  17.526  0.00  0.00    +0.000 A 
ATOM      3  C   UNL     1       5.550   4.179  17.279  0.00  0.00    +0.000 A 
ATOM      4  C   UNL     1       5.707   5.558  17.323  0.00  0.00    +0.000 A 
ATOM      5 CL   UNL     1       7.244   6.254  16.987  0.00  0.00    +0.000 Cl
ATOM      6  C   UNL     1       4.624   6.380  17.629  0.00  0.00    +0.000 A 
ATOM      7  C   UNL     1       3.353   5.842  17.909  0.00  0.00    +0.000 A 
ENDROOT
BRANCH   7   8
ATOM      8  C   UNL     1       2.198   6.762  18.251  0.00  0.00    +0.000 C 
ATOM      9  C   UNL     1       2.157   7.433  19.605  0.00  0.00    +0.000 C 
ATOM     10  C   UNL     1       2.420   8.263  18.378  0.00  0.00    +0.000 C 
BRANCH  10  11
ATOM     11  C   UNL     1       1.398   9.220  17.854  0.00  0.00    +0.000 C 
BRANCH  11  12
ATOM     12  N   UNL     1       2.059  10.477  17.537  0.00  0.00    +0.000 NA
ATOM     13  H   UNL     1       2.679  10.334  16.741  0.00  0.00    +0.000 HD
ATOM     14  H   UNL     1       2.663  10.740  18.316  0.00  0.00    +0.000 HD
ENDBRANCH  11  12
ENDBRANCH  10  11
ENDBRANCH   7   8
BRANCH   1  15
ATOM     15  O   UNL     1       1.924   3.965  18.010  0.00  0.00    +0.000 OA
BRANCH  15  16
ATOM     16  C   UNL     1       1.754   2.873  18.915  0.00  0.00    +0.000 C 
BRANCH  16  18
ATOM     17  C   UNL     1       1.479   2.740  21.437  0.00  0.00    +0.000 C 
ATOM     18  C   UNL     1       1.280   3.352  20.263  0.00  0.00    +0.000 C 
ATOM     19  F   UNL     1       0.601   4.524  20.295  0.00  0.00    +0.000 F 
ENDBRANCH  16  18
ENDBRANCH  15  16
ENDBRANCH   1  15
TORSDOF 6
ENDMDL
MODEL 3
REMARK VINA RESULT:      -6.0      1.048      1.163
REMARK  Name = 
REMARK  6 active torsions:
REMARK  status: ('A' for Active; 'I' for Inactive)
REMARK    1  A    between atoms: C_2  and  C_4
REMARK    2  A    between atoms: C_4  and  O_5
REMARK    3  A    between atoms: O_5  and  C_6
REMARK    4  A    between atoms: C_12  and  C_13
REMARK    5  A    between atoms: C_15  and  C_16
REMARK    6  A    between atoms: C_16  and  N_17
REMARK                            x       y       z     vdW  Elec       q    Type
REMARK                         _______ _______ _______ _____ _____    ______ ____
ROOT
ATOM      1  C   UNL     1       3.284   4.983  19.598  0.00  0.00    +0.000 A 
ATOM      2  C   UNL     1       2.357   5.839  20.207  0.00  0.00    +0.000 A 
ATOM      3  C   UNL     1       2.048   7.072  19.629  0.00  0.00    +0.000 A 
ATOM      4  C   UNL     1       2.675   7.455  18.452  0.00  0.00    +0.000 A 
ATOM      5 CL   UNL     1       2.320   8.988  17.754  0.00  0.00    +0.000 Cl
ATOM      6  C   UNL     1       3.597   6.610  17.837  0.00  0.00    +0.000 A 
ATOM      7  C   UNL     1       3.910   5.350  18.382  0.00  0.00    +0.000 A 
ENDROOT
BRANCH   7   8
ATOM      8  C   UNL     1       4.908   4.447  17.683  0.00  0.00    +0.000 C 
ATOM      9  C   UNL     1       4.508   3.744  16.406  0.00  0.00    +0.000 C 
ATOM     10  C   UNL     1       5.517   4.859  16.349  0.00  0.00    +0.000 C 
BRANCH  10  11
ATOM     11  C   UNL     1       6.959   4.587  16.066  0.00  0.00    +0.000 C 
BRANCH  11  12
ATOM     12  N   UNL     1       7.427   5.546  15.078  0.00  0.00    +0.000 NA
ATOM     13  H   UNL     1       7.029   5.309  14.171  0.00  0.00    +0.000 HD
ATOM     14  H   UNL     1       8.437   5.449  14.972  0.00  0.00    +0.000 HD
ENDBRANCH  11  12
ENDBRANCH  10  11
ENDBRANCH   7   8
BRANCH   1  15
ATOM     15  O   UNL     1       3.697   3.794  20.146  0.00  0.00    +0.000 OA
BRANCH  15  16
ATOM     16  C   UNL     1       2.688   2.827  20.435  0.00  0.00    +0.000 C 
BRANCH  16  18
ATOM     17  C   UNL     1       0.873   2.363  18.719  0.00  0.00    +0.000 C 
ATOM     18  C   UNL     1       2.126   2.230  19.171  0.00  0.00    +0.000 C 
ATOM     19  F   UNL     1       2.975   1.502  18.405  0.00  0.00    +0.000 F 
ENDBRANCH  16  18
ENDBRANCH  15  16
ENDBRANCH   1  15
TORSDOF 6
ENDMDL
MODEL 4
REMARK VINA RESULT:      -6.0      3.525      5.256
REMARK  Name = 
REMARK  6 active torsions:
REMARK  status: ('A' for Active; 'I' for Inactive)
REMARK    1  A    between atoms: C_2  and  C_4
REMARK    2  A    between atoms: C_4  and  O_5
REMARK    3  A    between atoms: O_5  and  C_6
REMARK    4  A    between atoms: C_12  and  C_13
REMARK    5  A    between atoms: C_15  and  C_16
REMARK    6  A    between atoms: C_16  and  N_17
REMARK                            x       y       z     vdW  Elec       q    Type
REMARK                         _______ _______ _______ _____ _____    ______ ____
ROOT
ATOM      1  C   UNL     1       3.355   5.958  17.702  0.00  0.00    +0.000 A 
ATOM      2  C   UNL     1       4.402   6.847  17.429  0.00  0.00    +0.000 A 
ATOM      3  C   UNL     1       5.551   6.405  16.772  0.00  0.00    +0.000 A 
ATOM      4  C   UNL     1       5.660   5.072  16.400  0.00  0.00    +0.000 A 
ATOM      5 CL   UNL     1       7.088   4.516  15.618  0.00  0.00    +0.000 Cl
ATOM      6  C   UNL     1       4.622   4.180  16.666  0.00  0.00    +0.000 A 
ATOM      7  C   UNL     1       3.441   4.602  17.305  0.00  0.00    +0.000 A 
ENDROOT
BRANCH   7   8
ATOM      8  C   UNL     1       2.324   3.610  17.569  0.00  0.00    +0.000 C 
ATOM      9  C   UNL     1       2.655   2.145  17.733  0.00  0.00    +0.000 C 
ATOM     10  C   UNL     1       2.197   2.936  18.928  0.00  0.00    +0.000 C 
BRANCH  10  11
ATOM     11  C   UNL     1       0.849   2.716  19.534  0.00  0.00    +0.000 C 
BRANCH  11  12
ATOM     12  N   UNL     1       0.910   3.077  20.942  0.00  0.00    +0.000 NA
ATOM     13  H   UNL     1      -0.030   3.046  21.334  0.00  0.00    +0.000 HD
ATOM     14  H   UNL     1       1.213   4.047  21.024  0.00  0.00    +0.000 HD
ENDBRANCH  11  12
ENDBRANCH  10  11
ENDBRANCH   7   8
BRANCH   1  15
ATOM     15  O   UNL     1       2.231   6.300  18.414  0.00  0.00    +0.000 OA
BRANCH  15  16
ATOM     16  C   UNL     1       2.413   6.653  19.785  0.00  0.00    +0.000 C 
BRANCH  16  18
ATOM     17  C   UNL     1       1.207   8.324  21.272  0.00  0.00    +0.000 C 
ATOM     18  C   UNL     1       1.752   7.971  20.102  0.00  0.00    +0.000 C 
ATOM     19  F   UNL     1       1.722   8.896  19.113  0.00  0.00    +0.000 F 
ENDBRANCH  16  18
ENDBRANCH  15  16
ENDBRANCH   1  15
TORSDOF 6
ENDMDL
MODEL 5
REMARK VINA RESULT:      -6.0      1.274      1.314
REMARK  Name = 
REMARK  6 active torsions:
REMARK  status: ('A' for Active; 'I' for Inactive)
REMARK    1  A    between atoms: C_2  and  C_4
REMARK    2  A    between atoms: C_4  and  O_5
REMARK    3  A    between atoms: O_5  and  C_6
REMARK    4  A    between atoms: C_12  and  C_13
REMARK    5  A    between atoms: C_15  and  C_16
REMARK    6  A    between atoms: C_16  and  N_17
REMARK                            x       y       z     vdW  Elec       q    Type
REMARK                         _______ _______ _______ _____ _____    ______ ____
ROOT
ATOM      1  C   UNL     1       3.337   5.797  19.228  0.00  0.00    +0.000 A 
ATOM      2  C   UNL     1       2.491   6.519  20.079  0.00  0.00    +0.000 A 
ATOM      3  C   UNL     1       1.950   7.739  19.670  0.00  0.00    +0.000 A 
ATOM      4  C   UNL     1       2.265   8.244  18.416  0.00  0.00    +0.000 A 
ATOM      5 CL   UNL     1       1.626   9.762  17.920  0.00  0.00    +0.000 Cl
ATOM      6  C   UNL     1       3.105   7.532  17.561  0.00  0.00    +0.000 A 
ATOM      7  C   UNL     1       3.646   6.287  17.936  0.00  0.00    +0.000 A 
ENDROOT
BRANCH   7   8
ATOM      8  C   UNL     1       4.545   5.530  16.978  0.00  0.00    +0.000 C 
ATOM      9  C   UNL     1       5.255   6.281  15.874  0.00  0.00    +0.000 C 
ATOM     10  C   UNL     1       6.054   5.725  17.021  0.00  0.00    +0.000 C 
BRANCH  10  11
ATOM     11  C   UNL     1       6.968   4.557  16.837  0.00  0.00    +0.000 C 
BRANCH  11  12
ATOM     12  N   UNL     1       7.728   4.364  18.062  0.00  0.00    +0.000 NA
ATOM     13  H   UNL     1       7.385   3.531  18.538  0.00  0.00    +0.000 HD
ATOM     14  H   UNL     1       7.540   5.142  18.695  0.00  0.00    +0.000 HD
ENDBRANCH  11  12
ENDBRANCH  10  11
ENDBRANCH   7   8
BRANCH   1  15
ATOM     15  O   UNL     1       3.969   4.633  19.590  0.00  0.00    +0.000 OA
BRANCH  15  16
ATOM     16  C   UNL     1       3.239   3.418  19.421  0.00  0.00    +0.000 C 
BRANCH  16  18
ATOM     17  C   UNL     1       0.892   3.076  20.333  0.00  0.00    +0.000 C 
ATOM     18  C   UNL     1       2.209   3.245  20.507  0.00  0.00    +0.000 C 
ATOM     19  F   UNL     1       2.659   3.242  21.785  0.00  0.00    +0.000 F 
ENDBRANCH  16  18
ENDBRANCH  15  16
ENDBRANCH   1  15
TORSDOF 6
ENDMDL
MODEL 6
REMARK VINA RESULT:      -6.0      3.679      5.508
REMARK  Name = 
REMARK  6 active torsions:
REMARK  status: ('A' for Active; 'I' for Inactive)
REMARK    1  A    between atoms: C_2  and  C_4
REMARK    2  A    between atoms: C_4  and  O_5
REMARK    3  A    between atoms: O_5  and  C_6
REMARK    4  A    between atoms: C_12  and  C_13
REMARK    5  A    between atoms: C_15  and  C_16
REMARK    6  A    between atoms: C_16  and  N_17
REMARK                            x       y       z     vdW  Elec       q    Type
REMARK                         _______ _______ _______ _____ _____    ______ ____
ROOT
ATOM      1  C   UNL     1       3.417   6.140  18.073  0.00  0.00    +0.000 A 
ATOM      2  C   UNL     1       4.490   6.734  17.397  0.00  0.00    +0.000 A 
ATOM      3  C   UNL     1       5.258   5.991  16.500  0.00  0.00    +0.000 A 
ATOM      4  C   UNL     1       4.963   4.651  16.288  0.00  0.00    +0.000 A 
ATOM      5 CL   UNL     1       5.928   3.724  15.206  0.00  0.00    +0.000 Cl
ATOM      6  C   UNL     1       3.897   4.051  16.955  0.00  0.00    +0.000 A 
ATOM      7  C   UNL     1       3.089   4.781  17.848  0.00  0.00    +0.000 A 
ENDROOT
BRANCH   7   8
ATOM      8  C   UNL     1       1.927   4.103  18.548  0.00  0.00    +0.000 C 
ATOM      9  C   UNL     1       1.694   2.624  18.341  0.00  0.00    +0.000 C 
ATOM     10  C   UNL     1       2.179   3.115  19.678  0.00  0.00    +0.000 C 
BRANCH  10  11
ATOM     11  C   UNL     1       1.289   3.103  20.879  0.00  0.00    +0.000 C 
BRANCH  11  12
ATOM     12  N   UNL     1       2.119   3.165  22.072  0.00  0.00    +0.000 NA
ATOM     13  H   UNL     1       3.088   2.984  21.813  0.00  0.00    +0.000 HD
ATOM     14  H   UNL     1       1.854   2.407  22.700  0.00  0.00    +0.000 HD
ENDBRANCH  11  12
ENDBRANCH  10  11
ENDBRANCH   7   8
BRANCH   1  15
ATOM     15  O   UNL     1       2.668   6.783  19.029  0.00  0.00    +0.000 OA
BRANCH  15  16
ATOM     16  C   UNL     1       2.170   8.079  18.699  0.00  0.00    +0.000 C 
BRANCH  16  18
ATOM     17  C   UNL     1       1.237   8.133  21.062  0.00  0.00    +0.000 C 
ATOM     18  C   UNL     1       1.418   8.685  19.856  0.00  0.00    +0.000 C 
ATOM     19  F   UNL     1       0.886   9.917  19.665  0.00  0.00    +0.000 F 
ENDBRANCH  16  18
ENDBRANCH  15  16
ENDBRANCH   1  15
TORSDOF 6
ENDMDL
MODEL 7
REMARK VINA RESULT:      -6.0      1.671      1.807
REMARK  Name = 
REMARK  6 active torsions:
REMARK  status: ('A' for Active; 'I' for Inactive)
REMARK    1  A    between atoms: C_2  and  C_4
REMARK    2  A    between atoms: C_4  and  O_5
REMARK    3  A    between atoms: O_5  and  C_6
REMARK    4  A    between atoms: C_12  and  C_13
REMARK    5  A    between atoms: C_15  and  C_16
REMARK    6  A    between atoms: C_16  and  N_17
REMARK                            x       y       z     vdW  Elec       q    Type
REMARK                         _______ _______ _______ _____ _____    ______ ____
ROOT
ATOM      1  C   UNL     1       2.550   6.207  19.652  0.00  0.00    +0.000 A 
ATOM      2  C   UNL     1       1.776   7.088  20.418  0.00  0.00    +0.000 A 
ATOM      3  C   UNL     1       1.502   8.375  19.953  0.00  0.00    +0.000 A 
ATOM      4  C   UNL     1       2.013   8.786  18.729  0.00  0.00    +0.000 A 
ATOM      5 CL   UNL     1       1.704  10.383  18.168  0.00  0.00    +0.000 Cl
ATOM      6  C   UNL     1       2.783   7.916  17.959  0.00  0.00    +0.000 A 
ATOM      7  C   UNL     1       3.055   6.604  18.391  0.00  0.00    +0.000 A 
ENDROOT
BRANCH   7   8
ATOM      8  C   UNL     1       3.885   5.677  17.524  0.00  0.00    +0.000 C 
ATOM      9  C   UNL     1       4.851   6.263  16.520  0.00  0.00    +0.000 C 
ATOM     10  C   UNL     1       5.388   5.562  17.738  0.00  0.00    +0.000 C 
BRANCH  10  11
ATOM     11  C   UNL     1       6.061   4.232  17.633  0.00  0.00    +0.000 C 
BRANCH  11  12
ATOM     12  N   UNL     1       7.361   4.418  17.007  0.00  0.00    +0.000 NA
ATOM     13  H   UNL     1       8.044   4.660  17.723  0.00  0.00    +0.000 HD
ATOM     14  H   UNL     1       7.317   5.224  16.383  0.00  0.00    +0.000 HD
ENDBRANCH  11  12
ENDBRANCH  10  11
ENDBRANCH   7   8
BRANCH   1  15
ATOM     15  O   UNL     1       2.927   4.956  20.078  0.00  0.00    +0.000 OA
BRANCH  15  16
ATOM     16  C   UNL     1       2.294   4.453  21.254  0.00  0.00    +0.000 C 
BRANCH  16  18
ATOM     17  C   UNL     1       0.856   3.005  19.740  0.00  0.00    +0.000 C 
ATOM     18  C   UNL     1       1.395   3.286  20.933  0.00  0.00    +0.000 C 
ATOM     19  F   UNL     1       1.119   2.427  21.943  0.00  0.00    +0.000 F 
ENDBRANCH  16  18
ENDBRANCH  15  16
ENDBRANCH   1  15
TORSDOF 6
ENDMDL
MODEL 8
REMARK VINA RESULT:      -6.0      1.678      1.952
REMARK  Name = 
REMARK  6 active torsions:
REMARK  status: ('A' for Active; 'I' for Inactive)
REMARK    1  A    between atoms: C_2  and  C_4
REMARK    2  A    between atoms: C_4  and  O_5
REMARK    3  A    between atoms: O_5  and  C_6
REMARK    4  A    between atoms: C_12  and  C_13
REMARK    5  A    between atoms: C_15  and  C_16
REMARK    6  A    between atoms: C_16  and  N_17
REMARK                            x       y       z     vdW  Elec       q    Type
REMARK                         _______ _______ _______ _____ _____    ______ ____
ROOT
ATOM      1  C   UNL     1       2.322   6.532  19.858  0.00  0.00    +0.000 A 
ATOM      2  C   UNL     1       1.546   7.374  20.665  0.00  0.00    +0.000 A 
ATOM      3  C   UNL     1       1.196   8.651  20.222  0.00  0.00    +0.000 A 
ATOM      4  C   UNL     1       1.633   9.091  18.981  0.00  0.00    +0.000 A 
ATOM      5 CL   UNL     1       1.231  10.677  18.446  0.00  0.00    +0.000 Cl
ATOM      6  C   UNL     1       2.405   8.260  18.170  0.00  0.00    +0.000 A 
ATOM      7  C   UNL     1       2.752   6.958  18.579  0.00  0.00    +0.000 A 
ENDROOT
BRANCH   7   8
ATOM      8  C   UNL     1       3.582   6.073  17.668  0.00  0.00    +0.000 C 
ATOM      9  C   UNL     1       4.712   6.680  16.870  0.00  0.00    +0.000 C 
ATOM     10  C   UNL     1       5.030   5.755  18.013  0.00  0.00    +0.000 C 
BRANCH  10  11
ATOM     11  C   UNL     1       5.575   4.384  17.775  0.00  0.00    +0.000 C 
BRANCH  11  12
ATOM     12  N   UNL     1       5.425   3.606  18.995  0.00  0.00    +0.000 NA
ATOM     13  H   UNL     1       5.517   2.617  18.771  0.00  0.00    +0.000 HD
ATOM     14  H   UNL     1       4.474   3.723  19.348  0.00  0.00    +0.000 HD
ENDBRANCH  11  12
ENDBRANCH  10  11
ENDBRANCH   7   8
BRANCH   1  15
ATOM     15  O   UNL     1       2.771   5.297  20.257  0.00  0.00    +0.000 OA
BRANCH  15  16
ATOM     16  C   UNL     1       1.785   4.295  20.502  0.00  0.00    +0.000 C 
BRANCH  16  18
ATOM     17  C   UNL     1       1.884   2.119  19.193  0.00  0.00    +0.000 C 
ATOM     18  C   UNL     1       1.583   3.420  19.292  0.00  0.00    +0.000 C 
ATOM     19  F   UNL     1       1.026   4.000  18.201  0.00  0.00    +0.000 F 
ENDBRANCH  16  18
ENDBRANCH  15  16
ENDBRANCH   1  15
TORSDOF 6
ENDMDL
MODEL 9
REMARK VINA RESULT:      -5.9      3.255      5.158
REMARK  Name = 
REMARK  6 active torsions:
REMARK  status: ('A' for Active; 'I' for Inactive)
REMARK    1  A    between atoms: C_2  and  C_4
REMARK    2  A    between atoms: C_4  and  O_5
REMARK    3  A    between atoms: O_5  and  C_6
REMARK    4  A    between atoms: C_12  and  C_13
REMARK    5  A    between atoms: C_15  and  C_16
REMARK    6  A    between atoms: C_16  and  N_17
REMARK                            x       y       z     vdW  Elec       q    Type
REMARK                         _______ _______ _______ _____ _____    ______ ____
ROOT
ATOM      1  C   UNL     1       3.677   5.783  17.874  0.00  0.00    +0.000 A 
ATOM      2  C   UNL     1       4.553   6.649  17.209  0.00  0.00    +0.000 A 
ATOM      3  C   UNL     1       5.385   6.171  16.195  0.00  0.00    +0.000 A 
ATOM      4  C   UNL     1       5.353   4.825  15.858  0.00  0.00    +0.000 A 
ATOM      5 CL   UNL     1       6.400   4.226  14.631  0.00  0.00    +0.000 Cl
ATOM      6  C   UNL     1       4.483   3.956  16.514  0.00  0.00    +0.000 A 
ATOM      7  C   UNL     1       3.614   4.414  17.522  0.00  0.00    +0.000 A 
ENDROOT
BRANCH   7   8
ATOM      8  C   UNL     1       2.670   3.445  18.208  0.00  0.00    +0.000 C 
ATOM      9  C   UNL     1       3.051   1.986  18.317  0.00  0.00    +0.000 C 
ATOM     10  C   UNL     1       3.034   2.839  19.556  0.00  0.00    +0.000 C 
BRANCH  10  11
ATOM     11  C   UNL     1       1.985   2.660  20.607  0.00  0.00    +0.000 C 
BRANCH  11  12
ATOM     12  N   UNL     1       2.633   2.641  21.909  0.00  0.00    +0.000 NA
ATOM     13  H   UNL     1       3.268   1.845  21.953  0.00  0.00    +0.000 HD
ATOM     14  H   UNL     1       1.928   2.473  22.628  0.00  0.00    +0.000 HD
ENDBRANCH  11  12
ENDBRANCH  10  11
ENDBRANCH   7   8
BRANCH   1  15
ATOM     15  O   UNL     1       2.888   6.163  18.933  0.00  0.00    +0.000 OA
BRANCH  15  16
ATOM     16  C   UNL     1       2.382   7.498  18.920  0.00  0.00    +0.000 C 
BRANCH  16  18
ATOM     17  C   UNL     1       1.138   9.004  20.545  0.00  0.00    +0.000 C 
ATOM     18  C   UNL     1       1.649   7.816  20.198  0.00  0.00    +0.000 C 
ATOM     19  F   UNL     1       1.473   6.798  21.074  0.00  0.00    +0.000 F 
ENDBRANCH  16  18
ENDBRANCH  15  16
ENDBRANCH   1  15
TORSDOF 6
ENDMDL
