MODEL 1
REMARK VINA RESULT:      -7.7      0.000      0.000
REMARK  Name = 
REMARK  7 active torsions:
REMARK  status: ('A' for Active; 'I' for Inactive)
REMARK    1  A    between atoms: C_1  and  C_2
REMARK    2  A    between atoms: C_2  and  C_4
REMARK    3  A    between atoms: C_8  and  N_9
REMARK    4  A    between atoms: C_10  and  C_12
REMARK    5  A    between atoms: C_13  and  N_14
REMARK    6  A    between atoms: C_20  and  C_21
REMARK    7  A    between atoms: C_22  and  C_23
REMARK                            x       y       z     vdW  Elec       q    Type
REMARK                         _______ _______ _______ _____ _____    ______ ____
ROOT
ATOM      1  N   UNL     1       4.933   5.018  15.798  0.00  0.00    +0.000 N 
ATOM      2  C   UNL     1       5.319   4.900  17.119  0.00  0.00    +0.000 C 
ATOM      3  O   UNL     1       6.436   4.587  17.506  0.00  0.00    +0.000 OA
ATOM      4  H   UNL     1       4.032   5.443  15.625  0.00  0.00    +0.000 HD
ENDROOT
BRANCH   2   5
ATOM      5  C   UNL     1       4.274   5.254  18.093  0.00  0.00    +0.000 A 
ATOM      6  C   UNL     1       3.653   4.317  18.913  0.00  0.00    +0.000 A 
ATOM      7  S   UNL     1       2.352   4.964  19.794  0.00  0.00    +0.000 S 
ATOM      8  C   UNL     1       2.659   6.540  19.233  0.00  0.00    +0.000 A 
ATOM      9  C   UNL     1       1.845   7.676  19.768  0.00  0.00    +0.000 C 
ATOM     10  C   UNL     1       3.651   6.570  18.263  0.00  0.00    +0.000 A 
ATOM     11  C   UNL     1       3.991   7.803  17.476  0.00  0.00    +0.000 C 
BRANCH   6  12
ATOM     12  N   UNL     1       3.974   2.975  19.142  0.00  0.00    +0.000 N 
ATOM     13  C   UNL     1       3.586   1.821  18.507  0.00  0.00    +0.000 A 
ATOM     14  N   UNL     1       4.194   0.791  19.052  0.00  0.00    +0.000 NA
ATOM     15  N   UNL     1       4.981   1.310  20.044  0.00  0.00    +0.000 NA
ATOM     16  N   UNL     1       4.883   2.631  20.088  0.00  0.00    +0.000 NA
ENDBRANCH   6  12
ENDBRANCH   2   5
BRANCH   1  21
ATOM     17  C   UNL     1       5.810   3.510  12.530  0.00  0.00    +0.000 A 
ATOM     18  C   UNL     1       7.085   4.033  12.302  0.00  0.00    +0.000 A 
ATOM     19  C   UNL     1       7.670   4.873  13.248  0.00  0.00    +0.000 A 
ATOM     20  C   UNL     1       6.982   5.205  14.418  0.00  0.00    +0.000 A 
ATOM     21  C   UNL     1       5.698   4.708  14.654  0.00  0.00    +0.000 A 
ATOM     22  C   UNL     1       5.126   3.844  13.711  0.00  0.00    +0.000 A 
BRANCH  17  24
ATOM     23  C   UNL     1       3.840   3.033  10.928  0.00  0.00    +0.000 C 
ATOM     24  C   UNL     1       5.145   2.606  11.550  0.00  0.00    +0.000 C 
ATOM     25  O   UNL     1       5.669   1.532  11.260  0.00  0.00    +0.000 OA
ENDBRANCH  17  24
ENDBRANCH   1  21
TORSDOF 4
ENDMDL
MODEL 2
REMARK VINA RESULT:      -7.6      4.177      8.023
REMARK  Name = 
REMARK  7 active torsions:
REMARK  status: ('A' for Active; 'I' for Inactive)
REMARK    1  A    between atoms: C_1  and  C_2
REMARK    2  A    between atoms: C_2  and  C_4
REMARK    3  A    between atoms: C_8  and  N_9
REMARK    4  A    between atoms: C_10  and  C_12
REMARK    5  A    between atoms: C_13  and  N_14
REMARK    6  A    between atoms: C_20  and  C_21
REMARK    7  A    between atoms: C_22  and  C_23
REMARK                            x       y       z     vdW  Elec       q    Type
REMARK                         _______ _______ _______ _____ _____    ______ ____
ROOT
ATOM      1  N   UNL     1       2.493   7.663  19.297  0.00  0.00    +0.000 N 
ATOM      2  C   UNL     1       3.052   7.325  18.080  0.00  0.00    +0.000 C 
ATOM      3  O   UNL     1       2.854   7.907  17.023  0.00  0.00    +0.000 OA
ATOM      4  H   UNL     1       2.872   7.202  20.114  0.00  0.00    +0.000 HD
ENDROOT
BRANCH   2   5
ATOM      5  C   UNL     1       4.004   6.204  18.138  0.00  0.00    +0.000 A 
ATOM      6  C   UNL     1       3.705   4.985  18.737  0.00  0.00    +0.000 A 
ATOM      7  S   UNL     1       5.046   3.946  18.835  0.00  0.00    +0.000 S 
ATOM      8  C   UNL     1       6.034   5.016  17.955  0.00  0.00    +0.000 A 
ATOM      9  C   UNL     1       7.423   4.596  17.593  0.00  0.00    +0.000 C 
ATOM     10  C   UNL     1       5.405   6.228  17.706  0.00  0.00    +0.000 A 
ATOM     11  C   UNL     1       6.112   7.409  17.107  0.00  0.00    +0.000 C 
BRANCH   6  12
ATOM     12  N   UNL     1       2.482   4.494  19.207  0.00  0.00    +0.000 N 
ATOM     13  C   UNL     1       1.567   3.636  18.648  0.00  0.00    +0.000 A 
ATOM     14  N   UNL     1       0.584   3.427  19.494  0.00  0.00    +0.000 NA
ATOM     15  N   UNL     1       0.891   4.164  20.606  0.00  0.00    +0.000 NA
ATOM     16  N   UNL     1       2.052   4.787  20.458  0.00  0.00    +0.000 NA
ENDBRANCH   6  12
ENDBRANCH   2   5
BRANCH   1  21
ATOM     17  C   UNL     1       0.229   9.884  21.211  0.00  0.00    +0.000 A 
ATOM     18  C   UNL     1      -0.367  10.635  20.196  0.00  0.00    +0.000 A 
ATOM     19  C   UNL     1      -0.036  10.388  18.864  0.00  0.00    +0.000 A 
ATOM     20  C   UNL     1       0.900   9.402  18.542  0.00  0.00    +0.000 A 
ATOM     21  C   UNL     1       1.522   8.656  19.545  0.00  0.00    +0.000 A 
ATOM     22  C   UNL     1       1.166   8.891  20.879  0.00  0.00    +0.000 A 
BRANCH  17  24
ATOM     23  C   UNL     1      -1.295  10.946  23.007  0.00  0.00    +0.000 C 
ATOM     24  C   UNL     1      -0.095  10.108  22.648  0.00  0.00    +0.000 C 
ATOM     25  O   UNL     1       0.614   9.605  23.517  0.00  0.00    +0.000 OA
ENDBRANCH  17  24
ENDBRANCH   1  21
TORSDOF 4
ENDMDL
MODEL 3
REMARK VINA RESULT:      -7.6      2.429      3.751
REMARK  Name = 
REMARK  7 active torsions:
REMARK  status: ('A' for Active; 'I' for Inactive)
REMARK    1  A    between atoms: C_1  and  C_2
REMARK    2  A    between atoms: C_2  and  C_4
REMARK    3  A    between atoms: C_8  and  N_9
REMARK    4  A    between atoms: C_10  and  C_12
REMARK    5  A    between atoms: C_13  and  N_14
REMARK    6  A    between atoms: C_20  and  C_21
REMARK    7  A    between atoms: C_22  and  C_23
REMARK                            x       y       z     vdW  Elec       q    Type
REMARK                         _______ _______ _______ _____ _____    ______ ____
ROOT
ATOM      1  N   UNL     1       4.627   4.544  16.841  0.00  0.00    +0.000 N 
ATOM      2  C   UNL     1       4.848   4.968  18.136  0.00  0.00    +0.000 C 
ATOM      3  O   UNL     1       5.849   5.547  18.532  0.00  0.00    +0.000 OA
ATOM      4  H   UNL     1       3.691   4.228  16.619  0.00  0.00    +0.000 HD
ENDROOT
BRANCH   2   5
ATOM      5  C   UNL     1       3.723   4.729  19.056  0.00  0.00    +0.000 A 
ATOM      6  C   UNL     1       2.795   5.710  19.390  0.00  0.00    +0.000 A 
ATOM      7  S   UNL     1       1.726   5.223  20.617  0.00  0.00    +0.000 S 
ATOM      8  C   UNL     1       2.359   3.644  20.645  0.00  0.00    +0.000 A 
ATOM      9  C   UNL     1       1.719   2.617  21.525  0.00  0.00    +0.000 C 
ATOM     10  C   UNL     1       3.478   3.511  19.834  0.00  0.00    +0.000 A 
ATOM     11  C   UNL     1       4.333   2.277  19.814  0.00  0.00    +0.000 C 
BRANCH   6  12
ATOM     12  N   UNL     1       2.596   6.980  18.838  0.00  0.00    +0.000 N 
ATOM     13  C   UNL     1       2.904   7.498  17.603  0.00  0.00    +0.000 A 
ATOM     14  N   UNL     1       2.473   8.737  17.525  0.00  0.00    +0.000 NA
ATOM     15  N   UNL     1       1.881   8.999  18.730  0.00  0.00    +0.000 NA
ATOM     16  N   UNL     1       1.918   7.935  19.521  0.00  0.00    +0.000 NA
ENDBRANCH   6  12
ENDBRANCH   2   5
BRANCH   1  21
ATOM     17  C   UNL     1       6.024   3.914  13.468  0.00  0.00    +0.000 A 
ATOM     18  C   UNL     1       7.214   4.644  13.507  0.00  0.00    +0.000 A 
ATOM     19  C   UNL     1       7.570   5.332  14.666  0.00  0.00    +0.000 A 
ATOM     20  C   UNL     1       6.735   5.304  15.786  0.00  0.00    +0.000 A 
ATOM     21  C   UNL     1       5.531   4.597  15.759  0.00  0.00    +0.000 A 
ATOM     22  C   UNL     1       5.192   3.887  14.600  0.00  0.00    +0.000 A 
BRANCH  17  24
ATOM     23  C   UNL     1       4.254   3.448  11.644  0.00  0.00    +0.000 C 
ATOM     24  C   UNL     1       5.603   3.161  12.254  0.00  0.00    +0.000 C 
ATOM     25  O   UNL     1       6.359   2.323  11.764  0.00  0.00    +0.000 OA
ENDBRANCH  17  24
ENDBRANCH   1  21
TORSDOF 4
ENDMDL
MODEL 4
REMARK VINA RESULT:      -7.5      4.353      8.229
REMARK  Name = 
REMARK  7 active torsions:
REMARK  status: ('A' for Active; 'I' for Inactive)
REMARK    1  A    between atoms: C_1  and  C_2
REMARK    2  A    between atoms: C_2  and  C_4
REMARK    3  A    between atoms: C_8  and  N_9
REMARK    4  A    between atoms: C_10  and  C_12
REMARK    5  A    between atoms: C_13  and  N_14
REMARK    6  A    between atoms: C_20  and  C_21
REMARK    7  A    between atoms: C_22  and  C_23
REMARK                            x       y       z     vdW  Elec       q    Type
REMARK                         _______ _______ _______ _____ _____    ______ ____
ROOT
ATOM      1  N   UNL     1       2.341   7.170  19.140  0.00  0.00    +0.000 N 
ATOM      2  C   UNL     1       3.148   6.957  18.040  0.00  0.00    +0.000 C 
ATOM      3  O   UNL     1       3.468   7.805  17.220  0.00  0.00    +0.000 OA
ATOM      4  H   UNL     1       2.294   6.424  19.822  0.00  0.00    +0.000 HD
ENDROOT
BRANCH   2   5
ATOM      5  C   UNL     1       3.687   5.590  17.937  0.00  0.00    +0.000 A 
ATOM      6  C   UNL     1       5.033   5.321  17.713  0.00  0.00    +0.000 A 
ATOM      7  S   UNL     1       5.344   3.673  17.440  0.00  0.00    +0.000 S 
ATOM      8  C   UNL     1       3.730   3.239  17.755  0.00  0.00    +0.000 A 
ATOM      9  C   UNL     1       3.354   1.791  17.771  0.00  0.00    +0.000 C 
ATOM     10  C   UNL     1       2.911   4.347  17.925  0.00  0.00    +0.000 A 
ATOM     11  C   UNL     1       1.416   4.251  18.036  0.00  0.00    +0.000 C 
BRANCH   6  12
ATOM     12  N   UNL     1       6.134   6.184  17.733  0.00  0.00    +0.000 N 
ATOM     13  C   UNL     1       7.136   6.365  18.654  0.00  0.00    +0.000 A 
ATOM     14  N   UNL     1       7.987   7.263  18.210  0.00  0.00    +0.000 NA
ATOM     15  N   UNL     1       7.511   7.648  16.986  0.00  0.00    +0.000 NA
ATOM     16  N   UNL     1       6.411   6.980  16.671  0.00  0.00    +0.000 NA
ENDBRANCH   6  12
ENDBRANCH   2   5
BRANCH   1  21
ATOM     17  C   UNL     1       0.642   9.705  21.242  0.00  0.00    +0.000 A 
ATOM     18  C   UNL     1       0.313  10.686  20.304  0.00  0.00    +0.000 A 
ATOM     19  C   UNL     1       0.635  10.497  18.960  0.00  0.00    +0.000 A 
ATOM     20  C   UNL     1       1.296   9.337  18.550  0.00  0.00    +0.000 A 
ATOM     21  C   UNL     1       1.651   8.355  19.477  0.00  0.00    +0.000 A 
ATOM     22  C   UNL     1       1.303   8.539  20.821  0.00  0.00    +0.000 A 
BRANCH  17  24
ATOM     23  C   UNL     1      -1.017  10.438  23.082  0.00  0.00    +0.000 C 
ATOM     24  C   UNL     1       0.318   9.859  22.688  0.00  0.00    +0.000 C 
ATOM     25  O   UNL     1       1.137   9.510  23.536  0.00  0.00    +0.000 OA
ENDBRANCH  17  24
ENDBRANCH   1  21
TORSDOF 4
ENDMDL
MODEL 5
REMARK VINA RESULT:      -7.4      4.008      7.871
REMARK  Name = 
REMARK  7 active torsions:
REMARK  status: ('A' for Active; 'I' for Inactive)
REMARK    1  A    between atoms: C_1  and  C_2
REMARK    2  A    between atoms: C_2  and  C_4
REMARK    3  A    between atoms: C_8  and  N_9
REMARK    4  A    between atoms: C_10  and  C_12
REMARK    5  A    between atoms: C_13  and  N_14
REMARK    6  A    between atoms: C_20  and  C_21
REMARK    7  A    between atoms: C_22  and  C_23
REMARK                            x       y       z     vdW  Elec       q    Type
REMARK                         _______ _______ _______ _____ _____    ______ ____
ROOT
ATOM      1  N   UNL     1       2.592   7.630  19.093  0.00  0.00    +0.000 N 
ATOM      2  C   UNL     1       2.436   6.479  18.347  0.00  0.00    +0.000 C 
ATOM      3  O   UNL     1       1.451   6.193  17.680  0.00  0.00    +0.000 OA
ATOM      4  H   UNL     1       3.517   7.812  19.459  0.00  0.00    +0.000 HD
ENDROOT
BRANCH   2   5
ATOM      5  C   UNL     1       3.610   5.591  18.344  0.00  0.00    +0.000 A 
ATOM      6  C   UNL     1       3.693   4.440  19.121  0.00  0.00    +0.000 A 
ATOM      7  S   UNL     1       5.229   3.716  19.074  0.00  0.00    +0.000 S 
ATOM      8  C   UNL     1       5.795   4.816  17.907  0.00  0.00    +0.000 A 
ATOM      9  C   UNL     1       7.164   4.632  17.333  0.00  0.00    +0.000 C 
ATOM     10  C   UNL     1       4.879   5.828  17.650  0.00  0.00    +0.000 A 
ATOM     11  C   UNL     1       5.197   7.023  16.799  0.00  0.00    +0.000 C 
BRANCH   6  12
ATOM     12  N   UNL     1       2.704   3.791  19.870  0.00  0.00    +0.000 N 
ATOM     13  C   UNL     1       2.372   3.862  21.201  0.00  0.00    +0.000 A 
ATOM     14  N   UNL     1       1.328   3.099  21.436  0.00  0.00    +0.000 NA
ATOM     15  N   UNL     1       0.998   2.544  20.229  0.00  0.00    +0.000 NA
ATOM     16  N   UNL     1       1.800   2.980  19.268  0.00  0.00    +0.000 NA
ENDBRANCH   6  12
ENDBRANCH   2   5
BRANCH   1  21
ATOM     17  C   UNL     1       0.331   9.898  20.956  0.00  0.00    +0.000 A 
ATOM     18  C   UNL     1      -0.239  10.648  19.926  0.00  0.00    +0.000 A 
ATOM     19  C   UNL     1       0.108  10.387  18.601  0.00  0.00    +0.000 A 
ATOM     20  C   UNL     1       1.035   9.385  18.300  0.00  0.00    +0.000 A 
ATOM     21  C   UNL     1       1.631   8.639  19.319  0.00  0.00    +0.000 A 
ATOM     22  C   UNL     1       1.259   8.889  20.645  0.00  0.00    +0.000 A 
BRANCH  17  24
ATOM     23  C   UNL     1      -1.173  11.036  22.721  0.00  0.00    +0.000 C 
ATOM     24  C   UNL     1      -0.010  10.138  22.386  0.00  0.00    +0.000 C 
ATOM     25  O   UNL     1       0.655   9.600  23.269  0.00  0.00    +0.000 OA
ENDBRANCH  17  24
ENDBRANCH   1  21
TORSDOF 4
ENDMDL
MODEL 6
REMARK VINA RESULT:      -7.4      2.401      3.303
REMARK  Name = 
REMARK  7 active torsions:
REMARK  status: ('A' for Active; 'I' for Inactive)
REMARK    1  A    between atoms: C_1  and  C_2
REMARK    2  A    between atoms: C_2  and  C_4
REMARK    3  A    between atoms: C_8  and  N_9
REMARK    4  A    between atoms: C_10  and  C_12
REMARK    5  A    between atoms: C_13  and  N_14
REMARK    6  A    between atoms: C_20  and  C_21
REMARK    7  A    between atoms: C_22  and  C_23
REMARK                            x       y       z     vdW  Elec       q    Type
REMARK                         _______ _______ _______ _____ _____    ______ ____
ROOT
ATOM      1  N   UNL     1       5.407   4.774  15.526  0.00  0.00    +0.000 N 
ATOM      2  C   UNL     1       5.009   3.832  16.453  0.00  0.00    +0.000 C 
ATOM      3  O   UNL     1       5.250   2.634  16.396  0.00  0.00    +0.000 OA
ATOM      4  H   UNL     1       5.282   5.745  15.782  0.00  0.00    +0.000 HD
ENDROOT
BRANCH   2   5
ATOM      5  C   UNL     1       4.293   4.385  17.615  0.00  0.00    +0.000 A 
ATOM      6  C   UNL     1       4.826   5.376  18.433  0.00  0.00    +0.000 A 
ATOM      7  S   UNL     1       3.876   5.685  19.807  0.00  0.00    +0.000 S 
ATOM      8  C   UNL     1       2.651   4.623  19.291  0.00  0.00    +0.000 A 
ATOM      9  C   UNL     1       1.392   4.519  20.091  0.00  0.00    +0.000 C 
ATOM     10  C   UNL     1       3.013   3.916  18.153  0.00  0.00    +0.000 A 
ATOM     11  C   UNL     1       2.193   2.789  17.593  0.00  0.00    +0.000 C 
BRANCH   6  12
ATOM     12  N   UNL     1       5.971   6.161  18.259  0.00  0.00    +0.000 N 
ATOM     13  C   UNL     1       7.218   6.099  18.831  0.00  0.00    +0.000 A 
ATOM     14  N   UNL     1       7.989   7.027  18.311  0.00  0.00    +0.000 NA
ATOM     15  N   UNL     1       7.213   7.680  17.393  0.00  0.00    +0.000 NA
ATOM     16  N   UNL     1       6.001   7.146  17.327  0.00  0.00    +0.000 NA
ENDBRANCH   6  12
ENDBRANCH   2   5
BRANCH   1  21
ATOM     17  C   UNL     1       6.107   3.292  12.203  0.00  0.00    +0.000 A 
ATOM     18  C   UNL     1       7.244   3.997  11.805  0.00  0.00    +0.000 A 
ATOM     19  C   UNL     1       7.800   4.954  12.652  0.00  0.00    +0.000 A 
ATOM     20  C   UNL     1       7.216   5.221  13.893  0.00  0.00    +0.000 A 
ATOM     21  C   UNL     1       6.066   4.541  14.300  0.00  0.00    +0.000 A 
ATOM     22  C   UNL     1       5.528   3.562  13.454  0.00  0.00    +0.000 A 
BRANCH  17  24
ATOM     23  C   UNL     1       6.268   1.025  10.973  0.00  0.00    +0.000 C 
ATOM     24  C   UNL     1       5.479   2.258  11.334  0.00  0.00    +0.000 C 
ATOM     25  O   UNL     1       4.329   2.420  10.929  0.00  0.00    +0.000 OA
ENDBRANCH  17  24
ENDBRANCH   1  21
TORSDOF 4
ENDMDL
MODEL 7
REMARK VINA RESULT:      -7.4      4.504      8.447
REMARK  Name = 
REMARK  7 active torsions:
REMARK  status: ('A' for Active; 'I' for Inactive)
REMARK    1  A    between atoms: C_1  and  C_2
REMARK    2  A    between atoms: C_2  and  C_4
REMARK    3  A    between atoms: C_8  and  N_9
REMARK    4  A    between atoms: C_10  and  C_12
REMARK    5  A    between atoms: C_13  and  N_14
REMARK    6  A    between atoms: C_20  and  C_21
REMARK    7  A    between atoms: C_22  and  C_23
REMARK                            x       y       z     vdW  Elec       q    Type
REMARK                         _______ _______ _______ _____ _____    ______ ____
ROOT
ATOM      1  N   UNL     1       2.403   7.295  19.972  0.00  0.00    +0.000 N 
ATOM      2  C   UNL     1       2.456   6.407  18.916  0.00  0.00    +0.000 C 
ATOM      3  O   UNL     1       1.895   6.552  17.839  0.00  0.00    +0.000 OA
ATOM      4  H   UNL     1       3.044   7.129  20.737  0.00  0.00    +0.000 HD
ENDROOT
BRANCH   2   5
ATOM      5  C   UNL     1       3.323   5.239  19.144  0.00  0.00    +0.000 A 
ATOM      6  C   UNL     1       4.497   5.016  18.432  0.00  0.00    +0.000 A 
ATOM      7  S   UNL     1       5.194   3.501  18.758  0.00  0.00    +0.000 S 
ATOM      8  C   UNL     1       4.046   3.149  19.963  0.00  0.00    +0.000 A 
ATOM      9  C   UNL     1       4.188   1.891  20.761  0.00  0.00    +0.000 C 
ATOM     10  C   UNL     1       3.042   4.105  20.029  0.00  0.00    +0.000 A 
ATOM     11  C   UNL     1       1.814   3.946  20.878  0.00  0.00    +0.000 C 
BRANCH   6  12
ATOM     12  N   UNL     1       5.187   5.860  17.554  0.00  0.00    +0.000 N 
ATOM     13  C   UNL     1       6.287   6.663  17.734  0.00  0.00    +0.000 A 
ATOM     14  N   UNL     1       6.605   7.236  16.595  0.00  0.00    +0.000 NA
ATOM     15  N   UNL     1       5.690   6.781  15.685  0.00  0.00    +0.000 NA
ATOM     16  N   UNL     1       4.848   5.923  16.243  0.00  0.00    +0.000 NA
ENDBRANCH   6  12
ENDBRANCH   2   5
BRANCH   1  21
ATOM     17  C   UNL     1       0.308   9.948  21.488  0.00  0.00    +0.000 A 
ATOM     18  C   UNL     1       0.095  10.803  20.405  0.00  0.00    +0.000 A 
ATOM     19  C   UNL     1       0.630  10.489  19.156  0.00  0.00    +0.000 A 
ATOM     20  C   UNL     1       1.388   9.327  18.986  0.00  0.00    +0.000 A 
ATOM     21  C   UNL     1       1.628   8.470  20.063  0.00  0.00    +0.000 A 
ATOM     22  C   UNL     1       1.067   8.779  21.308  0.00  0.00    +0.000 A 
BRANCH  17  24
ATOM     23  C   UNL     1      -1.405  11.193  22.968  0.00  0.00    +0.000 C 
ATOM     24  C   UNL     1      -0.245  10.239  22.840  0.00  0.00    +0.000 C 
ATOM     25  O   UNL     1       0.247   9.696  23.828  0.00  0.00    +0.000 OA
ENDBRANCH  17  24
ENDBRANCH   1  21
TORSDOF 4
ENDMDL
MODEL 8
REMARK VINA RESULT:      -7.3      3.423      7.608
REMARK  Name = 
REMARK  7 active torsions:
REMARK  status: ('A' for Active; 'I' for Inactive)
REMARK    1  A    between atoms: C_1  and  C_2
REMARK    2  A    between atoms: C_2  and  C_4
REMARK    3  A    between atoms: C_8  and  N_9
REMARK    4  A    between atoms: C_10  and  C_12
REMARK    5  A    between atoms: C_13  and  N_14
REMARK    6  A    between atoms: C_20  and  C_21
REMARK    7  A    between atoms: C_22  and  C_23
REMARK                            x       y       z     vdW  Elec       q    Type
REMARK                         _______ _______ _______ _____ _____    ______ ____
ROOT
ATOM      1  N   UNL     1       2.315   7.397  18.150  0.00  0.00    +0.000 N 
ATOM      2  C   UNL     1       3.029   6.410  18.800  0.00  0.00    +0.000 C 
ATOM      3  O   UNL     1       3.123   6.284  20.013  0.00  0.00    +0.000 OA
ATOM      4  H   UNL     1       2.189   7.284  17.152  0.00  0.00    +0.000 HD
ENDROOT
BRANCH   2   5
ATOM      5  C   UNL     1       3.655   5.422  17.906  0.00  0.00    +0.000 A 
ATOM      6  C   UNL     1       3.350   4.065  17.942  0.00  0.00    +0.000 A 
ATOM      7  S   UNL     1       4.358   3.130  16.945  0.00  0.00    +0.000 S 
ATOM      8  C   UNL     1       5.138   4.505  16.318  0.00  0.00    +0.000 A 
ATOM      9  C   UNL     1       6.149   4.337  15.228  0.00  0.00    +0.000 C 
ATOM     10  C   UNL     1       4.748   5.671  16.961  0.00  0.00    +0.000 A 
ATOM     11  C   UNL     1       5.410   6.998  16.727  0.00  0.00    +0.000 C 
BRANCH   6  12
ATOM     12  N   UNL     1       2.328   3.395  18.624  0.00  0.00    +0.000 N 
ATOM     13  C   UNL     1       2.238   2.937  19.915  0.00  0.00    +0.000 A 
ATOM     14  N   UNL     1       1.051   2.410  20.116  0.00  0.00    +0.000 NA
ATOM     15  N   UNL     1       0.383   2.544  18.929  0.00  0.00    +0.000 NA
ATOM     16  N   UNL     1       1.131   3.168  18.029  0.00  0.00    +0.000 NA
ENDBRANCH   6  12
ENDBRANCH   2   5
BRANCH   1  21
ATOM     17  C   UNL     1       0.890   9.573  20.788  0.00  0.00    +0.000 A 
ATOM     18  C   UNL     1       0.389  10.642  20.042  0.00  0.00    +0.000 A 
ATOM     19  C   UNL     1       0.502  10.633  18.652  0.00  0.00    +0.000 A 
ATOM     20  C   UNL     1       1.126   9.564  18.003  0.00  0.00    +0.000 A 
ATOM     21  C   UNL     1       1.651   8.496  18.734  0.00  0.00    +0.000 A 
ATOM     22  C   UNL     1       1.512   8.500  20.128  0.00  0.00    +0.000 A 
BRANCH  17  24
ATOM     23  C   UNL     1      -0.562   9.686  22.922  0.00  0.00    +0.000 C 
ATOM     24  C   UNL     1       0.790   9.536  22.273  0.00  0.00    +0.000 C 
ATOM     25  O   UNL     1       1.807   9.380  22.948  0.00  0.00    +0.000 OA
ENDBRANCH  17  24
ENDBRANCH   1  21
TORSDOF 4
ENDMDL
MODEL 9
REMARK VINA RESULT:      -7.2      0.757      1.057
REMARK  Name = 
REMARK  7 active torsions:
REMARK  status: ('A' for Active; 'I' for Inactive)
REMARK    1  A    between atoms: C_1  and  C_2
REMARK    2  A    between atoms: C_2  and  C_4
REMARK    3  A    between atoms: C_8  and  N_9
REMARK    4  A    between atoms: C_10  and  C_12
REMARK    5  A    between atoms: C_13  and  N_14
REMARK    6  A    between atoms: C_20  and  C_21
REMARK    7  A    between atoms: C_22  and  C_23
REMARK                            x       y       z     vdW  Elec       q    Type
REMARK                         _______ _______ _______ _____ _____    ______ ____
ROOT
ATOM      1  N   UNL     1       4.980   5.073  15.681  0.00  0.00    +0.000 N 
ATOM      2  C   UNL     1       5.342   5.017  17.012  0.00  0.00    +0.000 C 
ATOM      3  O   UNL     1       6.459   4.751  17.433  0.00  0.00    +0.000 OA
ATOM      4  H   UNL     1       4.070   5.464  15.473  0.00  0.00    +0.000 HD
ENDROOT
BRANCH   2   5
ATOM      5  C   UNL     1       4.266   5.376  17.951  0.00  0.00    +0.000 A 
ATOM      6  C   UNL     1       3.589   4.438  18.723  0.00  0.00    +0.000 A 
ATOM      7  S   UNL     1       2.270   5.099  19.567  0.00  0.00    +0.000 S 
ATOM      8  C   UNL     1       2.640   6.679  19.055  0.00  0.00    +0.000 A 
ATOM      9  C   UNL     1       1.834   7.823  19.584  0.00  0.00    +0.000 C 
ATOM     10  C   UNL     1       3.671   6.704  18.127  0.00  0.00    +0.000 A 
ATOM     11  C   UNL     1       4.074   7.944  17.383  0.00  0.00    +0.000 C 
BRANCH   6  12
ATOM     12  N   UNL     1       3.866   3.083  18.934  0.00  0.00    +0.000 N 
ATOM     13  C   UNL     1       4.475   2.426  19.976  0.00  0.00    +0.000 A 
ATOM     14  N   UNL     1       4.465   1.132  19.747  0.00  0.00    +0.000 NA
ATOM     15  N   UNL     1       3.834   0.974  18.543  0.00  0.00    +0.000 NA
ATOM     16  N   UNL     1       3.438   2.142  18.056  0.00  0.00    +0.000 NA
ENDBRANCH   6  12
ENDBRANCH   2   5
BRANCH   1  21
ATOM     17  C   UNL     1       5.979   3.446  12.506  0.00  0.00    +0.000 A 
ATOM     18  C   UNL     1       7.231   4.017  12.269  0.00  0.00    +0.000 A 
ATOM     19  C   UNL     1       7.761   4.930  13.179  0.00  0.00    +0.000 A 
ATOM     20  C   UNL     1       7.039   5.287  14.321  0.00  0.00    +0.000 A 
ATOM     21  C   UNL     1       5.776   4.742  14.564  0.00  0.00    +0.000 A 
ATOM     22  C   UNL     1       5.261   3.806  13.658  0.00  0.00    +0.000 A 
BRANCH  17  24
ATOM     23  C   UNL     1       6.147   1.224  11.198  0.00  0.00    +0.000 C 
ATOM     24  C   UNL     1       5.372   2.464  11.564  0.00  0.00    +0.000 C 
ATOM     25  O   UNL     1       4.251   2.673  11.105  0.00  0.00    +0.000 OA
ENDBRANCH  17  24
ENDBRANCH   1  21
TORSDOF 4
ENDMDL
