MODEL 1
REMARK VINA RESULT:      -7.7      0.000      0.000
REMARK  Name = 
REMARK  4 active torsions:
REMARK  status: ('A' for Active; 'I' for Inactive)
REMARK    1  A    between atoms: C_1  and  C_2
REMARK    2  A    between atoms: C_2  and  C_3
REMARK    3  A    between atoms: C_3  and  N_4
REMARK    4  A    between atoms: C_10  and  O_11
REMARK                            x       y       z     vdW  Elec       q    Type
REMARK                         _______ _______ _______ _____ _____    ______ ____
ROOT
ATOM      1  N   UNL     1       6.242   4.951  17.952  0.00  0.00    +0.000 NA
ATOM      2  C   UNL     1       6.474   4.390  16.593  0.00  0.00    +0.000 C 
ATOM      3  C   UNL     1       5.333   4.890  15.725  0.00  0.00    +0.000 C 
ATOM      4  C   UNL     1       4.245   5.106  16.752  0.00  0.00    +0.000 C 
ATOM      5  C   UNL     1       3.673   3.736  17.155  0.00  0.00    +0.000 C 
ATOM      6  C   UNL     1       2.889   3.750  18.426  0.00  0.00    +0.000 A 
ATOM      7  C   UNL     1       2.046   2.687  18.736  0.00  0.00    +0.000 A 
ATOM      8  C   UNL     1       1.131   2.766  19.778  0.00  0.00    +0.000 A 
ATOM      9  C   UNL     1       1.079   3.927  20.537  0.00  0.00    +0.000 A 
ATOM     10  C   UNL     1       2.015   4.953  20.313  0.00  0.00    +0.000 A 
ATOM     11  C   UNL     1       2.973   4.849  19.289  0.00  0.00    +0.000 A 
ATOM     12  C   UNL     1       4.034   5.933  19.100  0.00  0.00    +0.000 C 
ATOM     13  C   UNL     1       5.022   5.789  17.897  0.00  0.00    +0.000 C 
ENDROOT
BRANCH   7  14
ATOM     14  O   UNL     1       2.090   1.501  18.045  0.00  0.00    +0.000 OA
ATOM     15  H   UNL     1       1.488   0.878  18.490  0.00  0.00    +0.000 HD
ENDBRANCH   7  14
BRANCH   1  16
ATOM     16  C   UNL     1       7.538   5.347  18.508  0.00  0.00    +0.000 C 
BRANCH  16  18
ATOM     17  C   UNL     1       7.723   7.702  17.535  0.00  0.00    +0.000 C 
ATOM     18  C   UNL     1       8.024   6.782  18.710  0.00  0.00    +0.000 C 
ENDBRANCH  16  18
ENDBRANCH   1  16
TORSDOF 3
ENDMDL
MODEL 2
REMARK VINA RESULT:      -7.6      1.239      1.503
REMARK  Name = 
REMARK  4 active torsions:
REMARK  status: ('A' for Active; 'I' for Inactive)
REMARK    1  A    between atoms: C_1  and  C_2
REMARK    2  A    between atoms: C_2  and  C_3
REMARK    3  A    between atoms: C_3  and  N_4
REMARK    4  A    between atoms: C_10  and  O_11
REMARK                            x       y       z     vdW  Elec       q    Type
REMARK                         _______ _______ _______ _____ _____    ______ ____
ROOT
ATOM      1  N   UNL     1       6.619   5.628  17.359  0.00  0.00    +0.000 NA
ATOM      2  C   UNL     1       7.472   4.756  16.506  0.00  0.00    +0.000 C 
ATOM      3  C   UNL     1       6.659   4.450  15.262  0.00  0.00    +0.000 C 
ATOM      4  C   UNL     1       5.246   4.587  15.784  0.00  0.00    +0.000 C 
ATOM      5  C   UNL     1       4.910   3.339  16.618  0.00  0.00    +0.000 C 
ATOM      6  C   UNL     1       3.726   3.502  17.513  0.00  0.00    +0.000 A 
ATOM      7  C   UNL     1       3.108   2.383  18.064  0.00  0.00    +0.000 A 
ATOM      8  C   UNL     1       1.878   2.472  18.702  0.00  0.00    +0.000 A 
ATOM      9  C   UNL     1       1.269   3.715  18.810  0.00  0.00    +0.000 A 
ATOM     10  C   UNL     1       1.946   4.868  18.373  0.00  0.00    +0.000 A 
ATOM     11  C   UNL     1       3.214   4.779  17.772  0.00  0.00    +0.000 A 
ATOM     12  C   UNL     1       3.976   6.042  17.368  0.00  0.00    +0.000 C 
ATOM     13  C   UNL     1       5.348   5.867  16.638  0.00  0.00    +0.000 C 
ENDROOT
BRANCH   7  14
ATOM     14  O   UNL     1       3.691   1.140  18.023  0.00  0.00    +0.000 OA
ATOM     15  H   UNL     1       4.520   1.186  18.533  0.00  0.00    +0.000 HD
ENDBRANCH   7  14
BRANCH   1  16
ATOM     16  C   UNL     1       7.475   6.651  17.965  0.00  0.00    +0.000 C 
BRANCH  16  18
ATOM     17  C   UNL     1       8.498   8.954  18.382  0.00  0.00    +0.000 C 
ATOM     18  C   UNL     1       7.626   8.093  17.480  0.00  0.00    +0.000 C 
ENDBRANCH  16  18
ENDBRANCH   1  16
TORSDOF 3
ENDMDL
MODEL 3
REMARK VINA RESULT:      -7.4      1.759      3.195
REMARK  Name = 
REMARK  4 active torsions:
REMARK  status: ('A' for Active; 'I' for Inactive)
REMARK    1  A    between atoms: C_1  and  C_2
REMARK    2  A    between atoms: C_2  and  C_3
REMARK    3  A    between atoms: C_3  and  N_4
REMARK    4  A    between atoms: C_10  and  O_11
REMARK                            x       y       z     vdW  Elec       q    Type
REMARK                         _______ _______ _______ _____ _____    ______ ____
ROOT
ATOM      1  N   UNL     1       5.299   5.411  16.675  0.00  0.00    +0.000 NA
ATOM      2  C   UNL     1       6.181   6.376  17.388  0.00  0.00    +0.000 C 
ATOM      3  C   UNL     1       6.699   5.651  18.617  0.00  0.00    +0.000 C 
ATOM      4  C   UNL     1       5.599   4.643  18.860  0.00  0.00    +0.000 C 
ATOM      5  C   UNL     1       4.397   5.371  19.485  0.00  0.00    +0.000 C 
ATOM      6  C   UNL     1       3.115   4.609  19.415  0.00  0.00    +0.000 A 
ATOM      7  C   UNL     1       2.040   4.978  20.217  0.00  0.00    +0.000 A 
ATOM      8  C   UNL     1       0.923   4.164  20.355  0.00  0.00    +0.000 A 
ATOM      9  C   UNL     1       0.877   2.967  19.653  0.00  0.00    +0.000 A 
ATOM     10  C   UNL     1       1.899   2.649  18.741  0.00  0.00    +0.000 A 
ATOM     11  C   UNL     1       3.005   3.501  18.567  0.00  0.00    +0.000 A 
ATOM     12  C   UNL     1       4.074   3.187  17.520  0.00  0.00    +0.000 C 
ATOM     13  C   UNL     1       5.313   4.137  17.431  0.00  0.00    +0.000 C 
ENDROOT
BRANCH   7  14
ATOM     14  O   UNL     1       2.017   6.172  20.895  0.00  0.00    +0.000 OA
ATOM     15  H   UNL     1       1.642   6.844  20.298  0.00  0.00    +0.000 HD
ENDBRANCH   7  14
BRANCH   1  16
ATOM     16  C   UNL     1       5.524   5.565  15.236  0.00  0.00    +0.000 C 
BRANCH  16  18
ATOM     17  C   UNL     1       6.023   3.790  13.469  0.00  0.00    +0.000 C 
ATOM     18  C   UNL     1       6.590   4.839  14.415  0.00  0.00    +0.000 C 
ENDBRANCH  16  18
ENDBRANCH   1  16
TORSDOF 3
ENDMDL
MODEL 4
REMARK VINA RESULT:      -7.3      1.168      1.498
REMARK  Name = 
REMARK  4 active torsions:
REMARK  status: ('A' for Active; 'I' for Inactive)
REMARK    1  A    between atoms: C_1  and  C_2
REMARK    2  A    between atoms: C_2  and  C_3
REMARK    3  A    between atoms: C_3  and  N_4
REMARK    4  A    between atoms: C_10  and  O_11
REMARK                            x       y       z     vdW  Elec       q    Type
REMARK                         _______ _______ _______ _____ _____    ______ ____
ROOT
ATOM      1  N   UNL     1       6.378   5.828  16.913  0.00  0.00    +0.000 NA
ATOM      2  C   UNL     1       7.110   4.980  15.931  0.00  0.00    +0.000 C 
ATOM      3  C   UNL     1       6.095   4.576  14.878  0.00  0.00    +0.000 C 
ATOM      4  C   UNL     1       4.803   4.642  15.662  0.00  0.00    +0.000 C 
ATOM      5  C   UNL     1       4.722   3.409  16.577  0.00  0.00    +0.000 C 
ATOM      6  C   UNL     1       3.725   3.531  17.681  0.00  0.00    +0.000 A 
ATOM      7  C   UNL     1       3.304   2.396  18.370  0.00  0.00    +0.000 A 
ATOM      8  C   UNL     1       2.218   2.431  19.233  0.00  0.00    +0.000 A 
ATOM      9  C   UNL     1       1.555   3.636  19.427  0.00  0.00    +0.000 A 
ATOM     10  C   UNL     1       2.053   4.812  18.837  0.00  0.00    +0.000 A 
ATOM     11  C   UNL     1       3.185   4.781  18.002  0.00  0.00    +0.000 A 
ATOM     12  C   UNL     1       3.764   6.073  17.427  0.00  0.00    +0.000 C 
ATOM     13  C   UNL     1       4.978   5.959  16.448  0.00  0.00    +0.000 C 
ENDROOT
BRANCH   7  14
ATOM     14  O   UNL     1       3.954   1.192  18.248  0.00  0.00    +0.000 OA
ATOM     15  H   UNL     1       4.189   1.078  17.310  0.00  0.00    +0.000 HD
ENDBRANCH   7  14
BRANCH   1  16
ATOM     16  C   UNL     1       7.261   6.926  17.313  0.00  0.00    +0.000 C 
BRANCH  16  18
ATOM     17  C   UNL     1       7.913   5.771  19.497  0.00  0.00    +0.000 C 
ATOM     18  C   UNL     1       8.096   6.982  18.593  0.00  0.00    +0.000 C 
ENDBRANCH  16  18
ENDBRANCH   1  16
TORSDOF 3
ENDMDL
MODEL 5
REMARK VINA RESULT:      -7.3      1.506      1.621
REMARK  Name = 
REMARK  4 active torsions:
REMARK  status: ('A' for Active; 'I' for Inactive)
REMARK    1  A    between atoms: C_1  and  C_2
REMARK    2  A    between atoms: C_2  and  C_3
REMARK    3  A    between atoms: C_3  and  N_4
REMARK    4  A    between atoms: C_10  and  O_11
REMARK                            x       y       z     vdW  Elec       q    Type
REMARK                         _______ _______ _______ _____ _____    ______ ____
ROOT
ATOM      1  N   UNL     1       6.090   6.314  17.279  0.00  0.00    +0.000 NA
ATOM      2  C   UNL     1       6.828   5.410  16.354  0.00  0.00    +0.000 C 
ATOM      3  C   UNL     1       5.775   4.632  15.588  0.00  0.00    +0.000 C 
ATOM      4  C   UNL     1       4.618   4.649  16.562  0.00  0.00    +0.000 C 
ATOM      5  C   UNL     1       4.910   3.640  17.685  0.00  0.00    +0.000 C 
ATOM      6  C   UNL     1       4.073   3.826  18.908  0.00  0.00    +0.000 A 
ATOM      7  C   UNL     1       3.984   2.809  19.854  0.00  0.00    +0.000 A 
ATOM      8  C   UNL     1       3.043   2.847  20.874  0.00  0.00    +0.000 A 
ATOM      9  C   UNL     1       2.192   3.940  20.960  0.00  0.00    +0.000 A 
ATOM     10  C   UNL     1       2.361   5.030  20.089  0.00  0.00    +0.000 A 
ATOM     11  C   UNL     1       3.349   5.011  19.087  0.00  0.00    +0.000 A 
ATOM     12  C   UNL     1       3.577   6.229  18.193  0.00  0.00    +0.000 C 
ATOM     13  C   UNL     1       4.640   6.112  17.052  0.00  0.00    +0.000 C 
ENDROOT
BRANCH   7  14
ATOM     14  O   UNL     1       4.833   1.730  19.840  0.00  0.00    +0.000 OA
ATOM     15  H   UNL     1       5.507   1.876  20.527  0.00  0.00    +0.000 HD
ENDBRANCH   7  14
BRANCH   1  16
ATOM     16  C   UNL     1       6.788   7.601  17.311  0.00  0.00    +0.000 C 
BRANCH  16  18
ATOM     17  C   UNL     1       8.421   9.381  18.144  0.00  0.00    +0.000 C 
ATOM     18  C   UNL     1       8.083   7.899  18.068  0.00  0.00    +0.000 C 
ENDBRANCH  16  18
ENDBRANCH   1  16
TORSDOF 3
ENDMDL
MODEL 6
REMARK VINA RESULT:      -7.3      2.264      5.483
REMARK  Name = 
REMARK  4 active torsions:
REMARK  status: ('A' for Active; 'I' for Inactive)
REMARK    1  A    between atoms: C_1  and  C_2
REMARK    2  A    between atoms: C_2  and  C_3
REMARK    3  A    between atoms: C_3  and  N_4
REMARK    4  A    between atoms: C_10  and  O_11
REMARK                            x       y       z     vdW  Elec       q    Type
REMARK                         _______ _______ _______ _____ _____    ______ ____
ROOT
ATOM      1  N   UNL     1       2.441   4.310  19.058  0.00  0.00    +0.000 NA
ATOM      2  C   UNL     1       1.691   3.954  17.822  0.00  0.00    +0.000 C 
ATOM      3  C   UNL     1       2.582   3.005  17.041  0.00  0.00    +0.000 C 
ATOM      4  C   UNL     1       3.956   3.416  17.522  0.00  0.00    +0.000 C 
ATOM      5  C   UNL     1       4.337   4.740  16.838  0.00  0.00    +0.000 C 
ATOM      6  C   UNL     1       5.463   5.466  17.497  0.00  0.00    +0.000 A 
ATOM      7  C   UNL     1       6.130   6.482  16.817  0.00  0.00    +0.000 A 
ATOM      8  C   UNL     1       7.319   7.016  17.295  0.00  0.00    +0.000 A 
ATOM      9  C   UNL     1       7.836   6.537  18.491  0.00  0.00    +0.000 A 
ATOM     10  C   UNL     1       7.103   5.605  19.248  0.00  0.00    +0.000 A 
ATOM     11  C   UNL     1       5.873   5.103  18.785  0.00  0.00    +0.000 A 
ATOM     12  C   UNL     1       5.046   4.149  19.646  0.00  0.00    +0.000 C 
ATOM     13  C   UNL     1       3.725   3.572  19.040  0.00  0.00    +0.000 C 
ENDROOT
BRANCH   7  14
ATOM     14  O   UNL     1       5.637   7.021  15.654  0.00  0.00    +0.000 OA
ATOM     15  H   UNL     1       5.442   7.960  15.824  0.00  0.00    +0.000 HD
ENDBRANCH   7  14
BRANCH   1  16
ATOM     16  C   UNL     1       1.489   4.358  20.170  0.00  0.00    +0.000 C 
BRANCH  16  18
ATOM     17  C   UNL     1       1.790   2.503  21.900  0.00  0.00    +0.000 C 
ATOM     18  C   UNL     1       0.871   3.149  20.873  0.00  0.00    +0.000 C 
ENDBRANCH  16  18
ENDBRANCH   1  16
TORSDOF 3
ENDMDL
MODEL 7
REMARK VINA RESULT:      -7.1      1.293      1.557
REMARK  Name = 
REMARK  4 active torsions:
REMARK  status: ('A' for Active; 'I' for Inactive)
REMARK    1  A    between atoms: C_1  and  C_2
REMARK    2  A    between atoms: C_2  and  C_3
REMARK    3  A    between atoms: C_3  and  N_4
REMARK    4  A    between atoms: C_10  and  O_11
REMARK                            x       y       z     vdW  Elec       q    Type
REMARK                         _______ _______ _______ _____ _____    ______ ____
ROOT
ATOM      1  N   UNL     1       6.759   5.912  17.965  0.00  0.00    +0.000 NA
ATOM      2  C   UNL     1       7.380   4.730  17.308  0.00  0.00    +0.000 C 
ATOM      3  C   UNL     1       6.349   4.195  16.331  0.00  0.00    +0.000 C 
ATOM      4  C   UNL     1       5.059   4.660  16.969  0.00  0.00    +0.000 C 
ATOM      5  C   UNL     1       4.756   3.755  18.175  0.00  0.00    +0.000 C 
ATOM      6  C   UNL     1       3.755   4.320  19.128  0.00  0.00    +0.000 A 
ATOM      7  C   UNL     1       3.140   3.495  20.065  0.00  0.00    +0.000 A 
ATOM      8  C   UNL     1       2.045   3.923  20.802  0.00  0.00    +0.000 A 
ATOM      9  C   UNL     1       1.573   5.215  20.612  0.00  0.00    +0.000 A 
ATOM     10  C   UNL     1       2.268   6.096  19.765  0.00  0.00    +0.000 A 
ATOM     11  C   UNL     1       3.407   5.674  19.056  0.00  0.00    +0.000 A 
ATOM     12  C   UNL     1       4.200   6.658  18.197  0.00  0.00    +0.000 C 
ATOM     13  C   UNL     1       5.413   6.104  17.379  0.00  0.00    +0.000 C 
ENDROOT
BRANCH   7  14
ATOM     14  O   UNL     1       3.596   2.225  20.322  0.00  0.00    +0.000 OA
ATOM     15  H   UNL     1       3.984   2.226  21.215  0.00  0.00    +0.000 HD
ENDBRANCH   7  14
BRANCH   1  16
ATOM     16  C   UNL     1       7.790   6.942  18.118  0.00  0.00    +0.000 C 
BRANCH  16  18
ATOM     17  C   UNL     1       8.541   9.376  18.306  0.00  0.00    +0.000 C 
ATOM     18  C   UNL     1       7.749   8.345  17.514  0.00  0.00    +0.000 C 
ENDBRANCH  16  18
ENDBRANCH   1  16
TORSDOF 3
ENDMDL
MODEL 8
REMARK VINA RESULT:      -7.0      2.618      5.600
REMARK  Name = 
REMARK  4 active torsions:
REMARK  status: ('A' for Active; 'I' for Inactive)
REMARK    1  A    between atoms: C_1  and  C_2
REMARK    2  A    between atoms: C_2  and  C_3
REMARK    3  A    between atoms: C_3  and  N_4
REMARK    4  A    between atoms: C_10  and  O_11
REMARK                            x       y       z     vdW  Elec       q    Type
REMARK                         _______ _______ _______ _____ _____    ______ ____
ROOT
ATOM      1  N   UNL     1       2.458   5.887  19.656  0.00  0.00    +0.000 NA
ATOM      2  C   UNL     1       2.249   7.347  19.859  0.00  0.00    +0.000 C 
ATOM      3  C   UNL     1       1.918   7.924  18.494  0.00  0.00    +0.000 C 
ATOM      4  C   UNL     1       2.603   6.937  17.575  0.00  0.00    +0.000 C 
ATOM      5  C   UNL     1       4.116   7.211  17.604  0.00  0.00    +0.000 C 
ATOM      6  C   UNL     1       4.951   6.091  17.076  0.00  0.00    +0.000 A 
ATOM      7  C   UNL     1       6.280   6.315  16.731  0.00  0.00    +0.000 A 
ATOM      8  C   UNL     1       7.016   5.374  16.023  0.00  0.00    +0.000 A 
ATOM      9  C   UNL     1       6.410   4.173  15.676  0.00  0.00    +0.000 A 
ATOM     10  C   UNL     1       5.111   3.887  16.134  0.00  0.00    +0.000 A 
ATOM     11  C   UNL     1       4.387   4.823  16.894  0.00  0.00    +0.000 A 
ATOM     12  C   UNL     1       3.007   4.475  17.451  0.00  0.00    +0.000 C 
ATOM     13  C   UNL     1       2.227   5.588  18.224  0.00  0.00    +0.000 C 
ENDROOT
BRANCH   7  14
ATOM     14  O   UNL     1       6.938   7.467  17.089  0.00  0.00    +0.000 OA
ATOM     15  H   UNL     1       6.509   7.814  17.891  0.00  0.00    +0.000 HD
ENDBRANCH   7  14
BRANCH   1  16
ATOM     16  C   UNL     1       1.864   5.180  20.793  0.00  0.00    +0.000 C 
BRANCH  16  18
ATOM     17  C   UNL     1       2.251   2.804  21.648  0.00  0.00    +0.000 C 
ATOM     18  C   UNL     1       1.392   3.726  20.794  0.00  0.00    +0.000 C 
ENDBRANCH  16  18
ENDBRANCH   1  16
TORSDOF 3
ENDMDL
MODEL 9
REMARK VINA RESULT:      -6.9      2.874      3.856
REMARK  Name = 
REMARK  4 active torsions:
REMARK  status: ('A' for Active; 'I' for Inactive)
REMARK    1  A    between atoms: C_1  and  C_2
REMARK    2  A    between atoms: C_2  and  C_3
REMARK    3  A    between atoms: C_3  and  N_4
REMARK    4  A    between atoms: C_10  and  O_11
REMARK                            x       y       z     vdW  Elec       q    Type
REMARK                         _______ _______ _______ _____ _____    ______ ____
ROOT
ATOM      1  N   UNL     1       5.428   5.546  18.485  0.00  0.00    +0.000 NA
ATOM      2  C   UNL     1       5.214   4.323  19.306  0.00  0.00    +0.000 C 
ATOM      3  C   UNL     1       3.866   3.763  18.892  0.00  0.00    +0.000 C 
ATOM      4  C   UNL     1       3.158   5.008  18.407  0.00  0.00    +0.000 C 
ATOM      5  C   UNL     1       2.724   5.833  19.631  0.00  0.00    +0.000 C 
ATOM      6  C   UNL     1       2.378   7.252  19.321  0.00  0.00    +0.000 A 
ATOM      7  C   UNL     1       1.661   8.011  20.241  0.00  0.00    +0.000 A 
ATOM      8  C   UNL     1       1.121   9.244  19.901  0.00  0.00    +0.000 A 
ATOM      9  C   UNL     1       1.325   9.734  18.618  0.00  0.00    +0.000 A 
ATOM     10  C   UNL     1       2.156   9.034  17.725  0.00  0.00    +0.000 A 
ATOM     11  C   UNL     1       2.743   7.809  18.090  0.00  0.00    +0.000 A 
ATOM     12  C   UNL     1       3.705   7.092  17.143  0.00  0.00    +0.000 C 
ATOM     13  C   UNL     1       4.264   5.699  17.583  0.00  0.00    +0.000 C 
ENDROOT
BRANCH   7  14
ATOM     14  O   UNL     1       1.470   7.592  21.535  0.00  0.00    +0.000 OA
ATOM     15  H   UNL     1       1.599   6.627  21.555  0.00  0.00    +0.000 HD
ENDBRANCH   7  14
BRANCH   1  16
ATOM     16  C   UNL     1       6.838   5.589  18.091  0.00  0.00    +0.000 C 
BRANCH  16  18
ATOM     17  C   UNL     1       7.704   7.928  17.539  0.00  0.00    +0.000 C 
ATOM     18  C   UNL     1       7.830   6.702  18.432  0.00  0.00    +0.000 C 
ENDBRANCH  16  18
ENDBRANCH   1  16
TORSDOF 3
ENDMDL
