MODEL 1
REMARK VINA RESULT:      -8.4      0.000      0.000
REMARK  Name = 
REMARK  6 active torsions:
REMARK  status: ('A' for Active; 'I' for Inactive)
REMARK    1  A    between atoms: C_1  and  O_2
REMARK    2  A    between atoms: O_2  and  C_3
REMARK    3  A    between atoms: C_6  and  C_7
REMARK    4  A    between atoms: C_8  and  C_9
REMARK    5  A    between atoms: C_17  and  C_18
REMARK    6  A    between atoms: C_26  and  C_27
REMARK                            x       y       z     vdW  Elec       q    Type
REMARK                         _______ _______ _______ _____ _____    ______ ____
ROOT
ATOM      1  C   UNL     1       3.705  15.377  18.163  0.00  0.00    +0.000 C 
ATOM      2  O   UNL     1       2.813  16.199  17.985  0.00  0.00    +0.000 OA
ATOM      3  N   UNL     1       3.561  14.058  18.496  0.00  0.00    +0.000 N 
ATOM      4  C   UNL     1       2.357  13.429  18.634  0.00  0.00    +0.000 A 
ATOM      5  N   UNL     1       1.166  13.927  18.182  0.00  0.00    +0.000 NA
ATOM      6  C   UNL     1       0.301  13.007  18.517  0.00  0.00    +0.000 A 
ATOM      7  N   UNL     1       0.957  11.998  19.170  0.00  0.00    +0.000 N 
ATOM      8  N   UNL     1       2.285  12.232  19.228  0.00  0.00    +0.000 NA
ATOM      9  C   UNL     1       0.274  10.866  19.810  0.00  0.00    +0.000 C 
ATOM     10  C   UNL     1      -1.206  10.831  19.466  0.00  0.00    +0.000 C 
ATOM     11  C   UNL     1      -1.769  11.834  18.761  0.00  0.00    +0.000 C 
ATOM     12  N   UNL     1      -1.030  12.913  18.329  0.00  0.00    +0.000 N 
ATOM     13  H   UNL     1       4.345  13.487  18.766  0.00  0.00    +0.000 HD
ATOM     14  H   UNL     1      -1.521  13.642  17.817  0.00  0.00    +0.000 HD
ENDROOT
BRANCH   9  15
ATOM     15  C   UNL     1       0.974   9.550  19.504  0.00  0.00    +0.000 A 
ATOM     16  C   UNL     1       1.233   8.640  20.547  0.00  0.00    +0.000 A 
ATOM     17  C   UNL     1       1.920   7.452  20.296  0.00  0.00    +0.000 A 
ATOM     18  C   UNL     1       2.345   7.167  19.005  0.00  0.00    +0.000 A 
ATOM     19  F   UNL     1       3.025   6.037  18.770  0.00  0.00    +0.000 F 
ATOM     20  C   UNL     1       2.082   8.039  17.956  0.00  0.00    +0.000 A 
ATOM     21  C   UNL     1       1.394   9.227  18.200  0.00  0.00    +0.000 A 
ENDBRANCH   9  15
BRANCH  11  22
ATOM     22  C   UNL     1      -3.198  11.796  18.432  0.00  0.00    +0.000 A 
ATOM     23  C   UNL     1      -3.627  11.388  17.163  0.00  0.00    +0.000 A 
ATOM     24  C   UNL     1      -4.989  11.377  16.851  0.00  0.00    +0.000 A 
ATOM     25  C   UNL     1      -5.927  11.772  17.804  0.00  0.00    +0.000 A 
ATOM     26  C   UNL     1      -5.505  12.171  19.072  0.00  0.00    +0.000 A 
ATOM     27  C   UNL     1      -4.145  12.184  19.385  0.00  0.00    +0.000 A 
ENDBRANCH  11  22
BRANCH   1  29
ATOM     28  C   UNL     1       6.083  14.823  18.043  0.00  0.00    +0.000 C 
ATOM     29  C   UNL     1       5.140  15.778  18.071  0.00  0.00    +0.000 C 
BRANCH  28  33
ATOM     30  C   UNL     1      10.335  15.379  18.033  0.00  0.00    +0.000 A 
ATOM     31  C   UNL     1       9.771  14.106  17.992  0.00  0.00    +0.000 A 
ATOM     32  C   UNL     1       8.382  13.946  17.981  0.00  0.00    +0.000 A 
ATOM     33  C   UNL     1       7.533  15.058  18.044  0.00  0.00    +0.000 A 
ATOM     34  C   UNL     1       8.107  16.334  18.079  0.00  0.00    +0.000 A 
ATOM     35  C   UNL     1       9.500  16.495  18.082  0.00  0.00    +0.000 A 
BRANCH  30  37
ATOM     36  C   UNL     1      12.297  15.515  19.345  0.00  0.00    +0.000 C 
ATOM     37  O   UNL     1      11.701  15.407  18.057  0.00  0.00    +0.000 OA
ENDBRANCH  30  37
ENDBRANCH  28  33
ENDBRANCH   1  29
TORSDOF 5
ENDMDL
MODEL 2
REMARK VINA RESULT:      -8.3      5.125      8.122
REMARK  Name = 
REMARK  6 active torsions:
REMARK  status: ('A' for Active; 'I' for Inactive)
REMARK    1  A    between atoms: C_1  and  O_2
REMARK    2  A    between atoms: O_2  and  C_3
REMARK    3  A    between atoms: C_6  and  C_7
REMARK    4  A    between atoms: C_8  and  C_9
REMARK    5  A    between atoms: C_17  and  C_18
REMARK    6  A    between atoms: C_26  and  C_27
REMARK                            x       y       z     vdW  Elec       q    Type
REMARK                         _______ _______ _______ _____ _____    ______ ____
ROOT
ATOM      1  C   UNL     1       1.831   7.367  20.128  0.00  0.00    +0.000 C 
ATOM      2  O   UNL     1       1.116   6.998  21.053  0.00  0.00    +0.000 OA
ATOM      3  N   UNL     1       1.916   8.625  19.598  0.00  0.00    +0.000 N 
ATOM      4  C   UNL     1       1.229   9.706  20.072  0.00  0.00    +0.000 A 
ATOM      5  N   UNL     1       0.607   9.755  21.290  0.00  0.00    +0.000 NA
ATOM      6  C   UNL     1       0.096  10.956  21.326  0.00  0.00    +0.000 A 
ATOM      7  N   UNL     1       0.387  11.597  20.152  0.00  0.00    +0.000 N 
ATOM      8  N   UNL     1       1.143  10.824  19.343  0.00  0.00    +0.000 NA
ATOM      9  C   UNL     1      -0.150  12.916  19.791  0.00  0.00    +0.000 C 
ATOM     10  C   UNL     1      -0.871  13.572  20.958  0.00  0.00    +0.000 C 
ATOM     11  C   UNL     1      -1.063  12.896  22.110  0.00  0.00    +0.000 C 
ATOM     12  N   UNL     1      -0.617  11.602  22.270  0.00  0.00    +0.000 N 
ATOM     13  H   UNL     1       2.420   8.813  18.746  0.00  0.00    +0.000 HD
ATOM     14  H   UNL     1      -0.811  11.147  23.158  0.00  0.00    +0.000 HD
ENDROOT
BRANCH   9  15
ATOM     15  C   UNL     1       0.926  13.811  19.195  0.00  0.00    +0.000 A 
ATOM     16  C   UNL     1       0.713  15.200  19.116  0.00  0.00    +0.000 A 
ATOM     17  C   UNL     1       1.665  16.031  18.525  0.00  0.00    +0.000 A 
ATOM     18  C   UNL     1       2.834  15.479  18.017  0.00  0.00    +0.000 A 
ATOM     19  F   UNL     1       3.736  16.275  17.429  0.00  0.00    +0.000 F 
ATOM     20  C   UNL     1       3.077  14.114  18.103  0.00  0.00    +0.000 A 
ATOM     21  C   UNL     1       2.129  13.279  18.695  0.00  0.00    +0.000 A 
ENDBRANCH   9  15
BRANCH  11  22
ATOM     22  C   UNL     1      -1.759  13.533  23.234  0.00  0.00    +0.000 A 
ATOM     23  C   UNL     1      -3.041  13.114  23.609  0.00  0.00    +0.000 A 
ATOM     24  C   UNL     1      -3.705  13.743  24.666  0.00  0.00    +0.000 A 
ATOM     25  C   UNL     1      -3.092  14.791  25.351  0.00  0.00    +0.000 A 
ATOM     26  C   UNL     1      -1.811  15.206  24.986  0.00  0.00    +0.000 A 
ATOM     27  C   UNL     1      -1.148  14.580  23.930  0.00  0.00    +0.000 A 
ENDBRANCH  11  22
BRANCH   1  29
ATOM     28  C   UNL     1       3.208   6.734  18.209  0.00  0.00    +0.000 C 
ATOM     29  C   UNL     1       2.709   6.396  19.409  0.00  0.00    +0.000 C 
BRANCH  28  33
ATOM     30  C   UNL     1       5.604   4.283  15.632  0.00  0.00    +0.000 A 
ATOM     31  C   UNL     1       5.651   5.674  15.560  0.00  0.00    +0.000 A 
ATOM     32  C   UNL     1       4.873   6.455  16.418  0.00  0.00    +0.000 A 
ATOM     33  C   UNL     1       4.009   5.858  17.344  0.00  0.00    +0.000 A 
ATOM     34  C   UNL     1       3.971   4.461  17.416  0.00  0.00    +0.000 A 
ATOM     35  C   UNL     1       4.758   3.676  16.559  0.00  0.00    +0.000 A 
BRANCH  30  37
ATOM     36  C   UNL     1       6.081   3.844  13.358  0.00  0.00    +0.000 C 
ATOM     37  O   UNL     1       6.396   3.629  14.730  0.00  0.00    +0.000 OA
ENDBRANCH  30  37
ENDBRANCH  28  33
ENDBRANCH   1  29
TORSDOF 5
ENDMDL
MODEL 3
REMARK VINA RESULT:      -8.2      5.120      8.141
REMARK  Name = 
REMARK  6 active torsions:
REMARK  status: ('A' for Active; 'I' for Inactive)
REMARK    1  A    between atoms: C_1  and  O_2
REMARK    2  A    between atoms: O_2  and  C_3
REMARK    3  A    between atoms: C_6  and  C_7
REMARK    4  A    between atoms: C_8  and  C_9
REMARK    5  A    between atoms: C_17  and  C_18
REMARK    6  A    between atoms: C_26  and  C_27
REMARK                            x       y       z     vdW  Elec       q    Type
REMARK                         _______ _______ _______ _____ _____    ______ ____
ROOT
ATOM      1  C   UNL     1       1.727   7.400  20.209  0.00  0.00    +0.000 C 
ATOM      2  O   UNL     1       1.028   7.060  21.157  0.00  0.00    +0.000 OA
ATOM      3  N   UNL     1       1.814   8.644  19.647  0.00  0.00    +0.000 N 
ATOM      4  C   UNL     1       1.148   9.743  20.110  0.00  0.00    +0.000 A 
ATOM      5  N   UNL     1       0.554   9.827  21.339  0.00  0.00    +0.000 NA
ATOM      6  C   UNL     1       0.056  11.035  21.357  0.00  0.00    +0.000 A 
ATOM      7  N   UNL     1       0.328  11.645  20.162  0.00  0.00    +0.000 N 
ATOM      8  N   UNL     1       1.059  10.844  19.357  0.00  0.00    +0.000 NA
ATOM      9  C   UNL     1      -0.203  12.960  19.783  0.00  0.00    +0.000 C 
ATOM     10  C   UNL     1      -0.891  13.651  20.949  0.00  0.00    +0.000 C 
ATOM     11  C   UNL     1      -1.066  13.004  22.120  0.00  0.00    +0.000 C 
ATOM     12  N   UNL     1      -0.629  11.710  22.301  0.00  0.00    +0.000 N 
ATOM     13  H   UNL     1       2.302   8.806  18.781  0.00  0.00    +0.000 HD
ATOM     14  H   UNL     1      -0.809  11.278  23.203  0.00  0.00    +0.000 HD
ENDROOT
BRANCH   9  15
ATOM     15  C   UNL     1       0.870  13.830  19.143  0.00  0.00    +0.000 A 
ATOM     16  C   UNL     1       2.036  13.232  18.628  0.00  0.00    +0.000 A 
ATOM     17  C   UNL     1       3.053  14.016  18.085  0.00  0.00    +0.000 A 
ATOM     18  C   UNL     1       2.909  15.397  18.050  0.00  0.00    +0.000 A 
ATOM     19  F   UNL     1       3.897  16.150  17.550  0.00  0.00    +0.000 F 
ATOM     20  C   UNL     1       1.759  16.009  18.532  0.00  0.00    +0.000 A 
ATOM     21  C   UNL     1       0.736  15.229  19.074  0.00  0.00    +0.000 A 
ENDBRANCH   9  15
BRANCH  11  22
ATOM     22  C   UNL     1      -1.730  13.675  23.243  0.00  0.00    +0.000 A 
ATOM     23  C   UNL     1      -1.081  14.693  23.952  0.00  0.00    +0.000 A 
ATOM     24  C   UNL     1      -1.712  15.310  25.035  0.00  0.00    +0.000 A 
ATOM     25  C   UNL     1      -2.995  14.913  25.413  0.00  0.00    +0.000 A 
ATOM     26  C   UNL     1      -3.650  13.905  24.706  0.00  0.00    +0.000 A 
ATOM     27  C   UNL     1      -3.019  13.287  23.625  0.00  0.00    +0.000 A 
ENDBRANCH  11  22
BRANCH   1  29
ATOM     28  C   UNL     1       3.149   6.749  18.329  0.00  0.00    +0.000 C 
ATOM     29  C   UNL     1       2.579   6.402  19.494  0.00  0.00    +0.000 C 
BRANCH  28  33
ATOM     30  C   UNL     1       5.508   4.247  15.766  0.00  0.00    +0.000 A 
ATOM     31  C   UNL     1       5.584   5.636  15.693  0.00  0.00    +0.000 A 
ATOM     32  C   UNL     1       4.818   6.434  16.547  0.00  0.00    +0.000 A 
ATOM     33  C   UNL     1       3.936   5.855  17.468  0.00  0.00    +0.000 A 
ATOM     34  C   UNL     1       3.869   4.459  17.541  0.00  0.00    +0.000 A 
ATOM     35  C   UNL     1       4.644   3.658  16.689  0.00  0.00    +0.000 A 
BRANCH  30  37
ATOM     36  C   UNL     1       6.103   3.922  13.501  0.00  0.00    +0.000 C 
ATOM     37  O   UNL     1       6.290   3.576  14.869  0.00  0.00    +0.000 OA
ENDBRANCH  30  37
ENDBRANCH  28  33
ENDBRANCH   1  29
TORSDOF 5
ENDMDL
MODEL 4
REMARK VINA RESULT:      -8.2      5.397      8.402
REMARK  Name = 
REMARK  6 active torsions:
REMARK  status: ('A' for Active; 'I' for Inactive)
REMARK    1  A    between atoms: C_1  and  O_2
REMARK    2  A    between atoms: O_2  and  C_3
REMARK    3  A    between atoms: C_6  and  C_7
REMARK    4  A    between atoms: C_8  and  C_9
REMARK    5  A    between atoms: C_17  and  C_18
REMARK    6  A    between atoms: C_26  and  C_27
REMARK                            x       y       z     vdW  Elec       q    Type
REMARK                         _______ _______ _______ _____ _____    ______ ____
ROOT
ATOM      1  C   UNL     1       1.494   9.231  19.091  0.00  0.00    +0.000 C 
ATOM      2  O   UNL     1       1.099   8.767  20.155  0.00  0.00    +0.000 OA
ATOM      3  N   UNL     1       1.371  10.522  18.654  0.00  0.00    +0.000 N 
ATOM      4  C   UNL     1       0.815  11.531  19.387  0.00  0.00    +0.000 A 
ATOM      5  N   UNL     1       0.580  11.472  20.733  0.00  0.00    +0.000 NA
ATOM      6  C   UNL     1       0.058  12.637  21.005  0.00  0.00    +0.000 A 
ATOM      7  N   UNL     1      -0.036  13.363  19.848  0.00  0.00    +0.000 N 
ATOM      8  N   UNL     1       0.476  12.683  18.799  0.00  0.00    +0.000 NA
ATOM      9  C   UNL     1      -0.705  14.667  19.759  0.00  0.00    +0.000 C 
ATOM     10  C   UNL     1      -1.071  15.210  21.131  0.00  0.00    +0.000 C 
ATOM     11  C   UNL     1      -0.889  14.457  22.235  0.00  0.00    +0.000 C 
ATOM     12  N   UNL     1      -0.367  13.184  22.161  0.00  0.00    +0.000 N 
ATOM     13  H   UNL     1       1.593  10.788  17.708  0.00  0.00    +0.000 HD
ATOM     14  H   UNL     1      -0.273  12.666  23.031  0.00  0.00    +0.000 HD
ENDROOT
BRANCH   9  15
ATOM     15  C   UNL     1       0.113  15.657  18.941  0.00  0.00    +0.000 A 
ATOM     16  C   UNL     1      -0.538  16.698  18.252  0.00  0.00    +0.000 A 
ATOM     17  C   UNL     1       0.189  17.582  17.456  0.00  0.00    +0.000 A 
ATOM     18  C   UNL     1       1.566  17.435  17.348  0.00  0.00    +0.000 A 
ATOM     19  F   UNL     1       2.258  18.270  16.565  0.00  0.00    +0.000 F 
ATOM     20  C   UNL     1       2.233  16.429  18.036  0.00  0.00    +0.000 A 
ATOM     21  C   UNL     1       1.512  15.542  18.836  0.00  0.00    +0.000 A 
ENDBRANCH   9  15
BRANCH  11  22
ATOM     22  C   UNL     1      -1.244  14.985  23.557  0.00  0.00    +0.000 A 
ATOM     23  C   UNL     1      -0.487  16.004  24.145  0.00  0.00    +0.000 A 
ATOM     24  C   UNL     1      -0.818  16.485  25.415  0.00  0.00    +0.000 A 
ATOM     25  C   UNL     1      -1.908  15.950  26.101  0.00  0.00    +0.000 A 
ATOM     26  C   UNL     1      -2.671  14.939  25.516  0.00  0.00    +0.000 A 
ATOM     27  C   UNL     1      -2.340  14.457  24.249  0.00  0.00    +0.000 A 
ENDBRANCH  11  22
BRANCH   1  29
ATOM     28  C   UNL     1       2.910   7.329  18.498  0.00  0.00    +0.000 C 
ATOM     29  C   UNL     1       2.156   8.357  18.077  0.00  0.00    +0.000 C 
BRANCH  28  33
ATOM     30  C   UNL     1       5.124   4.626  16.009  0.00  0.00    +0.000 A 
ATOM     31  C   UNL     1       4.156   4.165  16.900  0.00  0.00    +0.000 A 
ATOM     32  C   UNL     1       3.435   5.063  17.692  0.00  0.00    +0.000 A 
ATOM     33  C   UNL     1       3.693   6.438  17.630  0.00  0.00    +0.000 A 
ATOM     34  C   UNL     1       4.662   6.895  16.730  0.00  0.00    +0.000 A 
ATOM     35  C   UNL     1       5.379   5.995  15.929  0.00  0.00    +0.000 A 
BRANCH  30  37
ATOM     36  C   UNL     1       6.269   4.038  14.027  0.00  0.00    +0.000 C 
ATOM     37  O   UNL     1       5.773   3.653  15.304  0.00  0.00    +0.000 OA
ENDBRANCH  30  37
ENDBRANCH  28  33
ENDBRANCH   1  29
TORSDOF 5
ENDMDL
MODEL 5
REMARK VINA RESULT:      -8.2      5.343      8.324
REMARK  Name = 
REMARK  6 active torsions:
REMARK  status: ('A' for Active; 'I' for Inactive)
REMARK    1  A    between atoms: C_1  and  O_2
REMARK    2  A    between atoms: O_2  and  C_3
REMARK    3  A    between atoms: C_6  and  C_7
REMARK    4  A    between atoms: C_8  and  C_9
REMARK    5  A    between atoms: C_17  and  C_18
REMARK    6  A    between atoms: C_26  and  C_27
REMARK                            x       y       z     vdW  Elec       q    Type
REMARK                         _______ _______ _______ _____ _____    ______ ____
ROOT
ATOM      1  C   UNL     1       1.674   8.969  18.949  0.00  0.00    +0.000 C 
ATOM      2  O   UNL     1       1.224   8.452  19.965  0.00  0.00    +0.000 OA
ATOM      3  N   UNL     1       1.546  10.273  18.556  0.00  0.00    +0.000 N 
ATOM      4  C   UNL     1       0.918  11.238  19.291  0.00  0.00    +0.000 A 
ATOM      5  N   UNL     1       0.599  11.117  20.616  0.00  0.00    +0.000 NA
ATOM      6  C   UNL     1       0.030  12.258  20.900  0.00  0.00    +0.000 A 
ATOM      7  N   UNL     1      -0.008  13.029  19.769  0.00  0.00    +0.000 N 
ATOM      8  N   UNL     1       0.587  12.406  18.730  0.00  0.00    +0.000 NA
ATOM      9  C   UNL     1      -0.703  14.320  19.689  0.00  0.00    +0.000 C 
ATOM     10  C   UNL     1      -1.171  14.796  21.055  0.00  0.00    +0.000 C 
ATOM     11  C   UNL     1      -1.040  14.002  22.138  0.00  0.00    +0.000 C 
ATOM     12  N   UNL     1      -0.482  12.746  22.047  0.00  0.00    +0.000 N 
ATOM     13  H   UNL     1       1.821  10.585  17.638  0.00  0.00    +0.000 HD
ATOM     14  H   UNL     1      -0.430  12.195  22.900  0.00  0.00    +0.000 HD
ENDROOT
BRANCH   9  15
ATOM     15  C   UNL     1       0.139  15.361  18.967  0.00  0.00    +0.000 A 
ATOM     16  C   UNL     1      -0.484  16.489  18.398  0.00  0.00    +0.000 A 
ATOM     17  C   UNL     1       0.264  17.427  17.687  0.00  0.00    +0.000 A 
ATOM     18  C   UNL     1       1.634  17.246  17.546  0.00  0.00    +0.000 A 
ATOM     19  F   UNL     1       2.346  18.136  16.843  0.00  0.00    +0.000 F 
ATOM     20  C   UNL     1       2.274  16.153  18.116  0.00  0.00    +0.000 A 
ATOM     21  C   UNL     1       1.532  15.213  18.831  0.00  0.00    +0.000 A 
ENDBRANCH   9  15
BRANCH  11  22
ATOM     22  C   UNL     1      -1.493  14.466  23.454  0.00  0.00    +0.000 A 
ATOM     23  C   UNL     1      -2.747  14.090  23.951  0.00  0.00    +0.000 A 
ATOM     24  C   UNL     1      -3.180  14.556  25.195  0.00  0.00    +0.000 A 
ATOM     25  C   UNL     1      -2.362  15.399  25.948  0.00  0.00    +0.000 A 
ATOM     26  C   UNL     1      -1.109  15.770  25.461  0.00  0.00    +0.000 A 
ATOM     27  C   UNL     1      -0.676  15.306  24.218  0.00  0.00    +0.000 A 
ENDBRANCH  11  22
BRANCH   1  29
ATOM     28  C   UNL     1       2.988   7.000  18.336  0.00  0.00    +0.000 C 
ATOM     29  C   UNL     1       2.422   8.153  17.946  0.00  0.00    +0.000 C 
BRANCH  28  33
ATOM     30  C   UNL     1       5.511   4.584  15.849  0.00  0.00    +0.000 A 
ATOM     31  C   UNL     1       5.695   5.962  15.947  0.00  0.00    +0.000 A 
ATOM     32  C   UNL     1       4.871   6.730  16.774  0.00  0.00    +0.000 A 
ATOM     33  C   UNL     1       3.827   6.136  17.494  0.00  0.00    +0.000 A 
ATOM     34  C   UNL     1       3.652   4.751  17.397  0.00  0.00    +0.000 A 
ATOM     35  C   UNL     1       4.484   3.979  16.573  0.00  0.00    +0.000 A 
BRANCH  30  37
ATOM     36  C   UNL     1       5.903   3.782  13.660  0.00  0.00    +0.000 C 
ATOM     37  O   UNL     1       6.366   3.945  14.996  0.00  0.00    +0.000 OA
ENDBRANCH  30  37
ENDBRANCH  28  33
ENDBRANCH   1  29
TORSDOF 5
ENDMDL
MODEL 6
REMARK VINA RESULT:      -8.1      0.668      1.333
REMARK  Name = 
REMARK  6 active torsions:
REMARK  status: ('A' for Active; 'I' for Inactive)
REMARK    1  A    between atoms: C_1  and  O_2
REMARK    2  A    between atoms: O_2  and  C_3
REMARK    3  A    between atoms: C_6  and  C_7
REMARK    4  A    between atoms: C_8  and  C_9
REMARK    5  A    between atoms: C_17  and  C_18
REMARK    6  A    between atoms: C_26  and  C_27
REMARK                            x       y       z     vdW  Elec       q    Type
REMARK                         _______ _______ _______ _____ _____    ______ ____
ROOT
ATOM      1  C   UNL     1       3.556  15.668  18.936  0.00  0.00    +0.000 C 
ATOM      2  O   UNL     1       2.635  16.466  18.802  0.00  0.00    +0.000 OA
ATOM      3  N   UNL     1       3.461  14.314  19.103  0.00  0.00    +0.000 N 
ATOM      4  C   UNL     1       2.284  13.620  19.094  0.00  0.00    +0.000 A 
ATOM      5  N   UNL     1       1.096  14.117  18.633  0.00  0.00    +0.000 NA
ATOM      6  C   UNL     1       0.262  13.127  18.805  0.00  0.00    +0.000 A 
ATOM      7  N   UNL     1       0.931  12.076  19.374  0.00  0.00    +0.000 N 
ATOM      8  N   UNL     1       2.241  12.359  19.539  0.00  0.00    +0.000 NA
ATOM      9  C   UNL     1       0.272  10.847  19.835  0.00  0.00    +0.000 C 
ATOM     10  C   UNL     1      -1.184  10.789  19.401  0.00  0.00    +0.000 C 
ATOM     11  C   UNL     1      -1.757  11.844  18.786  0.00  0.00    +0.000 C 
ATOM     12  N   UNL     1      -1.051  12.999  18.528  0.00  0.00    +0.000 N 
ATOM     13  H   UNL     1       4.257  13.749  19.351  0.00  0.00    +0.000 HD
ATOM     14  H   UNL     1      -1.550  13.761  18.077  0.00  0.00    +0.000 HD
ENDROOT
BRANCH   9  15
ATOM     15  C   UNL     1       1.053   9.609  19.420  0.00  0.00    +0.000 A 
ATOM     16  C   UNL     1       1.420   9.435  18.072  0.00  0.00    +0.000 A 
ATOM     17  C   UNL     1       2.089   8.282  17.663  0.00  0.00    +0.000 A 
ATOM     18  C   UNL     1       2.399   7.302  18.597  0.00  0.00    +0.000 A 
ATOM     19  F   UNL     1       3.020   6.185  18.199  0.00  0.00    +0.000 F 
ATOM     20  C   UNL     1       2.066   7.460  19.937  0.00  0.00    +0.000 A 
ATOM     21  C   UNL     1       1.398   8.612  20.352  0.00  0.00    +0.000 A 
ENDBRANCH   9  15
BRANCH  11  22
ATOM     22  C   UNL     1      -3.162  11.783  18.369  0.00  0.00    +0.000 A 
ATOM     23  C   UNL     1      -4.185  12.144  19.254  0.00  0.00    +0.000 A 
ATOM     24  C   UNL     1      -5.522  12.060  18.856  0.00  0.00    +0.000 A 
ATOM     25  C   UNL     1      -5.842  11.616  17.573  0.00  0.00    +0.000 A 
ATOM     26  C   UNL     1      -4.826  11.263  16.685  0.00  0.00    +0.000 A 
ATOM     27  C   UNL     1      -3.491  11.345  17.082  0.00  0.00    +0.000 A 
ENDBRANCH  11  22
BRANCH   1  29
ATOM     28  C   UNL     1       5.920  15.412  18.364  0.00  0.00    +0.000 C 
ATOM     29  C   UNL     1       4.973  16.140  18.979  0.00  0.00    +0.000 C 
BRANCH  28  33
ATOM     30  C   UNL     1      10.151  16.107  18.441  0.00  0.00    +0.000 A 
ATOM     31  C   UNL     1       9.627  14.816  18.464  0.00  0.00    +0.000 A 
ATOM     32  C   UNL     1       8.246  14.610  18.424  0.00  0.00    +0.000 A 
ATOM     33  C   UNL     1       7.361  15.695  18.393  0.00  0.00    +0.000 A 
ATOM     34  C   UNL     1       7.893  16.989  18.363  0.00  0.00    +0.000 A 
ATOM     35  C   UNL     1       9.280  17.195  18.395  0.00  0.00    +0.000 A 
BRANCH  30  37
ATOM     36  C   UNL     1      12.150  16.830  17.407  0.00  0.00    +0.000 C 
ATOM     37  O   UNL     1      11.514  16.181  18.502  0.00  0.00    +0.000 OA
ENDBRANCH  30  37
ENDBRANCH  28  33
ENDBRANCH   1  29
TORSDOF 5
ENDMDL
MODEL 7
REMARK VINA RESULT:      -7.9      0.764      1.179
REMARK  Name = 
REMARK  6 active torsions:
REMARK  status: ('A' for Active; 'I' for Inactive)
REMARK    1  A    between atoms: C_1  and  O_2
REMARK    2  A    between atoms: O_2  and  C_3
REMARK    3  A    between atoms: C_6  and  C_7
REMARK    4  A    between atoms: C_8  and  C_9
REMARK    5  A    between atoms: C_17  and  C_18
REMARK    6  A    between atoms: C_26  and  C_27
REMARK                            x       y       z     vdW  Elec       q    Type
REMARK                         _______ _______ _______ _____ _____    ______ ____
ROOT
ATOM      1  C   UNL     1       3.202  16.035  18.703  0.00  0.00    +0.000 C 
ATOM      2  O   UNL     1       2.245  16.796  18.617  0.00  0.00    +0.000 OA
ATOM      3  N   UNL     1       3.170  14.683  18.906  0.00  0.00    +0.000 N 
ATOM      4  C   UNL     1       2.022  13.948  18.996  0.00  0.00    +0.000 A 
ATOM      5  N   UNL     1       0.786  14.390  18.609  0.00  0.00    +0.000 NA
ATOM      6  C   UNL     1       0.004  13.375  18.862  0.00  0.00    +0.000 A 
ATOM      7  N   UNL     1       0.750  12.364  19.405  0.00  0.00    +0.000 N 
ATOM      8  N   UNL     1       2.057  12.697  19.469  0.00  0.00    +0.000 NA
ATOM      9  C   UNL     1       0.172  11.123  19.938  0.00  0.00    +0.000 C 
ATOM     10  C   UNL     1      -1.307  11.002  19.611  0.00  0.00    +0.000 C 
ATOM     11  C   UNL     1      -1.962  12.021  19.015  0.00  0.00    +0.000 C 
ATOM     12  N   UNL     1      -1.319  13.194  18.683  0.00  0.00    +0.000 N 
ATOM     13  H   UNL     1       4.002  14.153  19.108  0.00  0.00    +0.000 HD
ATOM     14  H   UNL     1      -1.877  13.926  18.252  0.00  0.00    +0.000 HD
ENDROOT
BRANCH   9  15
ATOM     15  C   UNL     1       0.968   9.904  19.495  0.00  0.00    +0.000 A 
ATOM     16  C   UNL     1       1.387   9.794  18.156  0.00  0.00    +0.000 A 
ATOM     17  C   UNL     1       2.071   8.659  17.719  0.00  0.00    +0.000 A 
ATOM     18  C   UNL     1       2.342   7.635  18.617  0.00  0.00    +0.000 A 
ATOM     19  F   UNL     1       2.978   6.536  18.190  0.00  0.00    +0.000 F 
ATOM     20  C   UNL     1       1.957   7.730  19.949  0.00  0.00    +0.000 A 
ATOM     21  C   UNL     1       1.275   8.863  20.392  0.00  0.00    +0.000 A 
ENDBRANCH   9  15
BRANCH  11  22
ATOM     22  C   UNL     1      -3.389  11.900  18.701  0.00  0.00    +0.000 A 
ATOM     23  C   UNL     1      -3.808  11.365  17.477  0.00  0.00    +0.000 A 
ATOM     24  C   UNL     1      -5.170  11.276  17.177  0.00  0.00    +0.000 A 
ATOM     25  C   UNL     1      -6.118  11.718  18.099  0.00  0.00    +0.000 A 
ATOM     26  C   UNL     1      -5.707  12.245  19.323  0.00  0.00    +0.000 A 
ATOM     27  C   UNL     1      -4.347  12.336  19.623  0.00  0.00    +0.000 A 
ENDBRANCH  11  22
BRANCH   1  29
ATOM     28  C   UNL     1       5.618  15.686  18.554  0.00  0.00    +0.000 C 
ATOM     29  C   UNL     1       4.600  16.558  18.633  0.00  0.00    +0.000 C 
BRANCH  28  33
ATOM     30  C   UNL     1       9.805  16.613  18.521  0.00  0.00    +0.000 A 
ATOM     31  C   UNL     1       9.313  15.458  17.916  0.00  0.00    +0.000 A 
ATOM     32  C   UNL     1       7.943  15.181  17.925  0.00  0.00    +0.000 A 
ATOM     33  C   UNL     1       7.044  16.039  18.569  0.00  0.00    +0.000 A 
ATOM     34  C   UNL     1       7.543  17.200  19.169  0.00  0.00    +0.000 A 
ATOM     35  C   UNL     1       8.917  17.483  19.153  0.00  0.00    +0.000 A 
BRANCH  30  37
ATOM     36  C   UNL     1      11.903  16.124  19.495  0.00  0.00    +0.000 C 
ATOM     37  O   UNL     1      11.161  16.765  18.463  0.00  0.00    +0.000 OA
ENDBRANCH  30  37
ENDBRANCH  28  33
ENDBRANCH   1  29
TORSDOF 5
ENDMDL
MODEL 8
REMARK VINA RESULT:      -7.9      6.907      8.119
REMARK  Name = 
REMARK  6 active torsions:
REMARK  status: ('A' for Active; 'I' for Inactive)
REMARK    1  A    between atoms: C_1  and  O_2
REMARK    2  A    between atoms: O_2  and  C_3
REMARK    3  A    between atoms: C_6  and  C_7
REMARK    4  A    between atoms: C_8  and  C_9
REMARK    5  A    between atoms: C_17  and  C_18
REMARK    6  A    between atoms: C_26  and  C_27
REMARK                            x       y       z     vdW  Elec       q    Type
REMARK                         _______ _______ _______ _____ _____    ______ ____
ROOT
ATOM      1  C   UNL     1       8.625   9.695  18.271  0.00  0.00    +0.000 C 
ATOM      2  O   UNL     1       8.018   9.723  19.336  0.00  0.00    +0.000 OA
ATOM      3  N   UNL     1       8.535   8.746  17.291  0.00  0.00    +0.000 N 
ATOM      4  C   UNL     1       7.686   7.677  17.333  0.00  0.00    +0.000 A 
ATOM      5  N   UNL     1       6.624   7.565  18.188  0.00  0.00    +0.000 NA
ATOM      6  C   UNL     1       6.100   6.410  17.877  0.00  0.00    +0.000 A 
ATOM      7  N   UNL     1       6.843   5.840  16.878  0.00  0.00    +0.000 N 
ATOM      8  N   UNL     1       7.849   6.652  16.489  0.00  0.00    +0.000 NA
ATOM      9  C   UNL     1       6.622   4.476  16.379  0.00  0.00    +0.000 C 
ATOM     10  C   UNL     1       5.344   3.869  16.936  0.00  0.00    +0.000 C 
ATOM     11  C   UNL     1       4.630   4.523  17.875  0.00  0.00    +0.000 C 
ATOM     12  N   UNL     1       5.025   5.752  18.355  0.00  0.00    +0.000 N 
ATOM     13  H   UNL     1       9.174   8.719  16.512  0.00  0.00    +0.000 HD
ATOM     14  H   UNL     1       4.449   6.181  19.075  0.00  0.00    +0.000 HD
ENDROOT
BRANCH   9  15
ATOM     15  C   UNL     1       6.676   4.425  14.859  0.00  0.00    +0.000 A 
ATOM     16  C   UNL     1       5.734   3.651  14.154  0.00  0.00    +0.000 A 
ATOM     17  C   UNL     1       5.800   3.550  12.764  0.00  0.00    +0.000 A 
ATOM     18  C   UNL     1       6.800   4.223  12.074  0.00  0.00    +0.000 A 
ATOM     19  F   UNL     1       6.875   4.106  10.743  0.00  0.00    +0.000 F 
ATOM     20  C   UNL     1       7.727   5.010  12.746  0.00  0.00    +0.000 A 
ATOM     21  C   UNL     1       7.665   5.118  14.136  0.00  0.00    +0.000 A 
ENDBRANCH   9  15
BRANCH  11  22
ATOM     22  C   UNL     1       3.397   3.934  18.409  0.00  0.00    +0.000 A 
ATOM     23  C   UNL     1       2.259   3.807  17.604  0.00  0.00    +0.000 A 
ATOM     24  C   UNL     1       1.082   3.266  18.129  0.00  0.00    +0.000 A 
ATOM     25  C   UNL     1       1.038   2.849  19.459  0.00  0.00    +0.000 A 
ATOM     26  C   UNL     1       2.172   2.965  20.263  0.00  0.00    +0.000 A 
ATOM     27  C   UNL     1       3.347   3.507  19.741  0.00  0.00    +0.000 A 
ENDBRANCH  11  22
BRANCH   1  29
ATOM     28  C   UNL     1       9.344  12.032  18.215  0.00  0.00    +0.000 C 
ATOM     29  C   UNL     1       9.630  10.749  17.939  0.00  0.00    +0.000 C 
BRANCH  28  33
ATOM     30  C   UNL     1      11.708  15.478  17.253  0.00  0.00    +0.000 A 
ATOM     31  C   UNL     1      10.420  15.603  17.770  0.00  0.00    +0.000 A 
ATOM     32  C   UNL     1       9.671  14.468  18.090  0.00  0.00    +0.000 A 
ATOM     33  C   UNL     1      10.186  13.185  17.869  0.00  0.00    +0.000 A 
ATOM     34  C   UNL     1      11.482  13.066  17.356  0.00  0.00    +0.000 A 
ATOM     35  C   UNL     1      12.237  14.205  17.042  0.00  0.00    +0.000 A 
BRANCH  30  37
ATOM     36  C   UNL     1      11.788  17.818  17.582  0.00  0.00    +0.000 C 
ATOM     37  O   UNL     1      12.333  16.658  16.963  0.00  0.00    +0.000 OA
ENDBRANCH  30  37
ENDBRANCH  28  33
ENDBRANCH   1  29
TORSDOF 5
ENDMDL
MODEL 9
REMARK VINA RESULT:      -7.9      6.628      8.241
REMARK  Name = 
REMARK  6 active torsions:
REMARK  status: ('A' for Active; 'I' for Inactive)
REMARK    1  A    between atoms: C_1  and  O_2
REMARK    2  A    between atoms: O_2  and  C_3
REMARK    3  A    between atoms: C_6  and  C_7
REMARK    4  A    between atoms: C_8  and  C_9
REMARK    5  A    between atoms: C_17  and  C_18
REMARK    6  A    between atoms: C_26  and  C_27
REMARK                            x       y       z     vdW  Elec       q    Type
REMARK                         _______ _______ _______ _____ _____    ______ ____
ROOT
ATOM      1  C   UNL     1       8.486   9.589  18.265  0.00  0.00    +0.000 C 
ATOM      2  O   UNL     1       7.834   9.573  19.304  0.00  0.00    +0.000 OA
ATOM      3  N   UNL     1       8.457   8.666  17.256  0.00  0.00    +0.000 N 
ATOM      4  C   UNL     1       7.631   7.579  17.233  0.00  0.00    +0.000 A 
ATOM      5  N   UNL     1       6.538   7.420  18.040  0.00  0.00    +0.000 NA
ATOM      6  C   UNL     1       6.052   6.263  17.675  0.00  0.00    +0.000 A 
ATOM      7  N   UNL     1       6.848   5.738  16.692  0.00  0.00    +0.000 N 
ATOM      8  N   UNL     1       7.851   6.582  16.368  0.00  0.00    +0.000 NA
ATOM      9  C   UNL     1       6.678   4.386  16.146  0.00  0.00    +0.000 C 
ATOM     10  C   UNL     1       5.393   3.736  16.632  0.00  0.00    +0.000 C 
ATOM     11  C   UNL     1       4.626   4.348  17.558  0.00  0.00    +0.000 C 
ATOM     12  N   UNL     1       4.974   5.570  18.089  0.00  0.00    +0.000 N 
ATOM     13  H   UNL     1       9.128   8.675  16.504  0.00  0.00    +0.000 HD
ATOM     14  H   UNL     1       4.359   5.965  18.796  0.00  0.00    +0.000 HD
ENDROOT
BRANCH   9  15
ATOM     15  C   UNL     1       6.796   4.380  14.628  0.00  0.00    +0.000 A 
ATOM     16  C   UNL     1       7.757   5.194  14.001  0.00  0.00    +0.000 A 
ATOM     17  C   UNL     1       7.844   5.242  12.609  0.00  0.00    +0.000 A 
ATOM     18  C   UNL     1       6.978   4.475  11.842  0.00  0.00    +0.000 A 
ATOM     19  F   UNL     1       7.047   4.541  10.506  0.00  0.00    +0.000 F 
ATOM     20  C   UNL     1       6.035   3.648  12.439  0.00  0.00    +0.000 A 
ATOM     21  C   UNL     1       5.944   3.594  13.830  0.00  0.00    +0.000 A 
ENDBRANCH   9  15
BRANCH  11  22
ATOM     22  C   UNL     1       3.386   3.717  18.024  0.00  0.00    +0.000 A 
ATOM     23  C   UNL     1       3.355   2.355  18.347  0.00  0.00    +0.000 A 
ATOM     24  C   UNL     1       2.164   1.758  18.767  0.00  0.00    +0.000 A 
ATOM     25  C   UNL     1       0.999   2.518  18.867  0.00  0.00    +0.000 A 
ATOM     26  C   UNL     1       1.026   3.877  18.555  0.00  0.00    +0.000 A 
ATOM     27  C   UNL     1       2.215   4.474  18.134  0.00  0.00    +0.000 A 
ENDBRANCH  11  22
BRANCH   1  29
ATOM     28  C   UNL     1       9.090  11.953  18.113  0.00  0.00    +0.000 C 
ATOM     29  C   UNL     1       9.480  10.673  18.006  0.00  0.00    +0.000 C 
BRANCH  28  33
ATOM     30  C   UNL     1      11.439  15.445  17.289  0.00  0.00    +0.000 A 
ATOM     31  C   UNL     1      10.283  15.515  18.064  0.00  0.00    +0.000 A 
ATOM     32  C   UNL     1       9.538  14.364  18.333  0.00  0.00    +0.000 A 
ATOM     33  C   UNL     1       9.921  13.124  17.804  0.00  0.00    +0.000 A 
ATOM     34  C   UNL     1      11.087  13.060  17.032  0.00  0.00    +0.000 A 
ATOM     35  C   UNL     1      11.838  14.215  16.769  0.00  0.00    +0.000 A 
BRANCH  30  37
ATOM     36  C   UNL     1      11.335  17.802  17.446  0.00  0.00    +0.000 C 
ATOM     37  O   UNL     1      12.070  16.639  17.080  0.00  0.00    +0.000 OA
ENDBRANCH  30  37
ENDBRANCH  28  33
ENDBRANCH   1  29
TORSDOF 5
ENDMDL
