MODEL 1
REMARK VINA RESULT:      -8.0      0.000      0.000
REMARK  Name = 
REMARK  6 active torsions:
REMARK  status: ('A' for Active; 'I' for Inactive)
REMARK    1  A    between atoms: C_1  and  O_2
REMARK    2  A    between atoms: O_2  and  C_3
REMARK    3  A    between atoms: C_5  and  C_6
REMARK    4  A    between atoms: N_7  and  N_8
REMARK    5  A    between atoms: C_15  and  C_16
REMARK    6  A    between atoms: C_22  and  O_23
REMARK                            x       y       z     vdW  Elec       q    Type
REMARK                         _______ _______ _______ _____ _____    ______ ____
ROOT
ATOM      1  C   UNL     1       3.202   7.334  17.476  0.00  0.00    +0.000 C 
ATOM      2  N   UNL     1       2.469   8.255  18.027  0.00  0.00    +0.000 NA
ENDROOT
BRANCH   2   3
ATOM      3  N   UNL     1       2.018   8.085  19.292  0.00  0.00    +0.000 N 
ATOM      4  C   UNL     1       1.183   8.942  19.935  0.00  0.00    +0.000 A 
ATOM      5  N   UNL     1       0.876   8.794  21.204  0.00  0.00    +0.000 NA
ATOM      6  C   UNL     1       0.037   9.815  21.619  0.00  0.00    +0.000 A 
ATOM      7  C   UNL     1      -0.452   9.987  22.929  0.00  0.00    +0.000 A 
ATOM      8  C   UNL     1      -1.317  11.045  23.211  0.00  0.00    +0.000 A 
ATOM      9  C   UNL     1      -1.712  11.920  22.203  0.00  0.00    +0.000 A 
ATOM     10  C   UNL     1      -1.243  11.786  20.884  0.00  0.00    +0.000 A 
ATOM     11  C   UNL     1      -1.715  12.723  19.809  0.00  0.00    +0.000 C 
ATOM     12  C   UNL     1      -0.345  10.724  20.632  0.00  0.00    +0.000 A 
ATOM     13  S   UNL     1       0.458  10.301  19.167  0.00  0.00    +0.000 S 
ATOM     14  H   UNL     1       2.198   7.219  19.792  0.00  0.00    +0.000 HD
ENDBRANCH   2   3
BRANCH   1  17
ATOM     15  C   UNL     1       5.534   4.711  18.970  0.00  0.00    +0.000 A 
ATOM     16  C   UNL     1       5.068   5.945  18.490  0.00  0.00    +0.000 A 
ATOM     17  C   UNL     1       3.757   6.078  18.026  0.00  0.00    +0.000 A 
ATOM     18  C   UNL     1       2.909   4.967  18.008  0.00  0.00    +0.000 A 
ATOM     19  C   UNL     1       3.364   3.746  18.499  0.00  0.00    +0.000 A 
ATOM     20 BR   UNL     1       2.169   2.272  18.500  0.00  0.00    +0.000 Br
ATOM     21  C   UNL     1       4.668   3.614  18.994  0.00  0.00    +0.000 A 
BRANCH  15  23
ATOM     22  C   UNL     1       7.596   5.886  19.039  0.00  0.00    +0.000 C 
ATOM     23  O   UNL     1       6.830   4.746  19.416  0.00  0.00    +0.000 OA
ENDBRANCH  15  23
BRANCH  21  24
ATOM     24  O   UNL     1       5.075   2.415  19.515  0.00  0.00    +0.000 OA
ATOM     25  H   UNL     1       4.282   1.878  19.692  0.00  0.00    +0.000 HD
ENDBRANCH  21  24
ENDBRANCH   1  17
TORSDOF 4
ENDMDL
MODEL 2
REMARK VINA RESULT:      -7.5      1.567      2.259
REMARK  Name = 
REMARK  6 active torsions:
REMARK  status: ('A' for Active; 'I' for Inactive)
REMARK    1  A    between atoms: C_1  and  O_2
REMARK    2  A    between atoms: O_2  and  C_3
REMARK    3  A    between atoms: C_5  and  C_6
REMARK    4  A    between atoms: N_7  and  N_8
REMARK    5  A    between atoms: C_15  and  C_16
REMARK    6  A    between atoms: C_22  and  O_23
REMARK                            x       y       z     vdW  Elec       q    Type
REMARK                         _______ _______ _______ _____ _____    ______ ____
ROOT
ATOM      1  C   UNL     1       2.929   7.739  17.471  0.00  0.00    +0.000 C 
ATOM      2  N   UNL     1       2.218   8.658  18.053  0.00  0.00    +0.000 NA
ENDROOT
BRANCH   2   3
ATOM      3  N   UNL     1       1.799   8.475  19.327  0.00  0.00    +0.000 N 
ATOM      4  C   UNL     1       0.934   9.294  19.981  0.00  0.00    +0.000 A 
ATOM      5  N   UNL     1       0.658   9.140  21.256  0.00  0.00    +0.000 NA
ATOM      6  C   UNL     1      -0.222  10.121  21.681  0.00  0.00    +0.000 A 
ATOM      7  C   UNL     1      -0.695  10.277  22.998  0.00  0.00    +0.000 A 
ATOM      8  C   UNL     1      -1.607  11.292  23.291  0.00  0.00    +0.000 A 
ATOM      9  C   UNL     1      -2.063  12.140  22.285  0.00  0.00    +0.000 A 
ATOM     10  C   UNL     1      -1.613  12.020  20.958  0.00  0.00    +0.000 A 
ATOM     11  C   UNL     1      -2.150  12.925  19.887  0.00  0.00    +0.000 C 
ATOM     12  C   UNL     1      -0.668  11.003  20.695  0.00  0.00    +0.000 A 
ATOM     13  S   UNL     1       0.128  10.610  19.219  0.00  0.00    +0.000 S 
ATOM     14  H   UNL     1       2.031   7.622  19.829  0.00  0.00    +0.000 HD
ENDBRANCH   2   3
BRANCH   1  17
ATOM     15  C   UNL     1       3.351   4.364  19.197  0.00  0.00    +0.000 A 
ATOM     16  C   UNL     1       2.744   5.531  18.708  0.00  0.00    +0.000 A 
ATOM     17  C   UNL     1       3.487   6.472  17.990  0.00  0.00    +0.000 A 
ATOM     18  C   UNL     1       4.854   6.268  17.784  0.00  0.00    +0.000 A 
ATOM     19  C   UNL     1       5.455   5.103  18.253  0.00  0.00    +0.000 A 
ATOM     20 BR   UNL     1       7.303   4.840  17.914  0.00  0.00    +0.000 Br
ATOM     21  C   UNL     1       4.708   4.141  18.948  0.00  0.00    +0.000 A 
BRANCH  15  23
ATOM     22  C   UNL     1       2.233   3.831  21.223  0.00  0.00    +0.000 C 
ATOM     23  O   UNL     1       2.487   3.527  19.855  0.00  0.00    +0.000 OA
ENDBRANCH  15  23
BRANCH  21  24
ATOM     24  O   UNL     1       5.312   2.982  19.357  0.00  0.00    +0.000 OA
ATOM     25  H   UNL     1       5.974   2.735  18.687  0.00  0.00    +0.000 HD
ENDBRANCH  21  24
ENDBRANCH   1  17
TORSDOF 4
ENDMDL
MODEL 3
REMARK VINA RESULT:      -7.5      2.536      3.368
REMARK  Name = 
REMARK  6 active torsions:
REMARK  status: ('A' for Active; 'I' for Inactive)
REMARK    1  A    between atoms: C_1  and  O_2
REMARK    2  A    between atoms: O_2  and  C_3
REMARK    3  A    between atoms: C_5  and  C_6
REMARK    4  A    between atoms: N_7  and  N_8
REMARK    5  A    between atoms: C_15  and  C_16
REMARK    6  A    between atoms: C_22  and  O_23
REMARK                            x       y       z     vdW  Elec       q    Type
REMARK                         _______ _______ _______ _____ _____    ______ ____
ROOT
ATOM      1  C   UNL     1       4.052   4.866  18.856  0.00  0.00    +0.000 C 
ATOM      2  N   UNL     1       3.011   5.554  19.218  0.00  0.00    +0.000 NA
ENDROOT
BRANCH   2   3
ATOM      3  N   UNL     1       2.771   6.757  18.646  0.00  0.00    +0.000 N 
ATOM      4  C   UNL     1       2.060   7.760  19.226  0.00  0.00    +0.000 A 
ATOM      5  N   UNL     1       1.752   8.859  18.577  0.00  0.00    +0.000 NA
ATOM      6  C   UNL     1       1.001   9.700  19.382  0.00  0.00    +0.000 A 
ATOM      7  C   UNL     1       0.468  10.943  18.990  0.00  0.00    +0.000 A 
ATOM      8  C   UNL     1      -0.249  11.710  19.910  0.00  0.00    +0.000 A 
ATOM      9  C   UNL     1      -0.426  11.260  21.216  0.00  0.00    +0.000 A 
ATOM     10  C   UNL     1       0.086  10.023  21.646  0.00  0.00    +0.000 A 
ATOM     11  C   UNL     1      -0.087   9.580  23.071  0.00  0.00    +0.000 C 
ATOM     12  C   UNL     1       0.783   9.254  20.686  0.00  0.00    +0.000 A 
ATOM     13  S   UNL     1       1.487   7.689  20.847  0.00  0.00    +0.000 S 
ATOM     14  H   UNL     1       3.227   7.015  17.775  0.00  0.00    +0.000 HD
ENDBRANCH   2   3
BRANCH   1  17
ATOM     15  C   UNL     1       7.034   6.201  16.889  0.00  0.00    +0.000 A 
ATOM     16  C   UNL     1       6.135   5.993  17.946  0.00  0.00    +0.000 A 
ATOM     17  C   UNL     1       5.059   5.113  17.801  0.00  0.00    +0.000 A 
ATOM     18  C   UNL     1       4.853   4.459  16.584  0.00  0.00    +0.000 A 
ATOM     19  C   UNL     1       5.754   4.651  15.539  0.00  0.00    +0.000 A 
ATOM     20 BR   UNL     1       5.468   3.710  13.916  0.00  0.00    +0.000 Br
ATOM     21  C   UNL     1       6.852   5.509  15.688  0.00  0.00    +0.000 A 
BRANCH  15  23
ATOM     22  C   UNL     1       7.664   8.364  17.639  0.00  0.00    +0.000 C 
ATOM     23  O   UNL     1       8.052   7.068  17.192  0.00  0.00    +0.000 OA
ENDBRANCH  15  23
BRANCH  21  24
ATOM     24  O   UNL     1       7.749   5.643  14.662  0.00  0.00    +0.000 OA
ATOM     25  H   UNL     1       7.841   4.776  14.226  0.00  0.00    +0.000 HD
ENDBRANCH  21  24
ENDBRANCH   1  17
TORSDOF 4
ENDMDL
MODEL 4
REMARK VINA RESULT:      -7.4      4.415      8.276
REMARK  Name = 
REMARK  6 active torsions:
REMARK  status: ('A' for Active; 'I' for Inactive)
REMARK    1  A    between atoms: C_1  and  O_2
REMARK    2  A    between atoms: O_2  and  C_3
REMARK    3  A    between atoms: C_5  and  C_6
REMARK    4  A    between atoms: N_7  and  N_8
REMARK    5  A    between atoms: C_15  and  C_16
REMARK    6  A    between atoms: C_22  and  O_23
REMARK                            x       y       z     vdW  Elec       q    Type
REMARK                         _______ _______ _______ _____ _____    ______ ____
ROOT
ATOM      1  C   UNL     1       0.444   9.130  21.409  0.00  0.00    +0.000 C 
ATOM      2  N   UNL     1       1.318   8.169  21.367  0.00  0.00    +0.000 NA
ENDROOT
BRANCH   2   3
ATOM      3  N   UNL     1       2.059   7.984  20.250  0.00  0.00    +0.000 N 
ATOM      4  C   UNL     1       2.348   6.773  19.707  0.00  0.00    +0.000 A 
ATOM      5  N   UNL     1       3.174   6.644  18.694  0.00  0.00    +0.000 NA
ATOM      6  C   UNL     1       3.318   5.308  18.356  0.00  0.00    +0.000 A 
ATOM      7  C   UNL     1       4.160   4.809  17.343  0.00  0.00    +0.000 A 
ATOM      8  C   UNL     1       4.191   3.439  17.082  0.00  0.00    +0.000 A 
ATOM      9  C   UNL     1       3.383   2.565  17.806  0.00  0.00    +0.000 A 
ATOM     10  C   UNL     1       2.533   3.022  18.828  0.00  0.00    +0.000 A 
ATOM     11  C   UNL     1       1.645   2.062  19.567  0.00  0.00    +0.000 C 
ATOM     12  C   UNL     1       2.542   4.411  19.091  0.00  0.00    +0.000 A 
ATOM     13  S   UNL     1       1.680   5.298  20.290  0.00  0.00    +0.000 S 
ATOM     14  H   UNL     1       2.343   8.778  19.683  0.00  0.00    +0.000 HD
ENDBRANCH   2   3
BRANCH   1  17
ATOM     15  C   UNL     1       0.295  12.462  19.559  0.00  0.00    +0.000 A 
ATOM     16  C   UNL     1       0.662  11.490  20.502  0.00  0.00    +0.000 A 
ATOM     17  C   UNL     1       0.132  10.199  20.436  0.00  0.00    +0.000 A 
ATOM     18  C   UNL     1      -0.798   9.879  19.443  0.00  0.00    +0.000 A 
ATOM     19  C   UNL     1      -1.151  10.837  18.497  0.00  0.00    +0.000 A 
ATOM     20 BR   UNL     1      -2.383  10.352  17.137  0.00  0.00    +0.000 Br
ATOM     21  C   UNL     1      -0.600  12.125  18.540  0.00  0.00    +0.000 A 
BRANCH  15  23
ATOM     22  C   UNL     1       2.244  13.776  19.224  0.00  0.00    +0.000 C 
ATOM     23  O   UNL     1       0.920  13.670  19.739  0.00  0.00    +0.000 OA
ENDBRANCH  15  23
BRANCH  21  24
ATOM     24  O   UNL     1      -0.928  13.034  17.569  0.00  0.00    +0.000 OA
ATOM     25  H   UNL     1      -1.803  13.402  17.784  0.00  0.00    +0.000 HD
ENDBRANCH  21  24
ENDBRANCH   1  17
TORSDOF 4
ENDMDL
MODEL 5
REMARK VINA RESULT:      -7.3      2.860      3.727
REMARK  Name = 
REMARK  6 active torsions:
REMARK  status: ('A' for Active; 'I' for Inactive)
REMARK    1  A    between atoms: C_1  and  O_2
REMARK    2  A    between atoms: O_2  and  C_3
REMARK    3  A    between atoms: C_5  and  C_6
REMARK    4  A    between atoms: N_7  and  N_8
REMARK    5  A    between atoms: C_15  and  C_16
REMARK    6  A    between atoms: C_22  and  O_23
REMARK                            x       y       z     vdW  Elec       q    Type
REMARK                         _______ _______ _______ _____ _____    ______ ____
ROOT
ATOM      1  C   UNL     1       3.707   4.857  19.122  0.00  0.00    +0.000 C 
ATOM      2  N   UNL     1       2.707   5.608  19.475  0.00  0.00    +0.000 NA
ENDROOT
BRANCH   2   3
ATOM      3  N   UNL     1       2.548   6.825  18.905  0.00  0.00    +0.000 N 
ATOM      4  C   UNL     1       1.870   7.859  19.468  0.00  0.00    +0.000 A 
ATOM      5  N   UNL     1       1.640   8.976  18.818  0.00  0.00    +0.000 NA
ATOM      6  C   UNL     1       0.906   9.849  19.603  0.00  0.00    +0.000 A 
ATOM      7  C   UNL     1       0.451  11.121  19.203  0.00  0.00    +0.000 A 
ATOM      8  C   UNL     1      -0.257  11.917  20.104  0.00  0.00    +0.000 A 
ATOM      9  C   UNL     1      -0.501  11.470  21.400  0.00  0.00    +0.000 A 
ATOM     10  C   UNL     1      -0.067  10.205  21.837  0.00  0.00    +0.000 A 
ATOM     11  C   UNL     1      -0.312   9.763  23.252  0.00  0.00    +0.000 C 
ATOM     12  C   UNL     1       0.621   9.407  20.896  0.00  0.00    +0.000 A 
ATOM     13  S   UNL     1       1.239   7.808  21.068  0.00  0.00    +0.000 S 
ATOM     14  H   UNL     1       3.046   7.063  18.052  0.00  0.00    +0.000 HD
ENDBRANCH   2   3
BRANCH   1  17
ATOM     15  C   UNL     1       5.947   4.396  16.069  0.00  0.00    +0.000 A 
ATOM     16  C   UNL     1       4.925   4.170  17.004  0.00  0.00    +0.000 A 
ATOM     17  C   UNL     1       4.739   5.044  18.079  0.00  0.00    +0.000 A 
ATOM     18  C   UNL     1       5.597   6.134  18.246  0.00  0.00    +0.000 A 
ATOM     19  C   UNL     1       6.601   6.369  17.310  0.00  0.00    +0.000 A 
ATOM     20 BR   UNL     1       7.718   7.885  17.546  0.00  0.00    +0.000 Br
ATOM     21  C   UNL     1       6.773   5.514  16.214  0.00  0.00    +0.000 A 
BRANCH  15  23
ATOM     22  C   UNL     1       5.637   3.942  13.759  0.00  0.00    +0.000 C 
ATOM     23  O   UNL     1       5.984   3.471  15.058  0.00  0.00    +0.000 OA
ENDBRANCH  15  23
BRANCH  21  24
ATOM     24  O   UNL     1       7.737   5.795  15.282  0.00  0.00    +0.000 OA
ATOM     25  H   UNL     1       8.031   6.713  15.420  0.00  0.00    +0.000 HD
ENDBRANCH  21  24
ENDBRANCH   1  17
TORSDOF 4
ENDMDL
MODEL 6
REMARK VINA RESULT:      -7.2      4.644      8.611
REMARK  Name = 
REMARK  6 active torsions:
REMARK  status: ('A' for Active; 'I' for Inactive)
REMARK    1  A    between atoms: C_1  and  O_2
REMARK    2  A    between atoms: O_2  and  C_3
REMARK    3  A    between atoms: C_5  and  C_6
REMARK    4  A    between atoms: N_7  and  N_8
REMARK    5  A    between atoms: C_15  and  C_16
REMARK    6  A    between atoms: C_22  and  O_23
REMARK                            x       y       z     vdW  Elec       q    Type
REMARK                         _______ _______ _______ _____ _____    ______ ____
ROOT
ATOM      1  C   UNL     1       0.327   9.175  21.376  0.00  0.00    +0.000 C 
ATOM      2  N   UNL     1       1.206   8.222  21.280  0.00  0.00    +0.000 NA
ENDROOT
BRANCH   2   3
ATOM      3  N   UNL     1       1.908   8.071  20.133  0.00  0.00    +0.000 N 
ATOM      4  C   UNL     1       2.273   6.874  19.605  0.00  0.00    +0.000 A 
ATOM      5  N   UNL     1       3.060   6.787  18.556  0.00  0.00    +0.000 NA
ATOM      6  C   UNL     1       3.302   5.460  18.243  0.00  0.00    +0.000 A 
ATOM      7  C   UNL     1       4.136   5.007  17.202  0.00  0.00    +0.000 A 
ATOM      8  C   UNL     1       4.272   3.637  16.971  0.00  0.00    +0.000 A 
ATOM      9  C   UNL     1       3.576   2.718  17.752  0.00  0.00    +0.000 A 
ATOM     10  C   UNL     1       2.737   3.130  18.803  0.00  0.00    +0.000 A 
ATOM     11  C   UNL     1       1.970   2.118  19.606  0.00  0.00    +0.000 C 
ATOM     12  C   UNL     1       2.640   4.521  19.034  0.00  0.00    +0.000 A 
ATOM     13  S   UNL     1       1.761   5.364  20.252  0.00  0.00    +0.000 S 
ATOM     14  H   UNL     1       2.097   8.870  19.535  0.00  0.00    +0.000 HD
ENDBRANCH   2   3
BRANCH   1  17
ATOM     15  C   UNL     1      -1.293  11.227  18.600  0.00  0.00    +0.000 A 
ATOM     16  C   UNL     1      -1.033  10.161  19.475  0.00  0.00    +0.000 A 
ATOM     17  C   UNL     1      -0.029  10.264  20.441  0.00  0.00    +0.000 A 
ATOM     18  C   UNL     1       0.749  11.423  20.517  0.00  0.00    +0.000 A 
ATOM     19  C   UNL     1       0.481  12.487  19.660  0.00  0.00    +0.000 A 
ATOM     20 BR   UNL     1       1.527  14.062  19.823  0.00  0.00    +0.000 Br
ATOM     21  C   UNL     1      -0.545  12.403  18.709  0.00  0.00    +0.000 A 
BRANCH  15  23
ATOM     22  C   UNL     1      -2.123   9.942  16.783  0.00  0.00    +0.000 C 
ATOM     23  O   UNL     1      -2.326  10.987  17.730  0.00  0.00    +0.000 OA
ENDBRANCH  15  23
BRANCH  21  24
ATOM     24  O   UNL     1      -0.819  13.481  17.912  0.00  0.00    +0.000 OA
ATOM     25  H   UNL     1      -0.315  14.243  18.251  0.00  0.00    +0.000 HD
ENDBRANCH  21  24
ENDBRANCH   1  17
TORSDOF 4
ENDMDL
MODEL 7
REMARK VINA RESULT:      -7.1      2.194      3.102
REMARK  Name = 
REMARK  6 active torsions:
REMARK  status: ('A' for Active; 'I' for Inactive)
REMARK    1  A    between atoms: C_1  and  O_2
REMARK    2  A    between atoms: O_2  and  C_3
REMARK    3  A    between atoms: C_5  and  C_6
REMARK    4  A    between atoms: N_7  and  N_8
REMARK    5  A    between atoms: C_15  and  C_16
REMARK    6  A    between atoms: C_22  and  O_23
REMARK                            x       y       z     vdW  Elec       q    Type
REMARK                         _______ _______ _______ _____ _____    ______ ____
ROOT
ATOM      1  C   UNL     1       3.172   4.219  18.947  0.00  0.00    +0.000 C 
ATOM      2  N   UNL     1       2.208   5.075  19.110  0.00  0.00    +0.000 NA
ENDROOT
BRANCH   2   3
ATOM      3  N   UNL     1       2.334   6.328  18.615  0.00  0.00    +0.000 N 
ATOM      4  C   UNL     1       1.867   7.449  19.225  0.00  0.00    +0.000 A 
ATOM      5  N   UNL     1       1.906   8.626  18.641  0.00  0.00    +0.000 NA
ATOM      6  C   UNL     1       1.342   9.589  19.461  0.00  0.00    +0.000 A 
ATOM      7  C   UNL     1       1.182  10.949  19.131  0.00  0.00    +0.000 A 
ATOM      8  C   UNL     1       0.623  11.826  20.061  0.00  0.00    +0.000 A 
ATOM      9  C   UNL     1       0.238  11.368  21.319  0.00  0.00    +0.000 A 
ATOM     10  C   UNL     1       0.376  10.017  21.685  0.00  0.00    +0.000 A 
ATOM     11  C   UNL     1      -0.014   9.558  23.062  0.00  0.00    +0.000 C 
ATOM     12  C   UNL     1       0.918   9.145  20.714  0.00  0.00    +0.000 A 
ATOM     13  S   UNL     1       1.176   7.444  20.800  0.00  0.00    +0.000 S 
ATOM     14  H   UNL     1       2.905   6.503  17.793  0.00  0.00    +0.000 HD
ENDBRANCH   2   3
BRANCH   1  17
ATOM     15  C   UNL     1       6.833   4.729  18.007  0.00  0.00    +0.000 A 
ATOM     16  C   UNL     1       5.673   4.617  18.788  0.00  0.00    +0.000 A 
ATOM     17  C   UNL     1       4.443   4.321  18.196  0.00  0.00    +0.000 A 
ATOM     18  C   UNL     1       4.356   4.168  16.810  0.00  0.00    +0.000 A 
ATOM     19  C   UNL     1       5.509   4.261  16.034  0.00  0.00    +0.000 A 
ATOM     20 BR   UNL     1       5.360   4.002  14.160  0.00  0.00    +0.000 Br
ATOM     21  C   UNL     1       6.751   4.528  16.626  0.00  0.00    +0.000 A 
BRANCH  15  23
ATOM     22  C   UNL     1       8.155   6.347  19.134  0.00  0.00    +0.000 C 
ATOM     23  O   UNL     1       7.966   4.993  18.734  0.00  0.00    +0.000 OA
ENDBRANCH  15  23
BRANCH  21  24
ATOM     24  O   UNL     1       7.876   4.568  15.847  0.00  0.00    +0.000 OA
ATOM     25  H   UNL     1       8.500   3.898  16.182  0.00  0.00    +0.000 HD
ENDBRANCH  21  24
ENDBRANCH   1  17
TORSDOF 4
ENDMDL
MODEL 8
REMARK VINA RESULT:      -7.1      4.696      8.833
REMARK  Name = 
REMARK  6 active torsions:
REMARK  status: ('A' for Active; 'I' for Inactive)
REMARK    1  A    between atoms: C_1  and  O_2
REMARK    2  A    between atoms: O_2  and  C_3
REMARK    3  A    between atoms: C_5  and  C_6
REMARK    4  A    between atoms: N_7  and  N_8
REMARK    5  A    between atoms: C_15  and  C_16
REMARK    6  A    between atoms: C_22  and  O_23
REMARK                            x       y       z     vdW  Elec       q    Type
REMARK                         _______ _______ _______ _____ _____    ______ ____
ROOT
ATOM      1  C   UNL     1       0.350   8.938  20.935  0.00  0.00    +0.000 C 
ATOM      2  N   UNL     1       1.289   8.101  20.610  0.00  0.00    +0.000 NA
ENDROOT
BRANCH   2   3
ATOM      3  N   UNL     1       2.019   8.314  19.490  0.00  0.00    +0.000 N 
ATOM      4  C   UNL     1       2.672   7.344  18.799  0.00  0.00    +0.000 A 
ATOM      5  N   UNL     1       3.467   7.623  17.791  0.00  0.00    +0.000 NA
ATOM      6  C   UNL     1       4.030   6.463  17.285  0.00  0.00    +0.000 A 
ATOM      7  C   UNL     1       4.960   6.402  16.229  0.00  0.00    +0.000 A 
ATOM      8  C   UNL     1       5.430   5.162  15.792  0.00  0.00    +0.000 A 
ATOM      9  C   UNL     1       4.972   3.987  16.383  0.00  0.00    +0.000 A 
ATOM     10  C   UNL     1       4.047   4.006  17.442  0.00  0.00    +0.000 A 
ATOM     11  C   UNL     1       3.542   2.722  18.035  0.00  0.00    +0.000 C 
ATOM     12  C   UNL     1       3.610   5.275  17.884  0.00  0.00    +0.000 A 
ATOM     13  S   UNL     1       2.538   5.670  19.174  0.00  0.00    +0.000 S 
ATOM     14  H   UNL     1       2.013   9.223  19.036  0.00  0.00    +0.000 HD
ENDBRANCH   2   3
BRANCH   1  17
ATOM     15  C   UNL     1      -1.233  11.576  18.681  0.00  0.00    +0.000 A 
ATOM     16  C   UNL     1      -0.915  10.322  19.226  0.00  0.00    +0.000 A 
ATOM     17  C   UNL     1      -0.058  10.222  20.325  0.00  0.00    +0.000 A 
ATOM     18  C   UNL     1       0.516  11.375  20.867  0.00  0.00    +0.000 A 
ATOM     19  C   UNL     1       0.188  12.621  20.338  0.00  0.00    +0.000 A 
ATOM     20 BR   UNL     1       0.952  14.167  21.130  0.00  0.00    +0.000 Br
ATOM     21  C   UNL     1      -0.694  12.730  19.255  0.00  0.00    +0.000 A 
BRANCH  15  23
ATOM     22  C   UNL     1      -2.466  10.208  17.181  0.00  0.00    +0.000 C 
ATOM     23  O   UNL     1      -2.108  11.513  17.626  0.00  0.00    +0.000 OA
ENDBRANCH  15  23
BRANCH  21  24
ATOM     24  O   UNL     1      -1.037  13.970  18.785  0.00  0.00    +0.000 OA
ATOM     25  H   UNL     1      -1.470  13.855  17.920  0.00  0.00    +0.000 HD
ENDBRANCH  21  24
ENDBRANCH   1  17
TORSDOF 4
ENDMDL
MODEL 9
REMARK VINA RESULT:      -7.0      4.536      7.982
REMARK  Name = 
REMARK  6 active torsions:
REMARK  status: ('A' for Active; 'I' for Inactive)
REMARK    1  A    between atoms: C_1  and  O_2
REMARK    2  A    between atoms: O_2  and  C_3
REMARK    3  A    between atoms: C_5  and  C_6
REMARK    4  A    between atoms: N_7  and  N_8
REMARK    5  A    between atoms: C_15  and  C_16
REMARK    6  A    between atoms: C_22  and  O_23
REMARK                            x       y       z     vdW  Elec       q    Type
REMARK                         _______ _______ _______ _____ _____    ______ ____
ROOT
ATOM      1  C   UNL     1       1.834   9.722  17.774  0.00  0.00    +0.000 C 
ATOM      2  N   UNL     1       2.492   8.628  18.015  0.00  0.00    +0.000 NA
ENDROOT
BRANCH   2   3
ATOM      3  N   UNL     1       2.310   7.980  19.189  0.00  0.00    +0.000 N 
ATOM      4  C   UNL     1       2.240   6.630  19.323  0.00  0.00    +0.000 A 
ATOM      5  N   UNL     1       1.937   6.059  20.467  0.00  0.00    +0.000 NA
ATOM      6  C   UNL     1       1.902   4.681  20.324  0.00  0.00    +0.000 A 
ATOM      7  C   UNL     1       1.571   3.764  21.340  0.00  0.00    +0.000 A 
ATOM      8  C   UNL     1       1.601   2.395  21.073  0.00  0.00    +0.000 A 
ATOM      9  C   UNL     1       1.974   1.930  19.814  0.00  0.00    +0.000 A 
ATOM     10  C   UNL     1       2.308   2.813  18.772  0.00  0.00    +0.000 A 
ATOM     11  C   UNL     1       2.742   2.283  17.435  0.00  0.00    +0.000 C 
ATOM     12  C   UNL     1       2.240   4.195  19.060  0.00  0.00    +0.000 A 
ATOM     13  S   UNL     1       2.525   5.540  18.022  0.00  0.00    +0.000 S 
ATOM     14  H   UNL     1       2.335   8.489  20.068  0.00  0.00    +0.000 HD
ENDBRANCH   2   3
BRANCH   1  17
ATOM     15  C   UNL     1      -0.041  11.692  20.449  0.00  0.00    +0.000 A 
ATOM     16  C   UNL     1       1.016  11.089  19.750  0.00  0.00    +0.000 A 
ATOM     17  C   UNL     1       0.780  10.410  18.551  0.00  0.00    +0.000 A 
ATOM     18  C   UNL     1      -0.523  10.299  18.060  0.00  0.00    +0.000 A 
ATOM     19  C   UNL     1      -1.571  10.911  18.743  0.00  0.00    +0.000 A 
ATOM     20 BR   UNL     1      -3.321  10.777  18.020  0.00  0.00    +0.000 Br
ATOM     21  C   UNL     1      -1.336  11.620  19.929  0.00  0.00    +0.000 A 
BRANCH  15  23
ATOM     22  C   UNL     1       0.746  13.705  21.433  0.00  0.00    +0.000 C 
ATOM     23  O   UNL     1       0.353  12.345  21.589  0.00  0.00    +0.000 OA
ENDBRANCH  15  23
BRANCH  21  24
ATOM     24  O   UNL     1      -2.376  12.252  20.556  0.00  0.00    +0.000 OA
ATOM     25  H   UNL     1      -2.685  12.972  19.977  0.00  0.00    +0.000 HD
ENDBRANCH  21  24
ENDBRANCH   1  17
TORSDOF 4
ENDMDL
