MODEL 1
REMARK VINA RESULT:      -6.9      0.000      0.000
REMARK  Name = 
REMARK  5 active torsions:
REMARK  status: ('A' for Active; 'I' for Inactive)
REMARK    1  A    between atoms: C_1  and  C_2
REMARK    2  A    between atoms: C_2  and  C_3
REMARK    3  A    between atoms: C_2  and  C_4
REMARK    4  A    between atoms: C_2  and  C_5
REMARK    5  A    between atoms: C_8  and  C_9
REMARK                            x       y       z     vdW  Elec       q    Type
REMARK                         _______ _______ _______ _____ _____    ______ ____
ROOT
ATOM      1  C   UNL     1       2.992   3.748  19.163  0.00  0.00    +0.000 A 
ATOM      2  C   UNL     1       4.339   4.000  19.467  0.00  0.00    +0.000 A 
ATOM      3  C   UNL     1       5.287   4.225  18.460  0.00  0.00    +0.000 A 
ATOM      4  C   UNL     1       4.927   4.202  17.109  0.00  0.00    +0.000 A 
ATOM      5  C   UNL     1       3.601   3.894  16.793  0.00  0.00    +0.000 A 
ATOM      6  C   UNL     1       2.652   3.667  17.800  0.00  0.00    +0.000 A 
ENDROOT
BRANCH   4   7
ATOM      7  C   UNL     1       5.906   4.528  16.082  0.00  0.00    +0.000 A 
ATOM      8  C   UNL     1       7.022   5.338  16.005  0.00  0.00    +0.000 A 
ATOM      9  N   UNL     1       7.559   5.299  14.742  0.00  0.00    +0.000 NA
ATOM     10  C   UNL     1       6.758   4.480  14.101  0.00  0.00    +0.000 A 
ATOM     11  O   UNL     1       5.736   3.970  14.840  0.00  0.00    +0.000 OA
ENDBRANCH   4   7
BRANCH   1  13
ATOM     12  C   UNL     1       2.395   2.850  21.505  0.00  0.00    +0.000 C 
ATOM     13  C   UNL     1       1.912   3.613  20.250  0.00  0.00    +0.000 C 
ATOM     14  C   UNL     1       0.682   2.862  19.701  0.00  0.00    +0.000 C 
ATOM     15  C   UNL     1       1.474   5.020  20.718  0.00  0.00    +0.000 C 
ENDBRANCH   1  13
TORSDOF 2
ENDMDL
MODEL 2
REMARK VINA RESULT:      -6.8      0.067      1.121
REMARK  Name = 
REMARK  5 active torsions:
REMARK  status: ('A' for Active; 'I' for Inactive)
REMARK    1  A    between atoms: C_1  and  C_2
REMARK    2  A    between atoms: C_2  and  C_3
REMARK    3  A    between atoms: C_2  and  C_4
REMARK    4  A    between atoms: C_2  and  C_5
REMARK    5  A    between atoms: C_8  and  C_9
REMARK                            x       y       z     vdW  Elec       q    Type
REMARK                         _______ _______ _______ _____ _____    ______ ____
ROOT
ATOM      1  C   UNL     1       3.007   3.761  19.177  0.00  0.00    +0.000 A 
ATOM      2  C   UNL     1       4.333   4.108  19.479  0.00  0.00    +0.000 A 
ATOM      3  C   UNL     1       5.281   4.327  18.470  0.00  0.00    +0.000 A 
ATOM      4  C   UNL     1       4.942   4.202  17.120  0.00  0.00    +0.000 A 
ATOM      5  C   UNL     1       3.639   3.800  16.809  0.00  0.00    +0.000 A 
ATOM      6  C   UNL     1       2.691   3.580  17.818  0.00  0.00    +0.000 A 
ENDROOT
BRANCH   4   7
ATOM      7  C   UNL     1       5.915   4.522  16.085  0.00  0.00    +0.000 A 
ATOM      8  C   UNL     1       7.055   5.298  16.009  0.00  0.00    +0.000 A 
ATOM      9  N   UNL     1       7.571   5.273  14.738  0.00  0.00    +0.000 NA
ATOM     10  C   UNL     1       6.735   4.495  14.090  0.00  0.00    +0.000 A 
ATOM     11  O   UNL     1       5.708   3.999  14.833  0.00  0.00    +0.000 OA
ENDBRANCH   4   7
BRANCH   1  13
ATOM     12  C   UNL     1       0.656   2.886  19.773  0.00  0.00    +0.000 C 
ATOM     13  C   UNL     1       1.922   3.629  20.259  0.00  0.00    +0.000 C 
ATOM     14  C   UNL     1       1.477   5.021  20.753  0.00  0.00    +0.000 C 
ATOM     15  C   UNL     1       2.483   2.828  21.457  0.00  0.00    +0.000 C 
ENDBRANCH   1  13
TORSDOF 2
ENDMDL
MODEL 3
REMARK VINA RESULT:      -6.8      0.420      1.194
REMARK  Name = 
REMARK  5 active torsions:
REMARK  status: ('A' for Active; 'I' for Inactive)
REMARK    1  A    between atoms: C_1  and  C_2
REMARK    2  A    between atoms: C_2  and  C_3
REMARK    3  A    between atoms: C_2  and  C_4
REMARK    4  A    between atoms: C_2  and  C_5
REMARK    5  A    between atoms: C_8  and  C_9
REMARK                            x       y       z     vdW  Elec       q    Type
REMARK                         _______ _______ _______ _____ _____    ______ ____
ROOT
ATOM      1  C   UNL     1       3.027   3.902  19.244  0.00  0.00    +0.000 A 
ATOM      2  C   UNL     1       4.070   4.828  19.397  0.00  0.00    +0.000 A 
ATOM      3  C   UNL     1       5.026   5.027  18.392  0.00  0.00    +0.000 A 
ATOM      4  C   UNL     1       4.980   4.304  17.197  0.00  0.00    +0.000 A 
ATOM      5  C   UNL     1       3.980   3.337  17.057  0.00  0.00    +0.000 A 
ATOM      6  C   UNL     1       3.023   3.137  18.063  0.00  0.00    +0.000 A 
ENDROOT
BRANCH   4   7
ATOM      7  C   UNL     1       5.927   4.589  16.128  0.00  0.00    +0.000 A 
ATOM      8  C   UNL     1       7.078   5.344  16.005  0.00  0.00    +0.000 A 
ATOM      9  N   UNL     1       7.556   5.287  14.720  0.00  0.00    +0.000 NA
ATOM     10  C   UNL     1       6.687   4.513  14.111  0.00  0.00    +0.000 A 
ATOM     11  O   UNL     1       5.675   4.048  14.892  0.00  0.00    +0.000 OA
ENDBRANCH   4   7
BRANCH   1  13
ATOM     12  C   UNL     1       1.343   5.098  20.787  0.00  0.00    +0.000 C 
ATOM     13  C   UNL     1       1.901   3.748  20.281  0.00  0.00    +0.000 C 
ATOM     14  C   UNL     1       2.401   2.966  21.512  0.00  0.00    +0.000 C 
ATOM     15  C   UNL     1       0.718   2.981  19.646  0.00  0.00    +0.000 C 
ENDBRANCH   1  13
TORSDOF 2
ENDMDL
MODEL 4
REMARK VINA RESULT:      -6.7      0.744      1.006
REMARK  Name = 
REMARK  5 active torsions:
REMARK  status: ('A' for Active; 'I' for Inactive)
REMARK    1  A    between atoms: C_1  and  C_2
REMARK    2  A    between atoms: C_2  and  C_3
REMARK    3  A    between atoms: C_2  and  C_4
REMARK    4  A    between atoms: C_2  and  C_5
REMARK    5  A    between atoms: C_8  and  C_9
REMARK                            x       y       z     vdW  Elec       q    Type
REMARK                         _______ _______ _______ _____ _____    ______ ____
ROOT
ATOM      1  C   UNL     1       2.837   3.972  18.960  0.00  0.00    +0.000 A 
ATOM      2  C   UNL     1       3.377   2.925  18.198  0.00  0.00    +0.000 A 
ATOM      3  C   UNL     1       4.318   3.163  17.188  0.00  0.00    +0.000 A 
ATOM      4  C   UNL     1       4.753   4.458  16.896  0.00  0.00    +0.000 A 
ATOM      5  C   UNL     1       4.179   5.516  17.608  0.00  0.00    +0.000 A 
ATOM      6  C   UNL     1       3.235   5.278  18.618  0.00  0.00    +0.000 A 
ENDROOT
BRANCH   4   7
ATOM      7  C   UNL     1       5.798   4.678  15.906  0.00  0.00    +0.000 A 
ATOM      8  C   UNL     1       6.998   5.361  15.874  0.00  0.00    +0.000 A 
ATOM      9  N   UNL     1       7.574   5.266  14.632  0.00  0.00    +0.000 NA
ATOM     10  C   UNL     1       6.712   4.541  13.957  0.00  0.00    +0.000 A 
ATOM     11  O   UNL     1       5.614   4.144  14.655  0.00  0.00    +0.000 OA
ENDBRANCH   4   7
BRANCH   1  13
ATOM     12  C   UNL     1       2.545   2.926  21.298  0.00  0.00    +0.000 C 
ATOM     13  C   UNL     1       1.891   3.728  20.148  0.00  0.00    +0.000 C 
ATOM     14  C   UNL     1       0.642   2.946  19.695  0.00  0.00    +0.000 C 
ATOM     15  C   UNL     1       1.447   5.085  20.740  0.00  0.00    +0.000 C 
ENDBRANCH   1  13
TORSDOF 2
ENDMDL
MODEL 5
REMARK VINA RESULT:      -6.7      0.776      1.510
REMARK  Name = 
REMARK  5 active torsions:
REMARK  status: ('A' for Active; 'I' for Inactive)
REMARK    1  A    between atoms: C_1  and  C_2
REMARK    2  A    between atoms: C_2  and  C_3
REMARK    3  A    between atoms: C_2  and  C_4
REMARK    4  A    between atoms: C_2  and  C_5
REMARK    5  A    between atoms: C_8  and  C_9
REMARK                            x       y       z     vdW  Elec       q    Type
REMARK                         _______ _______ _______ _____ _____    ______ ____
ROOT
ATOM      1  C   UNL     1       2.766   3.990  18.892  0.00  0.00    +0.000 A 
ATOM      2  C   UNL     1       3.341   2.935  18.168  0.00  0.00    +0.000 A 
ATOM      3  C   UNL     1       4.291   3.168  17.164  0.00  0.00    +0.000 A 
ATOM      4  C   UNL     1       4.700   4.465  16.843  0.00  0.00    +0.000 A 
ATOM      5  C   UNL     1       4.092   5.527  17.517  0.00  0.00    +0.000 A 
ATOM      6  C   UNL     1       3.140   5.295  18.521  0.00  0.00    +0.000 A 
ENDROOT
BRANCH   4   7
ATOM      7  C   UNL     1       5.754   4.681  15.862  0.00  0.00    +0.000 A 
ATOM      8  C   UNL     1       6.946   5.380  15.833  0.00  0.00    +0.000 A 
ATOM      9  N   UNL     1       7.537   5.272  14.599  0.00  0.00    +0.000 NA
ATOM     10  C   UNL     1       6.692   4.526  13.926  0.00  0.00    +0.000 A 
ATOM     11  O   UNL     1       5.591   4.126  14.618  0.00  0.00    +0.000 OA
ENDBRANCH   4   7
BRANCH   1  13
ATOM     12  C   UNL     1       1.247   5.063  20.679  0.00  0.00    +0.000 C 
ATOM     13  C   UNL     1       1.809   3.756  20.074  0.00  0.00    +0.000 C 
ATOM     14  C   UNL     1       2.526   2.995  21.208  0.00  0.00    +0.000 C 
ATOM     15  C   UNL     1       0.598   2.921  19.598  0.00  0.00    +0.000 C 
ENDBRANCH   1  13
TORSDOF 2
ENDMDL
MODEL 6
REMARK VINA RESULT:      -6.6      0.475      1.652
REMARK  Name = 
REMARK  5 active torsions:
REMARK  status: ('A' for Active; 'I' for Inactive)
REMARK    1  A    between atoms: C_1  and  C_2
REMARK    2  A    between atoms: C_2  and  C_3
REMARK    3  A    between atoms: C_2  and  C_4
REMARK    4  A    between atoms: C_2  and  C_5
REMARK    5  A    between atoms: C_8  and  C_9
REMARK                            x       y       z     vdW  Elec       q    Type
REMARK                         _______ _______ _______ _____ _____    ______ ____
ROOT
ATOM      1  C   UNL     1       2.846   4.081  19.033  0.00  0.00    +0.000 A 
ATOM      2  C   UNL     1       2.781   3.444  17.784  0.00  0.00    +0.000 A 
ATOM      3  C   UNL     1       3.739   3.681  16.789  0.00  0.00    +0.000 A 
ATOM      4  C   UNL     1       4.798   4.568  17.002  0.00  0.00    +0.000 A 
ATOM      5  C   UNL     1       4.841   5.253  18.221  0.00  0.00    +0.000 A 
ATOM      6  C   UNL     1       3.881   5.016  19.216  0.00  0.00    +0.000 A 
ENDROOT
BRANCH   4   7
ATOM      7  C   UNL     1       5.834   4.733  15.992  0.00  0.00    +0.000 A 
ATOM      8  C   UNL     1       7.052   5.382  15.926  0.00  0.00    +0.000 A 
ATOM      9  N   UNL     1       7.606   5.240  14.678  0.00  0.00    +0.000 NA
ATOM     10  C   UNL     1       6.714   4.522  14.035  0.00  0.00    +0.000 A 
ATOM     11  O   UNL     1       5.616   4.173  14.759  0.00  0.00    +0.000 OA
ENDBRANCH   4   7
BRANCH   1  13
ATOM     12  C   UNL     1       0.651   2.921  19.729  0.00  0.00    +0.000 C 
ATOM     13  C   UNL     1       1.876   3.751  20.180  0.00  0.00    +0.000 C 
ATOM     14  C   UNL     1       1.342   5.045  20.827  0.00  0.00    +0.000 C 
ATOM     15  C   UNL     1       2.613   2.920  21.255  0.00  0.00    +0.000 C 
ENDBRANCH   1  13
TORSDOF 2
ENDMDL
MODEL 7
REMARK VINA RESULT:      -6.1      0.801      1.453
REMARK  Name = 
REMARK  5 active torsions:
REMARK  status: ('A' for Active; 'I' for Inactive)
REMARK    1  A    between atoms: C_1  and  C_2
REMARK    2  A    between atoms: C_2  and  C_3
REMARK    3  A    between atoms: C_2  and  C_4
REMARK    4  A    between atoms: C_2  and  C_5
REMARK    5  A    between atoms: C_8  and  C_9
REMARK                            x       y       z     vdW  Elec       q    Type
REMARK                         _______ _______ _______ _____ _____    ______ ____
ROOT
ATOM      1  C   UNL     1       2.953   3.774  19.169  0.00  0.00    +0.000 A 
ATOM      2  C   UNL     1       4.299   4.142  19.320  0.00  0.00    +0.000 A 
ATOM      3  C   UNL     1       5.150   4.277  18.216  0.00  0.00    +0.000 A 
ATOM      4  C   UNL     1       4.691   4.046  16.916  0.00  0.00    +0.000 A 
ATOM      5  C   UNL     1       3.368   3.622  16.757  0.00  0.00    +0.000 A 
ATOM      6  C   UNL     1       2.516   3.485  17.863  0.00  0.00    +0.000 A 
ENDROOT
BRANCH   4   7
ATOM      7  C   UNL     1       5.564   4.280  15.774  0.00  0.00    +0.000 A 
ATOM      8  C   UNL     1       5.517   3.997  14.423  0.00  0.00    +0.000 A 
ATOM      9  N   UNL     1       6.666   4.420  13.803  0.00  0.00    +0.000 NA
ATOM     10  C   UNL     1       7.366   4.936  14.787  0.00  0.00    +0.000 A 
ATOM     11  O   UNL     1       6.769   4.892  16.009  0.00  0.00    +0.000 OA
ENDBRANCH   4   7
BRANCH   1  13
ATOM     12  C   UNL     1       1.669   5.124  20.951  0.00  0.00    +0.000 C 
ATOM     13  C   UNL     1       1.971   3.731  20.352  0.00  0.00    +0.000 C 
ATOM     14  C   UNL     1       2.530   2.852  21.489  0.00  0.00    +0.000 C 
ATOM     15  C   UNL     1       0.622   3.141  19.879  0.00  0.00    +0.000 C 
ENDBRANCH   1  13
TORSDOF 2
ENDMDL
MODEL 8
REMARK VINA RESULT:      -6.1      0.925      1.065
REMARK  Name = 
REMARK  5 active torsions:
REMARK  status: ('A' for Active; 'I' for Inactive)
REMARK    1  A    between atoms: C_1  and  C_2
REMARK    2  A    between atoms: C_2  and  C_3
REMARK    3  A    between atoms: C_2  and  C_4
REMARK    4  A    between atoms: C_2  and  C_5
REMARK    5  A    between atoms: C_8  and  C_9
REMARK                            x       y       z     vdW  Elec       q    Type
REMARK                         _______ _______ _______ _____ _____    ______ ____
ROOT
ATOM      1  C   UNL     1       2.970   3.956  19.228  0.00  0.00    +0.000 A 
ATOM      2  C   UNL     1       3.972   4.938  19.199  0.00  0.00    +0.000 A 
ATOM      3  C   UNL     1       4.844   5.064  18.109  0.00  0.00    +0.000 A 
ATOM      4  C   UNL     1       4.752   4.209  17.007  0.00  0.00    +0.000 A 
ATOM      5  C   UNL     1       3.796   3.189  17.050  0.00  0.00    +0.000 A 
ATOM      6  C   UNL     1       2.924   3.062  18.142  0.00  0.00    +0.000 A 
ENDROOT
BRANCH   4   7
ATOM      7  C   UNL     1       5.606   4.411  15.845  0.00  0.00    +0.000 A 
ATOM      8  C   UNL     1       5.514   4.137  14.494  0.00  0.00    +0.000 A 
ATOM      9  N   UNL     1       6.664   4.515  13.847  0.00  0.00    +0.000 NA
ATOM     10  C   UNL     1       7.409   4.995  14.816  0.00  0.00    +0.000 A 
ATOM     11  O   UNL     1       6.842   4.970  16.052  0.00  0.00    +0.000 OA
ENDBRANCH   4   7
BRANCH   1  13
ATOM     12  C   UNL     1       2.423   3.082  21.591  0.00  0.00    +0.000 C 
ATOM     13  C   UNL     1       1.929   3.872  20.357  0.00  0.00    +0.000 C 
ATOM     14  C   UNL     1       0.642   3.186  19.856  0.00  0.00    +0.000 C 
ATOM     15  C   UNL     1       1.581   5.297  20.843  0.00  0.00    +0.000 C 
ENDBRANCH   1  13
TORSDOF 2
ENDMDL
MODEL 9
REMARK VINA RESULT:      -6.1      1.660      2.612
REMARK  Name = 
REMARK  5 active torsions:
REMARK  status: ('A' for Active; 'I' for Inactive)
REMARK    1  A    between atoms: C_1  and  C_2
REMARK    2  A    between atoms: C_2  and  C_3
REMARK    3  A    between atoms: C_2  and  C_4
REMARK    4  A    between atoms: C_2  and  C_5
REMARK    5  A    between atoms: C_8  and  C_9
REMARK                            x       y       z     vdW  Elec       q    Type
REMARK                         _______ _______ _______ _____ _____    ______ ____
ROOT
ATOM      1  C   UNL     1       3.907   4.828  17.661  0.00  0.00    +0.000 A 
ATOM      2  C   UNL     1       4.357   6.003  17.041  0.00  0.00    +0.000 A 
ATOM      3  C   UNL     1       5.210   5.966  15.929  0.00  0.00    +0.000 A 
ATOM      4  C   UNL     1       5.651   4.750  15.398  0.00  0.00    +0.000 A 
ATOM      5  C   UNL     1       5.257   3.574  16.044  0.00  0.00    +0.000 A 
ATOM      6  C   UNL     1       4.404   3.612  17.156  0.00  0.00    +0.000 A 
ENDROOT
BRANCH   4   7
ATOM      7  C   UNL     1       6.462   4.728  14.189  0.00  0.00    +0.000 A 
ATOM      8  C   UNL     1       6.455   4.008  13.010  0.00  0.00    +0.000 A 
ATOM      9  N   UNL     1       7.509   4.378  12.213  0.00  0.00    +0.000 NA
ATOM     10  C   UNL     1       8.118   5.296  12.929  0.00  0.00    +0.000 A 
ATOM     11  O   UNL     1       7.547   5.566  14.134  0.00  0.00    +0.000 OA
ENDBRANCH   4   7
BRANCH   1  13
ATOM     12  C   UNL     1       2.607   6.252  19.372  0.00  0.00    +0.000 C 
ATOM     13  C   UNL     1       2.881   4.840  18.807  0.00  0.00    +0.000 C 
ATOM     14  C   UNL     1       3.367   3.961  19.978  0.00  0.00    +0.000 C 
ATOM     15  C   UNL     1       1.531   4.289  18.294  0.00  0.00    +0.000 C 
ENDBRANCH   1  13
TORSDOF 2
ENDMDL
