MODEL 1
REMARK VINA RESULT:      -8.2      0.000      0.000
REMARK  Name = 
REMARK  11 active torsions:
REMARK  status: ('A' for Active; 'I' for Inactive)
REMARK    1  A    between atoms: C_1  and  C_2
REMARK    2  A    between atoms: C_2  and  C_3
REMARK    3  A    between atoms: C_2  and  N_4
REMARK    4  A    between atoms: N_4  and  C_5
REMARK    5  A    between atoms: C_5  and  C_6
REMARK    6  A    between atoms: C_8  and  C_9
REMARK    7  A    between atoms: C_18  and  C_20
REMARK    8  A    between atoms: C_20  and  N_21
REMARK    9  A    between atoms: N_21  and  C_22
REMARK   10  A    between atoms: N_21  and  S_23
REMARK   11  A    between atoms: S_23  and  C_26
REMARK                            x       y       z     vdW  Elec       q    Type
REMARK                         _______ _______ _______ _____ _____    ______ ____
ROOT
ATOM      1  N   UNL     1       3.232   3.873  19.210  0.00  0.00    +0.000 N 
ATOM      2  C   UNL     1       4.597   3.579  19.251  0.00  0.00    +0.000 C 
ATOM      3  O   UNL     1       5.071   2.771  20.056  0.00  0.00    +0.000 OA
ENDROOT
BRANCH   1   5
ATOM      4  C   UNL     1       2.231   3.888  21.524  0.00  0.00    +0.000 C 
ATOM      5  C   UNL     1       2.309   3.196  20.158  0.00  0.00    +0.000 C 
ATOM      6  C   UNL     1       0.907   2.990  19.575  0.00  0.00    +0.000 C 
ENDBRANCH   1   5
BRANCH   1   7
ATOM      7  C   UNL     1       2.630   4.745  18.185  0.00  0.00    +0.000 C 
BRANCH   7   8
ATOM      8  C   UNL     1       2.481   6.168  18.604  0.00  0.00    +0.000 A 
ATOM      9  N   UNL     1       2.162   6.687  19.767  0.00  0.00    +0.000 NA
ATOM     10  C   UNL     1       1.850   7.991  19.450  0.00  0.00    +0.000 A 
ATOM     11  N   UNL     1       2.069   8.301  18.162  0.00  0.00    +0.000 NA
ATOM     12  O   UNL     1       2.482   7.092  17.598  0.00  0.00    +0.000 OA
BRANCH  10  13
ATOM     13  C   UNL     1       1.162   8.849  20.411  0.00  0.00    +0.000 A 
ATOM     14  C   UNL     1       0.571   8.269  21.546  0.00  0.00    +0.000 A 
ATOM     15  C   UNL     1      -0.233   9.027  22.401  0.00  0.00    +0.000 A 
ATOM     16  C   UNL     1      -0.441  10.377  22.134  0.00  0.00    +0.000 A 
ATOM     17 CL   UNL     1      -1.476  11.297  23.153  0.00  0.00    +0.000 Cl
ATOM     18  C   UNL     1       0.169  10.980  21.033  0.00  0.00    +0.000 A 
ATOM     19  C   UNL     1       0.972  10.219  20.175  0.00  0.00    +0.000 A 
ENDBRANCH  10  13
ENDBRANCH   7   8
ENDBRANCH   1   7
BRANCH   2  20
ATOM     20  C   UNL     1       5.546   4.252  18.260  0.00  0.00    +0.000 C 
BRANCH  20  21
ATOM     21  N   UNL     1       6.091   5.566  18.726  0.00  0.00    +0.000 NA
ATOM     22  C   UNL     1       7.268   5.372  19.619  0.00  0.00    +0.000 C 
BRANCH  21  23
ATOM     23  S   UNL     1       6.426   6.662  17.445  0.00  0.00    +0.000 S 
ATOM     24  O   UNL     1       5.356   7.634  17.379  0.00  0.00    +0.000 OA
ATOM     25  O   UNL     1       7.813   7.068  17.574  0.00  0.00    +0.000 OA
BRANCH  23  26
ATOM     26  C   UNL     1       6.277   5.647  15.992  0.00  0.00    +0.000 A 
ATOM     27  C   UNL     1       7.444   5.180  15.375  0.00  0.00    +0.000 A 
ATOM     28  C   UNL     1       7.348   4.385  14.231  0.00  0.00    +0.000 A 
ATOM     29  C   UNL     1       6.093   4.042  13.729  0.00  0.00    +0.000 A 
ATOM     30 CL   UNL     1       5.977   3.071  12.313  0.00  0.00    +0.000 Cl
ATOM     31  C   UNL     1       4.929   4.479  14.366  0.00  0.00    +0.000 A 
ATOM     32  C   UNL     1       5.017   5.285  15.503  0.00  0.00    +0.000 A 
ENDBRANCH  23  26
ENDBRANCH  21  23
ENDBRANCH  20  21
ENDBRANCH   2  20
TORSDOF 8
ENDMDL
MODEL 2
REMARK VINA RESULT:      -7.9      1.235      1.730
REMARK  Name = 
REMARK  11 active torsions:
REMARK  status: ('A' for Active; 'I' for Inactive)
REMARK    1  A    between atoms: C_1  and  C_2
REMARK    2  A    between atoms: C_2  and  C_3
REMARK    3  A    between atoms: C_2  and  N_4
REMARK    4  A    between atoms: N_4  and  C_5
REMARK    5  A    between atoms: C_5  and  C_6
REMARK    6  A    between atoms: C_8  and  C_9
REMARK    7  A    between atoms: C_18  and  C_20
REMARK    8  A    between atoms: C_20  and  N_21
REMARK    9  A    between atoms: N_21  and  C_22
REMARK   10  A    between atoms: N_21  and  S_23
REMARK   11  A    between atoms: S_23  and  C_26
REMARK                            x       y       z     vdW  Elec       q    Type
REMARK                         _______ _______ _______ _____ _____    ______ ____
ROOT
ATOM      1  N   UNL     1       3.324   4.506  19.149  0.00  0.00    +0.000 N 
ATOM      2  C   UNL     1       4.705   4.707  19.169  0.00  0.00    +0.000 C 
ATOM      3  O   UNL     1       5.472   3.939  19.759  0.00  0.00    +0.000 OA
ENDROOT
BRANCH   1   5
ATOM      4  C   UNL     1       1.635   3.707  20.841  0.00  0.00    +0.000 C 
ATOM      5  C   UNL     1       2.744   3.332  19.851  0.00  0.00    +0.000 C 
ATOM      6  C   UNL     1       2.263   2.241  18.888  0.00  0.00    +0.000 C 
ENDBRANCH   1   5
BRANCH   1   7
ATOM      7  C   UNL     1       2.403   5.343  18.358  0.00  0.00    +0.000 C 
BRANCH   7   8
ATOM      8  C   UNL     1       2.265   6.741  18.857  0.00  0.00    +0.000 A 
ATOM      9  N   UNL     1       1.822   7.198  20.005  0.00  0.00    +0.000 NA
ATOM     10  C   UNL     1       1.612   8.535  19.748  0.00  0.00    +0.000 A 
ATOM     11  N   UNL     1       2.011   8.917  18.524  0.00  0.00    +0.000 NA
ATOM     12  O   UNL     1       2.438   7.729  17.929  0.00  0.00    +0.000 OA
BRANCH  10  13
ATOM     13  C   UNL     1       0.845   9.362  20.675  0.00  0.00    +0.000 A 
ATOM     14  C   UNL     1       0.682   8.933  22.002  0.00  0.00    +0.000 A 
ATOM     15  C   UNL     1      -0.177   9.608  22.873  0.00  0.00    +0.000 A 
ATOM     16  C   UNL     1      -0.870  10.728  22.425  0.00  0.00    +0.000 A 
ATOM     17 CL   UNL     1      -1.970  11.526  23.479  0.00  0.00    +0.000 Cl
ATOM     18  C   UNL     1      -0.692  11.193  21.122  0.00  0.00    +0.000 A 
ATOM     19  C   UNL     1       0.167  10.514  20.249  0.00  0.00    +0.000 A 
ENDBRANCH  10  13
ENDBRANCH   7   8
ENDBRANCH   1   7
BRANCH   2  20
ATOM     20  C   UNL     1       5.307   5.898  18.425  0.00  0.00    +0.000 C 
BRANCH  20  21
ATOM     21  N   UNL     1       5.488   5.678  16.955  0.00  0.00    +0.000 NA
ATOM     22  C   UNL     1       4.824   6.756  16.166  0.00  0.00    +0.000 C 
BRANCH  21  23
ATOM     23  S   UNL     1       7.127   5.454  16.491  0.00  0.00    +0.000 S 
ATOM     24  O   UNL     1       7.746   6.752  16.342  0.00  0.00    +0.000 OA
ATOM     25  O   UNL     1       7.690   4.440  17.363  0.00  0.00    +0.000 OA
BRANCH  23  26
ATOM     26  C   UNL     1       6.994   4.767  14.855  0.00  0.00    +0.000 A 
ATOM     27  C   UNL     1       6.047   3.762  14.622  0.00  0.00    +0.000 A 
ATOM     28  C   UNL     1       5.931   3.207  13.346  0.00  0.00    +0.000 A 
ATOM     29  C   UNL     1       6.738   3.676  12.310  0.00  0.00    +0.000 A 
ATOM     30 CL   UNL     1       6.600   2.984  10.741  0.00  0.00    +0.000 Cl
ATOM     31  C   UNL     1       7.658   4.703  12.535  0.00  0.00    +0.000 A 
ATOM     32  C   UNL     1       7.790   5.254  13.812  0.00  0.00    +0.000 A 
ENDBRANCH  23  26
ENDBRANCH  21  23
ENDBRANCH  20  21
ENDBRANCH   2  20
TORSDOF 8
ENDMDL
MODEL 3
REMARK VINA RESULT:      -7.7      1.216      1.868
REMARK  Name = 
REMARK  11 active torsions:
REMARK  status: ('A' for Active; 'I' for Inactive)
REMARK    1  A    between atoms: C_1  and  C_2
REMARK    2  A    between atoms: C_2  and  C_3
REMARK    3  A    between atoms: C_2  and  N_4
REMARK    4  A    between atoms: N_4  and  C_5
REMARK    5  A    between atoms: C_5  and  C_6
REMARK    6  A    between atoms: C_8  and  C_9
REMARK    7  A    between atoms: C_18  and  C_20
REMARK    8  A    between atoms: C_20  and  N_21
REMARK    9  A    between atoms: N_21  and  C_22
REMARK   10  A    between atoms: N_21  and  S_23
REMARK   11  A    between atoms: S_23  and  C_26
REMARK                            x       y       z     vdW  Elec       q    Type
REMARK                         _______ _______ _______ _____ _____    ______ ____
ROOT
ATOM      1  N   UNL     1       3.198   3.724  19.178  0.00  0.00    +0.000 N 
ATOM      2  C   UNL     1       4.496   3.210  19.171  0.00  0.00    +0.000 C 
ATOM      3  O   UNL     1       4.916   2.472  20.068  0.00  0.00    +0.000 OA
ENDROOT
BRANCH   1   5
ATOM      4  C   UNL     1       2.345   4.366  21.462  0.00  0.00    +0.000 C 
ATOM      5  C   UNL     1       2.278   3.377  20.292  0.00  0.00    +0.000 C 
ATOM      6  C   UNL     1       0.831   3.183  19.829  0.00  0.00    +0.000 C 
ENDBRANCH   1   5
BRANCH   1   7
ATOM      7  C   UNL     1       2.642   4.512  18.062  0.00  0.00    +0.000 C 
BRANCH   7   8
ATOM      8  C   UNL     1       2.713   5.988  18.260  0.00  0.00    +0.000 A 
ATOM      9  N   UNL     1       2.078   6.768  19.103  0.00  0.00    +0.000 NA
ATOM     10  C   UNL     1       2.291   8.026  18.584  0.00  0.00    +0.000 A 
ATOM     11  N   UNL     1       3.115   8.039  17.523  0.00  0.00    +0.000 NA
ATOM     12  O   UNL     1       3.391   6.689  17.303  0.00  0.00    +0.000 OA
BRANCH  10  13
ATOM     13  C   UNL     1       1.515   9.169  19.055  0.00  0.00    +0.000 A 
ATOM     14  C   UNL     1       1.496  10.347  18.289  0.00  0.00    +0.000 A 
ATOM     15  C   UNL     1       0.904  11.512  18.781  0.00  0.00    +0.000 A 
ATOM     16  C   UNL     1       0.312  11.505  20.040  0.00  0.00    +0.000 A 
ATOM     17 CL   UNL     1      -0.368  12.953  20.669  0.00  0.00    +0.000 Cl
ATOM     18  C   UNL     1       0.285  10.335  20.800  0.00  0.00    +0.000 A 
ATOM     19  C   UNL     1       0.882   9.168  20.307  0.00  0.00    +0.000 A 
ENDBRANCH  10  13
ENDBRANCH   7   8
ENDBRANCH   1   7
BRANCH   2  20
ATOM     20  C   UNL     1       5.436   3.543  18.013  0.00  0.00    +0.000 C 
BRANCH  20  21
ATOM     21  N   UNL     1       5.967   4.942  18.033  0.00  0.00    +0.000 NA
ATOM     22  C   UNL     1       6.304   5.368  19.422  0.00  0.00    +0.000 C 
BRANCH  21  23
ATOM     23  S   UNL     1       7.273   5.197  16.946  0.00  0.00    +0.000 S 
ATOM     24  O   UNL     1       7.509   6.619  16.833  0.00  0.00    +0.000 OA
ATOM     25  O   UNL     1       8.334   4.279  17.319  0.00  0.00    +0.000 OA
BRANCH  23  26
ATOM     26  C   UNL     1       6.608   4.669  15.382  0.00  0.00    +0.000 A 
ATOM     27  C   UNL     1       5.245   4.355  15.302  0.00  0.00    +0.000 A 
ATOM     28  C   UNL     1       4.705   3.935  14.085  0.00  0.00    +0.000 A 
ATOM     29  C   UNL     1       5.519   3.858  12.955  0.00  0.00    +0.000 A 
ATOM     30 CL   UNL     1       4.854   3.331  11.459  0.00  0.00    +0.000 Cl
ATOM     31  C   UNL     1       6.871   4.206  13.028  0.00  0.00    +0.000 A 
ATOM     32  C   UNL     1       7.421   4.614  14.245  0.00  0.00    +0.000 A 
ENDBRANCH  23  26
ENDBRANCH  21  23
ENDBRANCH  20  21
ENDBRANCH   2  20
TORSDOF 8
ENDMDL
MODEL 4
REMARK VINA RESULT:      -7.6      1.213      1.718
REMARK  Name = 
REMARK  11 active torsions:
REMARK  status: ('A' for Active; 'I' for Inactive)
REMARK    1  A    between atoms: C_1  and  C_2
REMARK    2  A    between atoms: C_2  and  C_3
REMARK    3  A    between atoms: C_2  and  N_4
REMARK    4  A    between atoms: N_4  and  C_5
REMARK    5  A    between atoms: C_5  and  C_6
REMARK    6  A    between atoms: C_8  and  C_9
REMARK    7  A    between atoms: C_18  and  C_20
REMARK    8  A    between atoms: C_20  and  N_21
REMARK    9  A    between atoms: N_21  and  C_22
REMARK   10  A    between atoms: N_21  and  S_23
REMARK   11  A    between atoms: S_23  and  C_26
REMARK                            x       y       z     vdW  Elec       q    Type
REMARK                         _______ _______ _______ _____ _____    ______ ____
ROOT
ATOM      1  N   UNL     1       3.363   4.283  19.335  0.00  0.00    +0.000 N 
ATOM      2  C   UNL     1       4.735   4.534  19.293  0.00  0.00    +0.000 C 
ATOM      3  O   UNL     1       5.559   3.774  19.812  0.00  0.00    +0.000 OA
ENDROOT
BRANCH   1   5
ATOM      4  C   UNL     1       2.371   3.327  21.446  0.00  0.00    +0.000 C 
ATOM      5  C   UNL     1       2.862   3.062  20.018  0.00  0.00    +0.000 C 
ATOM      6  C   UNL     1       1.792   2.323  19.206  0.00  0.00    +0.000 C 
ENDBRANCH   1   5
BRANCH   1   7
ATOM      7  C   UNL     1       2.374   5.115  18.625  0.00  0.00    +0.000 C 
BRANCH   7   8
ATOM      8  C   UNL     1       2.217   6.489  19.183  0.00  0.00    +0.000 A 
ATOM      9  N   UNL     1       1.612   6.905  20.270  0.00  0.00    +0.000 NA
ATOM     10  C   UNL     1       1.506   8.264  20.068  0.00  0.00    +0.000 A 
ATOM     11  N   UNL     1       2.117   8.691  18.950  0.00  0.00    +0.000 NA
ATOM     12  O   UNL     1       2.583   7.515  18.359  0.00  0.00    +0.000 OA
BRANCH  10  13
ATOM     13  C   UNL     1       0.635   9.079  20.908  0.00  0.00    +0.000 A 
ATOM     14  C   UNL     1      -0.181  10.052  20.308  0.00  0.00    +0.000 A 
ATOM     15  C   UNL     1      -0.904  10.960  21.086  0.00  0.00    +0.000 A 
ATOM     16  C   UNL     1      -0.825  10.893  22.474  0.00  0.00    +0.000 A 
ATOM     17 CL   UNL     1      -1.670  12.045  23.430  0.00  0.00    +0.000 Cl
ATOM     18  C   UNL     1      -0.051   9.909  23.089  0.00  0.00    +0.000 A 
ATOM     19  C   UNL     1       0.675   9.002  22.309  0.00  0.00    +0.000 A 
ENDBRANCH  10  13
ENDBRANCH   7   8
ENDBRANCH   1   7
BRANCH   2  20
ATOM     20  C   UNL     1       5.256   5.774  18.567  0.00  0.00    +0.000 C 
BRANCH  20  21
ATOM     21  N   UNL     1       5.441   5.592  17.093  0.00  0.00    +0.000 NA
ATOM     22  C   UNL     1       4.696   6.631  16.327  0.00  0.00    +0.000 C 
BRANCH  21  23
ATOM     23  S   UNL     1       7.089   5.495  16.615  0.00  0.00    +0.000 S 
ATOM     24  O   UNL     1       7.617   6.836  16.505  0.00  0.00    +0.000 OA
ATOM     25  O   UNL     1       7.726   4.495  17.453  0.00  0.00    +0.000 OA
BRANCH  23  26
ATOM     26  C   UNL     1       6.994   4.851  14.959  0.00  0.00    +0.000 A 
ATOM     27  C   UNL     1       7.770   5.450  13.959  0.00  0.00    +0.000 A 
ATOM     28  C   UNL     1       7.706   4.962  12.652  0.00  0.00    +0.000 A 
ATOM     29  C   UNL     1       6.892   3.868  12.360  0.00  0.00    +0.000 A 
ATOM     30 CL   UNL     1       6.806   3.275  10.747  0.00  0.00    +0.000 Cl
ATOM     31  C   UNL     1       6.145   3.250  13.366  0.00  0.00    +0.000 A 
ATOM     32  C   UNL     1       6.193   3.741  14.672  0.00  0.00    +0.000 A 
ENDBRANCH  23  26
ENDBRANCH  21  23
ENDBRANCH  20  21
ENDBRANCH   2  20
TORSDOF 8
ENDMDL
MODEL 5
REMARK VINA RESULT:      -7.5      0.930      1.223
REMARK  Name = 
REMARK  11 active torsions:
REMARK  status: ('A' for Active; 'I' for Inactive)
REMARK    1  A    between atoms: C_1  and  C_2
REMARK    2  A    between atoms: C_2  and  C_3
REMARK    3  A    between atoms: C_2  and  N_4
REMARK    4  A    between atoms: N_4  and  C_5
REMARK    5  A    between atoms: C_5  and  C_6
REMARK    6  A    between atoms: C_8  and  C_9
REMARK    7  A    between atoms: C_18  and  C_20
REMARK    8  A    between atoms: C_20  and  N_21
REMARK    9  A    between atoms: N_21  and  C_22
REMARK   10  A    between atoms: N_21  and  S_23
REMARK   11  A    between atoms: S_23  and  C_26
REMARK                            x       y       z     vdW  Elec       q    Type
REMARK                         _______ _______ _______ _____ _____    ______ ____
ROOT
ATOM      1  N   UNL     1       2.977   4.421  18.923  0.00  0.00    +0.000 N 
ATOM      2  C   UNL     1       4.087   3.579  19.010  0.00  0.00    +0.000 C 
ATOM      3  O   UNL     1       4.170   2.688  19.861  0.00  0.00    +0.000 OA
ENDROOT
BRANCH   1   5
ATOM      4  C   UNL     1       1.004   3.000  19.590  0.00  0.00    +0.000 C 
ATOM      5  C   UNL     1       1.849   4.248  19.875  0.00  0.00    +0.000 C 
ATOM      6  C   UNL     1       2.298   4.275  21.340  0.00  0.00    +0.000 C 
ENDBRANCH   1   5
BRANCH   1   7
ATOM      7  C   UNL     1       2.806   5.414  17.847  0.00  0.00    +0.000 C 
BRANCH   7   8
ATOM      8  C   UNL     1       2.534   6.799  18.329  0.00  0.00    +0.000 A 
ATOM      9  N   UNL     1       2.240   7.242  19.529  0.00  0.00    +0.000 NA
ATOM     10  C   UNL     1       1.769   8.513  19.285  0.00  0.00    +0.000 A 
ATOM     11  N   UNL     1       1.867   8.886  17.997  0.00  0.00    +0.000 NA
ATOM     12  O   UNL     1       2.368   7.749  17.362  0.00  0.00    +0.000 OA
BRANCH  10  13
ATOM     13  C   UNL     1       1.060   9.259  20.319  0.00  0.00    +0.000 A 
ATOM     14  C   UNL     1       0.513   8.565  21.412  0.00  0.00    +0.000 A 
ATOM     15  C   UNL     1      -0.310   9.215  22.335  0.00  0.00    +0.000 A 
ATOM     16  C   UNL     1      -0.581  10.570  22.180  0.00  0.00    +0.000 A 
ATOM     17 CL   UNL     1      -1.639  11.358  23.283  0.00  0.00    +0.000 Cl
ATOM     18  C   UNL     1      -0.017  11.286  21.124  0.00  0.00    +0.000 A 
ATOM     19  C   UNL     1       0.805  10.633  20.197  0.00  0.00    +0.000 A 
ENDBRANCH  10  13
ENDBRANCH   7   8
ENDBRANCH   1   7
BRANCH   2  20
ATOM     20  C   UNL     1       5.236   3.737  18.015  0.00  0.00    +0.000 C 
BRANCH  20  21
ATOM     21  N   UNL     1       5.890   5.083  18.038  0.00  0.00    +0.000 NA
ATOM     22  C   UNL     1       6.247   5.482  19.429  0.00  0.00    +0.000 C 
BRANCH  21  23
ATOM     23  S   UNL     1       7.225   5.216  16.965  0.00  0.00    +0.000 S 
ATOM     24  O   UNL     1       7.552   6.616  16.807  0.00  0.00    +0.000 OA
ATOM     25  O   UNL     1       8.220   4.248  17.388  0.00  0.00    +0.000 OA
BRANCH  23  26
ATOM     26  C   UNL     1       6.551   4.676  15.409  0.00  0.00    +0.000 A 
ATOM     27  C   UNL     1       7.381   4.672  14.282  0.00  0.00    +0.000 A 
ATOM     28  C   UNL     1       6.870   4.255  13.051  0.00  0.00    +0.000 A 
ATOM     29  C   UNL     1       5.547   3.823  12.961  0.00  0.00    +0.000 A 
ATOM     30 CL   UNL     1       4.916   3.320  11.442  0.00  0.00    +0.000 Cl
ATOM     31  C   UNL     1       4.730   3.794  14.094  0.00  0.00    +0.000 A 
ATOM     32  C   UNL     1       5.231   4.222  15.325  0.00  0.00    +0.000 A 
ENDBRANCH  23  26
ENDBRANCH  21  23
ENDBRANCH  20  21
ENDBRANCH   2  20
TORSDOF 8
ENDMDL
MODEL 6
REMARK VINA RESULT:      -7.5      1.173      1.378
REMARK  Name = 
REMARK  11 active torsions:
REMARK  status: ('A' for Active; 'I' for Inactive)
REMARK    1  A    between atoms: C_1  and  C_2
REMARK    2  A    between atoms: C_2  and  C_3
REMARK    3  A    between atoms: C_2  and  N_4
REMARK    4  A    between atoms: N_4  and  C_5
REMARK    5  A    between atoms: C_5  and  C_6
REMARK    6  A    between atoms: C_8  and  C_9
REMARK    7  A    between atoms: C_18  and  C_20
REMARK    8  A    between atoms: C_20  and  N_21
REMARK    9  A    between atoms: N_21  and  C_22
REMARK   10  A    between atoms: N_21  and  S_23
REMARK   11  A    between atoms: S_23  and  C_26
REMARK                            x       y       z     vdW  Elec       q    Type
REMARK                         _______ _______ _______ _____ _____    ______ ____
ROOT
ATOM      1  N   UNL     1       3.118   3.833  19.145  0.00  0.00    +0.000 N 
ATOM      2  C   UNL     1       4.415   3.318  19.145  0.00  0.00    +0.000 C 
ATOM      3  O   UNL     1       4.815   2.543  20.020  0.00  0.00    +0.000 OA
ENDROOT
BRANCH   1   5
ATOM      4  C   UNL     1       2.238   4.365  21.447  0.00  0.00    +0.000 C 
ATOM      5  C   UNL     1       2.174   3.442  20.224  0.00  0.00    +0.000 C 
ATOM      6  C   UNL     1       0.731   3.298  19.729  0.00  0.00    +0.000 C 
ENDBRANCH   1   5
BRANCH   1   7
ATOM      7  C   UNL     1       2.586   4.666  18.051  0.00  0.00    +0.000 C 
BRANCH   7   8
ATOM      8  C   UNL     1       2.578   6.128  18.344  0.00  0.00    +0.000 A 
ATOM      9  N   UNL     1       1.784   6.842  19.108  0.00  0.00    +0.000 NA
ATOM     10  C   UNL     1       2.046   8.134  18.708  0.00  0.00    +0.000 A 
ATOM     11  N   UNL     1       3.041   8.229  17.809  0.00  0.00    +0.000 NA
ATOM     12  O   UNL     1       3.390   6.900  17.562  0.00  0.00    +0.000 OA
BRANCH  10  13
ATOM     13  C   UNL     1       1.167   9.230  19.101  0.00  0.00    +0.000 A 
ATOM     14  C   UNL     1       0.984   9.506  20.467  0.00  0.00    +0.000 A 
ATOM     15  C   UNL     1       0.030  10.435  20.889  0.00  0.00    +0.000 A 
ATOM     16  C   UNL     1      -0.741  11.106  19.945  0.00  0.00    +0.000 A 
ATOM     17 CL   UNL     1      -1.955  12.207  20.467  0.00  0.00    +0.000 Cl
ATOM     18  C   UNL     1      -0.549  10.875  18.584  0.00  0.00    +0.000 A 
ATOM     19  C   UNL     1       0.406   9.942  18.162  0.00  0.00    +0.000 A 
ENDBRANCH  10  13
ENDBRANCH   7   8
ENDBRANCH   1   7
BRANCH   2  20
ATOM     20  C   UNL     1       5.380   3.696  18.021  0.00  0.00    +0.000 C 
BRANCH  20  21
ATOM     21  N   UNL     1       5.941   5.079  18.132  0.00  0.00    +0.000 NA
ATOM     22  C   UNL     1       6.410   5.358  19.519  0.00  0.00    +0.000 C 
BRANCH  21  23
ATOM     23  S   UNL     1       7.150   5.425  16.960  0.00  0.00    +0.000 S 
ATOM     24  O   UNL     1       7.246   6.860  16.807  0.00  0.00    +0.000 OA
ATOM     25  O   UNL     1       8.311   4.617  17.283  0.00  0.00    +0.000 OA
BRANCH  23  26
ATOM     26  C   UNL     1       6.442   4.802  15.452  0.00  0.00    +0.000 A 
ATOM     27  C   UNL     1       7.281   4.597  14.349  0.00  0.00    +0.000 A 
ATOM     28  C   UNL     1       6.744   4.113  13.155  0.00  0.00    +0.000 A 
ATOM     29  C   UNL     1       5.384   3.812  13.078  0.00  0.00    +0.000 A 
ATOM     30 CL   UNL     1       4.723   3.225  11.603  0.00  0.00    +0.000 Cl
ATOM     31  C   UNL     1       4.555   3.983  14.189  0.00  0.00    +0.000 A 
ATOM     32  C   UNL     1       5.082   4.480  15.383  0.00  0.00    +0.000 A 
ENDBRANCH  23  26
ENDBRANCH  21  23
ENDBRANCH  20  21
ENDBRANCH   2  20
TORSDOF 8
ENDMDL
MODEL 7
REMARK VINA RESULT:      -7.4      4.336      7.222
REMARK  Name = 
REMARK  11 active torsions:
REMARK  status: ('A' for Active; 'I' for Inactive)
REMARK    1  A    between atoms: C_1  and  C_2
REMARK    2  A    between atoms: C_2  and  C_3
REMARK    3  A    between atoms: C_2  and  N_4
REMARK    4  A    between atoms: N_4  and  C_5
REMARK    5  A    between atoms: C_5  and  C_6
REMARK    6  A    between atoms: C_8  and  C_9
REMARK    7  A    between atoms: C_18  and  C_20
REMARK    8  A    between atoms: C_20  and  N_21
REMARK    9  A    between atoms: N_21  and  C_22
REMARK   10  A    between atoms: N_21  and  S_23
REMARK   11  A    between atoms: S_23  and  C_26
REMARK                            x       y       z     vdW  Elec       q    Type
REMARK                         _______ _______ _______ _____ _____    ______ ____
ROOT
ATOM      1  N   UNL     1       5.988   5.168  17.378  0.00  0.00    +0.000 N 
ATOM      2  C   UNL     1       4.850   4.403  17.639  0.00  0.00    +0.000 C 
ATOM      3  O   UNL     1       4.212   3.845  16.740  0.00  0.00    +0.000 OA
ENDROOT
BRANCH   1   5
ATOM      4  C   UNL     1       7.039   4.028  15.390  0.00  0.00    +0.000 C 
ATOM      5  C   UNL     1       6.462   5.322  15.978  0.00  0.00    +0.000 C 
ATOM      6  C   UNL     1       5.395   5.910  15.050  0.00  0.00    +0.000 C 
ENDBRANCH   1   5
BRANCH   1   7
ATOM      7  C   UNL     1       6.827   5.746  18.443  0.00  0.00    +0.000 C 
BRANCH   7   8
ATOM      8  C   UNL     1       7.438   7.061  18.095  0.00  0.00    +0.000 A 
ATOM      9  N   UNL     1       8.471   7.685  18.610  0.00  0.00    +0.000 NA
ATOM     10  C   UNL     1       8.333   8.968  18.126  0.00  0.00    +0.000 A 
ATOM     11  N   UNL     1       7.317   9.110  17.259  0.00  0.00    +0.000 NA
ATOM     12  O   UNL     1       6.718   7.849  17.242  0.00  0.00    +0.000 OA
BRANCH  10  13
ATOM     13  C   UNL     1       9.113  10.066  18.688  0.00  0.00    +0.000 A 
ATOM     14  C   UNL     1       9.143  10.242  20.081  0.00  0.00    +0.000 A 
ATOM     15  C   UNL     1       9.740  11.372  20.648  0.00  0.00    +0.000 A 
ATOM     16  C   UNL     1      10.324  12.328  19.824  0.00  0.00    +0.000 A 
ATOM     17 CL   UNL     1      11.009  13.745  20.517  0.00  0.00    +0.000 Cl
ATOM     18  C   UNL     1      10.339  12.152  18.440  0.00  0.00    +0.000 A 
ATOM     19  C   UNL     1       9.738  11.021  17.873  0.00  0.00    +0.000 A 
ENDBRANCH  10  13
ENDBRANCH   7   8
ENDBRANCH   1   7
BRANCH   2  20
ATOM     20  C   UNL     1       4.375   4.220  19.080  0.00  0.00    +0.000 C 
BRANCH  20  21
ATOM     21  N   UNL     1       3.001   3.638  19.206  0.00  0.00    +0.000 NA
ATOM     22  C   UNL     1       3.063   2.172  19.469  0.00  0.00    +0.000 C 
BRANCH  21  23
ATOM     23  S   UNL     1       2.011   4.457  20.346  0.00  0.00    +0.000 S 
ATOM     24  O   UNL     1       0.664   3.939  20.244  0.00  0.00    +0.000 OA
ATOM     25  O   UNL     1       2.724   4.472  21.610  0.00  0.00    +0.000 OA
BRANCH  23  26
ATOM     26  C   UNL     1       1.960   6.121  19.718  0.00  0.00    +0.000 A 
ATOM     27  C   UNL     1       1.650   7.164  20.599  0.00  0.00    +0.000 A 
ATOM     28  C   UNL     1       1.602   8.477  20.124  0.00  0.00    +0.000 A 
ATOM     29  C   UNL     1       1.888   8.740  18.785  0.00  0.00    +0.000 A 
ATOM     30 CL   UNL     1       1.818  10.356  18.199  0.00  0.00    +0.000 Cl
ATOM     31  C   UNL     1       2.232   7.702  17.915  0.00  0.00    +0.000 A 
ATOM     32  C   UNL     1       2.269   6.386  18.379  0.00  0.00    +0.000 A 
ENDBRANCH  23  26
ENDBRANCH  21  23
ENDBRANCH  20  21
ENDBRANCH   2  20
TORSDOF 8
ENDMDL
MODEL 8
REMARK VINA RESULT:      -7.3      2.530      3.357
REMARK  Name = 
REMARK  11 active torsions:
REMARK  status: ('A' for Active; 'I' for Inactive)
REMARK    1  A    between atoms: C_1  and  C_2
REMARK    2  A    between atoms: C_2  and  C_3
REMARK    3  A    between atoms: C_2  and  N_4
REMARK    4  A    between atoms: N_4  and  C_5
REMARK    5  A    between atoms: C_5  and  C_6
REMARK    6  A    between atoms: C_8  and  C_9
REMARK    7  A    between atoms: C_18  and  C_20
REMARK    8  A    between atoms: C_20  and  N_21
REMARK    9  A    between atoms: N_21  and  C_22
REMARK   10  A    between atoms: N_21  and  S_23
REMARK   11  A    between atoms: S_23  and  C_26
REMARK                            x       y       z     vdW  Elec       q    Type
REMARK                         _______ _______ _______ _____ _____    ______ ____
ROOT
ATOM      1  N   UNL     1       2.932   4.008  19.239  0.00  0.00    +0.000 N 
ATOM      2  C   UNL     1       4.322   4.034  19.366  0.00  0.00    +0.000 C 
ATOM      3  O   UNL     1       4.944   3.153  19.968  0.00  0.00    +0.000 OA
ENDROOT
BRANCH   1   5
ATOM      4  C   UNL     1       1.643   3.195  21.247  0.00  0.00    +0.000 C 
ATOM      5  C   UNL     1       2.163   2.886  19.838  0.00  0.00    +0.000 C 
ATOM      6  C   UNL     1       1.025   2.398  18.936  0.00  0.00    +0.000 C 
ENDBRANCH   1   5
BRANCH   1   7
ATOM      7  C   UNL     1       2.182   4.985  18.429  0.00  0.00    +0.000 C 
BRANCH   7   8
ATOM      8  C   UNL     1       2.112   6.349  19.028  0.00  0.00    +0.000 A 
ATOM      9  N   UNL     1       1.515   6.774  20.116  0.00  0.00    +0.000 NA
ATOM     10  C   UNL     1       1.509   8.142  19.955  0.00  0.00    +0.000 A 
ATOM     11  N   UNL     1       2.172   8.559  18.863  0.00  0.00    +0.000 NA
ATOM     12  O   UNL     1       2.567   7.372  18.244  0.00  0.00    +0.000 OA
BRANCH  10  13
ATOM     13  C   UNL     1       0.681   8.991  20.805  0.00  0.00    +0.000 A 
ATOM     14  C   UNL     1      -0.057  10.035  20.220  0.00  0.00    +0.000 A 
ATOM     15  C   UNL     1      -0.730  10.968  21.012  0.00  0.00    +0.000 A 
ATOM     16  C   UNL     1      -0.682  10.856  22.398  0.00  0.00    +0.000 A 
ATOM     17 CL   UNL     1      -1.463  12.037  23.374  0.00  0.00    +0.000 Cl
ATOM     18  C   UNL     1       0.012   9.805  22.997  0.00  0.00    +0.000 A 
ATOM     19  C   UNL     1       0.689   8.872  22.203  0.00  0.00    +0.000 A 
ENDBRANCH  10  13
ENDBRANCH   7   8
ENDBRANCH   1   7
BRANCH   2  20
ATOM     20  C   UNL     1       5.119   5.172  18.728  0.00  0.00    +0.000 C 
BRANCH  20  21
ATOM     21  N   UNL     1       5.581   4.891  17.332  0.00  0.00    +0.000 NA
ATOM     22  C   UNL     1       4.909   5.793  16.353  0.00  0.00    +0.000 C 
BRANCH  21  23
ATOM     23  S   UNL     1       7.290   4.909  17.158  0.00  0.00    +0.000 S 
ATOM     24  O   UNL     1       7.862   4.003  18.129  0.00  0.00    +0.000 OA
ATOM     25  O   UNL     1       7.583   4.787  15.742  0.00  0.00    +0.000 OA
BRANCH  23  26
ATOM     26  C   UNL     1       7.734   6.552  17.677  0.00  0.00    +0.000 A 
ATOM     27  C   UNL     1       8.375   6.718  18.911  0.00  0.00    +0.000 A 
ATOM     28  C   UNL     1       8.728   8.000  19.338  0.00  0.00    +0.000 A 
ATOM     29  C   UNL     1       8.462   9.099  18.522  0.00  0.00    +0.000 A 
ATOM     30 CL   UNL     1       8.888  10.679  19.054  0.00  0.00    +0.000 Cl
ATOM     31  C   UNL     1       7.854   8.929  17.276  0.00  0.00    +0.000 A 
ATOM     32  C   UNL     1       7.487   7.651  16.848  0.00  0.00    +0.000 A 
ENDBRANCH  23  26
ENDBRANCH  21  23
ENDBRANCH  20  21
ENDBRANCH   2  20
TORSDOF 8
ENDMDL
MODEL 9
REMARK VINA RESULT:      -7.2      4.473      7.249
REMARK  Name = 
REMARK  11 active torsions:
REMARK  status: ('A' for Active; 'I' for Inactive)
REMARK    1  A    between atoms: C_1  and  C_2
REMARK    2  A    between atoms: C_2  and  C_3
REMARK    3  A    between atoms: C_2  and  N_4
REMARK    4  A    between atoms: N_4  and  C_5
REMARK    5  A    between atoms: C_5  and  C_6
REMARK    6  A    between atoms: C_8  and  C_9
REMARK    7  A    between atoms: C_18  and  C_20
REMARK    8  A    between atoms: C_20  and  N_21
REMARK    9  A    between atoms: N_21  and  C_22
REMARK   10  A    between atoms: N_21  and  S_23
REMARK   11  A    between atoms: S_23  and  C_26
REMARK                            x       y       z     vdW  Elec       q    Type
REMARK                         _______ _______ _______ _____ _____    ______ ____
ROOT
ATOM      1  N   UNL     1       6.183   5.150  17.445  0.00  0.00    +0.000 N 
ATOM      2  C   UNL     1       5.176   4.233  17.753  0.00  0.00    +0.000 C 
ATOM      3  O   UNL     1       4.538   3.640  16.878  0.00  0.00    +0.000 OA
ENDROOT
BRANCH   1   5
ATOM      4  C   UNL     1       7.108   4.217  15.293  0.00  0.00    +0.000 C 
ATOM      5  C   UNL     1       6.512   5.427  16.022  0.00  0.00    +0.000 C 
ATOM      6  C   UNL     1       5.326   6.001  15.239  0.00  0.00    +0.000 C 
ENDBRANCH   1   5
BRANCH   1   7
ATOM      7  C   UNL     1       7.034   5.782  18.470  0.00  0.00    +0.000 C 
BRANCH   7   8
ATOM      8  C   UNL     1       7.545   7.131  18.094  0.00  0.00    +0.000 A 
ATOM      9  N   UNL     1       8.571   7.812  18.548  0.00  0.00    +0.000 NA
ATOM     10  C   UNL     1       8.329   9.086  18.083  0.00  0.00    +0.000 A 
ATOM     11  N   UNL     1       7.253   9.173  17.283  0.00  0.00    +0.000 NA
ATOM     12  O   UNL     1       6.729   7.879  17.294  0.00  0.00    +0.000 OA
BRANCH  10  13
ATOM     13  C   UNL     1       9.078  10.226  18.603  0.00  0.00    +0.000 A 
ATOM     14  C   UNL     1       9.664  11.130  17.701  0.00  0.00    +0.000 A 
ATOM     15  C   UNL     1      10.523  12.136  18.151  0.00  0.00    +0.000 A 
ATOM     16  C   UNL     1      10.791  12.254  19.511  0.00  0.00    +0.000 A 
ATOM     17 CL   UNL     1      11.892  13.456  20.059  0.00  0.00    +0.000 Cl
ATOM     18  C   UNL     1      10.189  11.391  20.426  0.00  0.00    +0.000 A 
ATOM     19  C   UNL     1       9.331  10.381  19.975  0.00  0.00    +0.000 A 
ENDBRANCH  10  13
ENDBRANCH   7   8
ENDBRANCH   1   7
BRANCH   2  20
ATOM     20  C   UNL     1       4.855   3.925  19.215  0.00  0.00    +0.000 C 
BRANCH  20  21
ATOM     21  N   UNL     1       3.975   2.731  19.413  0.00  0.00    +0.000 NA
ATOM     22  C   UNL     1       4.557   1.797  20.419  0.00  0.00    +0.000 C 
BRANCH  21  23
ATOM     23  S   UNL     1       2.343   3.132  19.772  0.00  0.00    +0.000 S 
ATOM     24  O   UNL     1       1.482   2.438  18.841  0.00  0.00    +0.000 OA
ATOM     25  O   UNL     1       2.171   3.003  21.208  0.00  0.00    +0.000 OA
BRANCH  23  26
ATOM     26  C   UNL     1       2.250   4.860  19.356  0.00  0.00    +0.000 A 
ATOM     27  C   UNL     1       2.099   5.221  18.011  0.00  0.00    +0.000 A 
ATOM     28  C   UNL     1       2.027   6.571  17.664  0.00  0.00    +0.000 A 
ATOM     29  C   UNL     1       2.080   7.547  18.660  0.00  0.00    +0.000 A 
ATOM     30 CL   UNL     1       2.002   9.210  18.229  0.00  0.00    +0.000 Cl
ATOM     31  C   UNL     1       2.195   7.184  20.004  0.00  0.00    +0.000 A 
ATOM     32  C   UNL     1       2.281   5.836  20.358  0.00  0.00    +0.000 A 
ENDBRANCH  23  26
ENDBRANCH  21  23
ENDBRANCH  20  21
ENDBRANCH   2  20
TORSDOF 8
ENDMDL
