MODEL 1
REMARK VINA RESULT:      -7.9      0.000      0.000
REMARK  Name = 
REMARK  4 active torsions:
REMARK  status: ('A' for Active; 'I' for Inactive)
REMARK    1  A    between atoms: C_2  and  O_3
REMARK    2  A    between atoms: C_2  and  C_16
REMARK    3  A    between atoms: O_3  and  C_4
REMARK    4  A    between atoms: C_4  and  C_5
REMARK                            x       y       z     vdW  Elec       q    Type
REMARK                         _______ _______ _______ _____ _____    ______ ____
ROOT
ATOM      1  C   UNL     1       4.467   5.068  18.858  0.00  0.00    +0.000 A 
ATOM      2  C   UNL     1       3.902   6.097  18.079  0.00  0.00    +0.000 A 
ATOM      3  C   UNL     1       2.558   6.062  17.702  0.00  0.00    +0.000 A 
ATOM      4  C   UNL     1       1.749   5.004  18.106  0.00  0.00    +0.000 A 
ATOM      5  C   UNL     1       2.283   3.981  18.896  0.00  0.00    +0.000 A 
ATOM      6  C   UNL     1       3.640   4.004  19.274  0.00  0.00    +0.000 A 
ATOM      7  C   UNL     1       4.148   2.833  20.070  0.00  0.00    +0.000 C 
ATOM      8  C   UNL     1       3.043   2.394  21.010  0.00  0.00    +0.000 C 
ATOM      9  O   UNL     1       1.862   2.031  20.278  0.00  0.00    +0.000 OA
ATOM     10  C   UNL     1       1.396   2.854  19.302  0.00  0.00    +0.000 C 
ATOM     11  O   UNL     1       0.304   2.681  18.780  0.00  0.00    +0.000 OA
ENDROOT
BRANCH   1  12
ATOM     12  C   UNL     1       5.931   5.151  19.232  0.00  0.00    +0.000 C 
BRANCH  12  13
ATOM     13  O   UNL     1       6.683   5.663  18.122  0.00  0.00    +0.000 OA
BRANCH  13  15
ATOM     14  O   UNL     1       8.385   4.146  17.892  0.00  0.00    +0.000 OA
ATOM     15  C   UNL     1       7.427   4.758  17.429  0.00  0.00    +0.000 C 
BRANCH  15  16
ATOM     16  C   UNL     1       6.938   4.603  16.075  0.00  0.00    +0.000 A 
ATOM     17  C   UNL     1       5.825   3.924  15.608  0.00  0.00    +0.000 A 
ATOM     18  C   UNL     1       5.809   4.074  14.203  0.00  0.00    +0.000 A 
ATOM     19  C   UNL     1       6.907   4.835  13.889  0.00  0.00    +0.000 A 
ATOM     20  O   UNL     1       7.597   5.168  15.014  0.00  0.00    +0.000 OA
ENDBRANCH  15  16
ENDBRANCH  13  15
ENDBRANCH  12  13
ENDBRANCH   1  12
TORSDOF 4
ENDMDL
MODEL 2
REMARK VINA RESULT:      -7.5      1.553      2.825
REMARK  Name = 
REMARK  4 active torsions:
REMARK  status: ('A' for Active; 'I' for Inactive)
REMARK    1  A    between atoms: C_2  and  O_3
REMARK    2  A    between atoms: C_2  and  C_16
REMARK    3  A    between atoms: O_3  and  C_4
REMARK    4  A    between atoms: C_4  and  C_5
REMARK                            x       y       z     vdW  Elec       q    Type
REMARK                         _______ _______ _______ _____ _____    ______ ____
ROOT
ATOM      1  C   UNL     1       3.905   4.800  16.969  0.00  0.00    +0.000 A 
ATOM      2  C   UNL     1       3.962   6.173  17.278  0.00  0.00    +0.000 A 
ATOM      3  C   UNL     1       3.240   6.701  18.351  0.00  0.00    +0.000 A 
ATOM      4  C   UNL     1       2.456   5.866  19.141  0.00  0.00    +0.000 A 
ATOM      5  C   UNL     1       2.399   4.497  18.864  0.00  0.00    +0.000 A 
ATOM      6  C   UNL     1       3.118   3.956  17.780  0.00  0.00    +0.000 A 
ATOM      7  C   UNL     1       2.951   2.485  17.514  0.00  0.00    +0.000 C 
ATOM      8  C   UNL     1       2.833   1.780  18.851  0.00  0.00    +0.000 C 
ATOM      9  O   UNL     1       1.717   2.286  19.599  0.00  0.00    +0.000 OA
ATOM     10  C   UNL     1       1.541   3.629  19.720  0.00  0.00    +0.000 C 
ATOM     11  O   UNL     1       0.719   4.105  20.491  0.00  0.00    +0.000 OA
ENDROOT
BRANCH   1  12
ATOM     12  C   UNL     1       4.701   4.280  15.792  0.00  0.00    +0.000 C 
BRANCH  12  13
ATOM     13  O   UNL     1       6.023   3.926  16.224  0.00  0.00    +0.000 OA
BRANCH  13  15
ATOM     14  O   UNL     1       7.477   5.084  14.885  0.00  0.00    +0.000 OA
ATOM     15  C   UNL     1       7.001   4.843  15.990  0.00  0.00    +0.000 C 
BRANCH  15  16
ATOM     16  C   UNL     1       7.403   5.505  17.213  0.00  0.00    +0.000 A 
ATOM     17  C   UNL     1       7.619   6.851  17.462  0.00  0.00    +0.000 A 
ATOM     18  C   UNL     1       8.008   6.963  18.816  0.00  0.00    +0.000 A 
ATOM     19  C   UNL     1       8.007   5.686  19.319  0.00  0.00    +0.000 A 
ATOM     20  O   UNL     1       7.637   4.794  18.361  0.00  0.00    +0.000 OA
ENDBRANCH  15  16
ENDBRANCH  13  15
ENDBRANCH  12  13
ENDBRANCH   1  12
TORSDOF 4
ENDMDL
MODEL 3
REMARK VINA RESULT:      -7.5      1.900      3.278
REMARK  Name = 
REMARK  4 active torsions:
REMARK  status: ('A' for Active; 'I' for Inactive)
REMARK    1  A    between atoms: C_2  and  O_3
REMARK    2  A    between atoms: C_2  and  C_16
REMARK    3  A    between atoms: O_3  and  C_4
REMARK    4  A    between atoms: C_4  and  C_5
REMARK                            x       y       z     vdW  Elec       q    Type
REMARK                         _______ _______ _______ _____ _____    ______ ____
ROOT
ATOM      1  C   UNL     1       3.877   4.058  17.644  0.00  0.00    +0.000 A 
ATOM      2  C   UNL     1       3.850   2.681  17.353  0.00  0.00    +0.000 A 
ATOM      3  C   UNL     1       3.324   1.761  18.263  0.00  0.00    +0.000 A 
ATOM      4  C   UNL     1       2.805   2.203  19.477  0.00  0.00    +0.000 A 
ATOM      5  C   UNL     1       2.804   3.568  19.779  0.00  0.00    +0.000 A 
ATOM      6  C   UNL     1       3.339   4.502  18.870  0.00  0.00    +0.000 A 
ATOM      7  C   UNL     1       3.356   5.943  19.300  0.00  0.00    +0.000 C 
ATOM      8  C   UNL     1       2.093   6.207  20.097  0.00  0.00    +0.000 C 
ATOM      9  O   UNL     1       2.019   5.341  21.240  0.00  0.00    +0.000 OA
ATOM     10  C   UNL     1       2.253   4.010  21.092  0.00  0.00    +0.000 C 
ATOM     11  O   UNL     1       2.026   3.211  21.990  0.00  0.00    +0.000 OA
ENDROOT
BRANCH   1  12
ATOM     12  C   UNL     1       4.464   5.012  16.625  0.00  0.00    +0.000 C 
BRANCH  12  13
ATOM     13  O   UNL     1       5.500   4.347  15.887  0.00  0.00    +0.000 OA
BRANCH  13  15
ATOM     14  O   UNL     1       7.105   5.206  14.496  0.00  0.00    +0.000 OA
ATOM     15  C   UNL     1       6.612   5.082  15.612  0.00  0.00    +0.000 C 
BRANCH  15  16
ATOM     16  C   UNL     1       7.136   5.708  16.808  0.00  0.00    +0.000 A 
ATOM     17  C   UNL     1       7.492   5.142  18.021  0.00  0.00    +0.000 A 
ATOM     18  C   UNL     1       7.935   6.193  18.854  0.00  0.00    +0.000 A 
ATOM     19  C   UNL     1       7.828   7.341  18.108  0.00  0.00    +0.000 A 
ATOM     20  O   UNL     1       7.352   7.060  16.865  0.00  0.00    +0.000 OA
ENDBRANCH  15  16
ENDBRANCH  13  15
ENDBRANCH  12  13
ENDBRANCH   1  12
TORSDOF 4
ENDMDL
MODEL 4
REMARK VINA RESULT:      -7.5      1.684      2.772
REMARK  Name = 
REMARK  4 active torsions:
REMARK  status: ('A' for Active; 'I' for Inactive)
REMARK    1  A    between atoms: C_2  and  O_3
REMARK    2  A    between atoms: C_2  and  C_16
REMARK    3  A    between atoms: O_3  and  C_4
REMARK    4  A    between atoms: C_4  and  C_5
REMARK                            x       y       z     vdW  Elec       q    Type
REMARK                         _______ _______ _______ _____ _____    ______ ____
ROOT
ATOM      1  C   UNL     1       4.142   4.835  17.055  0.00  0.00    +0.000 A 
ATOM      2  C   UNL     1       4.011   6.234  17.138  0.00  0.00    +0.000 A 
ATOM      3  C   UNL     1       3.460   6.842  18.268  0.00  0.00    +0.000 A 
ATOM      4  C   UNL     1       3.041   6.063  19.342  0.00  0.00    +0.000 A 
ATOM      5  C   UNL     1       3.179   4.673  19.290  0.00  0.00    +0.000 A 
ATOM      6  C   UNL     1       3.726   4.050  18.151  0.00  0.00    +0.000 A 
ATOM      7  C   UNL     1       3.780   2.548  18.152  0.00  0.00    +0.000 C 
ATOM      8  C   UNL     1       4.095   2.093  19.564  0.00  0.00    +0.000 C 
ATOM      9  O   UNL     1       3.099   2.562  20.486  0.00  0.00    +0.000 OA
ATOM     10  C   UNL     1       2.708   3.863  20.451  0.00  0.00    +0.000 C 
ATOM     11  O   UNL     1       2.005   4.350  21.325  0.00  0.00    +0.000 OA
ENDROOT
BRANCH   1  12
ATOM     12  C   UNL     1       4.739   4.227  15.804  0.00  0.00    +0.000 C 
BRANCH  12  13
ATOM     13  O   UNL     1       6.122   3.919  16.032  0.00  0.00    +0.000 OA
BRANCH  13  15
ATOM     14  O   UNL     1       7.446   5.113  14.593  0.00  0.00    +0.000 OA
ATOM     15  C   UNL     1       7.017   4.897  15.722  0.00  0.00    +0.000 C 
BRANCH  15  16
ATOM     16  C   UNL     1       7.392   5.657  16.895  0.00  0.00    +0.000 A 
ATOM     17  C   UNL     1       7.560   5.240  18.205  0.00  0.00    +0.000 A 
ATOM     18  C   UNL     1       7.919   6.380  18.959  0.00  0.00    +0.000 A 
ATOM     19  C   UNL     1       7.953   7.427  18.073  0.00  0.00    +0.000 A 
ATOM     20  O   UNL     1       7.643   7.003  16.818  0.00  0.00    +0.000 OA
ENDBRANCH  15  16
ENDBRANCH  13  15
ENDBRANCH  12  13
ENDBRANCH   1  12
TORSDOF 4
ENDMDL
MODEL 5
REMARK VINA RESULT:      -7.5      1.970      3.617
REMARK  Name = 
REMARK  4 active torsions:
REMARK  status: ('A' for Active; 'I' for Inactive)
REMARK    1  A    between atoms: C_2  and  O_3
REMARK    2  A    between atoms: C_2  and  C_16
REMARK    3  A    between atoms: O_3  and  C_4
REMARK    4  A    between atoms: C_4  and  C_5
REMARK                            x       y       z     vdW  Elec       q    Type
REMARK                         _______ _______ _______ _____ _____    ______ ____
ROOT
ATOM      1  C   UNL     1       3.961   3.861  17.073  0.00  0.00    +0.000 A 
ATOM      2  C   UNL     1       3.689   2.508  17.351  0.00  0.00    +0.000 A 
ATOM      3  C   UNL     1       3.001   2.132  18.507  0.00  0.00    +0.000 A 
ATOM      4  C   UNL     1       2.563   3.103  19.402  0.00  0.00    +0.000 A 
ATOM      5  C   UNL     1       2.805   4.455  19.138  0.00  0.00    +0.000 A 
ATOM      6  C   UNL     1       3.505   4.842  17.978  0.00  0.00    +0.000 A 
ATOM      7  C   UNL     1       3.778   6.311  17.802  0.00  0.00    +0.000 C 
ATOM      8  C   UNL     1       2.578   7.074  18.328  0.00  0.00    +0.000 C 
ATOM      9  O   UNL     1       2.343   6.767  19.711  0.00  0.00    +0.000 OA
ATOM     10  C   UNL     1       2.335   5.472  20.121  0.00  0.00    +0.000 C 
ATOM     11  O   UNL     1       1.963   5.152  21.242  0.00  0.00    +0.000 OA
ENDROOT
BRANCH   1  12
ATOM     12  C   UNL     1       4.716   4.213  15.810  0.00  0.00    +0.000 C 
BRANCH  12  13
ATOM     13  O   UNL     1       6.090   3.821  15.946  0.00  0.00    +0.000 OA
BRANCH  13  15
ATOM     14  O   UNL     1       7.496   5.141  14.707  0.00  0.00    +0.000 OA
ATOM     15  C   UNL     1       7.017   4.805  15.786  0.00  0.00    +0.000 C 
BRANCH  15  16
ATOM     16  C   UNL     1       7.362   5.412  17.054  0.00  0.00    +0.000 A 
ATOM     17  C   UNL     1       7.496   6.749  17.389  0.00  0.00    +0.000 A 
ATOM     18  C   UNL     1       7.856   6.800  18.754  0.00  0.00    +0.000 A 
ATOM     19  C   UNL     1       7.921   5.496  19.179  0.00  0.00    +0.000 A 
ATOM     20  O   UNL     1       7.617   4.646  18.162  0.00  0.00    +0.000 OA
ENDBRANCH  15  16
ENDBRANCH  13  15
ENDBRANCH  12  13
ENDBRANCH   1  12
TORSDOF 4
ENDMDL
MODEL 6
REMARK VINA RESULT:      -7.4      1.375      1.637
REMARK  Name = 
REMARK  4 active torsions:
REMARK  status: ('A' for Active; 'I' for Inactive)
REMARK    1  A    between atoms: C_2  and  O_3
REMARK    2  A    between atoms: C_2  and  C_16
REMARK    3  A    between atoms: O_3  and  C_4
REMARK    4  A    between atoms: C_4  and  C_5
REMARK                            x       y       z     vdW  Elec       q    Type
REMARK                         _______ _______ _______ _____ _____    ______ ____
ROOT
ATOM      1  C   UNL     1       3.564   5.544  18.546  0.00  0.00    +0.000 A 
ATOM      2  C   UNL     1       2.854   6.682  18.975  0.00  0.00    +0.000 A 
ATOM      3  C   UNL     1       2.026   6.635  20.099  0.00  0.00    +0.000 A 
ATOM      4  C   UNL     1       1.901   5.453  20.822  0.00  0.00    +0.000 A 
ATOM      5  C   UNL     1       2.612   4.315  20.426  0.00  0.00    +0.000 A 
ATOM      6  C   UNL     1       3.443   4.351  19.289  0.00  0.00    +0.000 A 
ATOM      7  C   UNL     1       4.121   3.068  18.896  0.00  0.00    +0.000 C 
ATOM      8  C   UNL     1       4.504   2.335  20.167  0.00  0.00    +0.000 C 
ATOM      9  O   UNL     1       3.345   2.067  20.971  0.00  0.00    +0.000 OA
ATOM     10  C   UNL     1       2.448   3.059  21.213  0.00  0.00    +0.000 C 
ATOM     11  O   UNL     1       1.550   2.933  22.033  0.00  0.00    +0.000 OA
ENDROOT
BRANCH   1  12
ATOM     12  C   UNL     1       4.441   5.647  17.317  0.00  0.00    +0.000 C 
BRANCH  12  13
ATOM     13  O   UNL     1       5.792   5.927  17.714  0.00  0.00    +0.000 OA
BRANCH  13  15
ATOM     14  O   UNL     1       7.487   4.455  18.171  0.00  0.00    +0.000 OA
ATOM     15  C   UNL     1       6.726   4.996  17.376  0.00  0.00    +0.000 C 
BRANCH  15  16
ATOM     16  C   UNL     1       6.700   4.718  15.955  0.00  0.00    +0.000 A 
ATOM     17  C   UNL     1       5.992   3.756  15.254  0.00  0.00    +0.000 A 
ATOM     18  C   UNL     1       6.332   3.905  13.890  0.00  0.00    +0.000 A 
ATOM     19  C   UNL     1       7.224   4.947  13.832  0.00  0.00    +0.000 A 
ATOM     20  O   UNL     1       7.450   5.453  15.075  0.00  0.00    +0.000 OA
ENDBRANCH  15  16
ENDBRANCH  13  15
ENDBRANCH  12  13
ENDBRANCH   1  12
TORSDOF 4
ENDMDL
MODEL 7
REMARK VINA RESULT:      -7.4      1.794      2.726
REMARK  Name = 
REMARK  4 active torsions:
REMARK  status: ('A' for Active; 'I' for Inactive)
REMARK    1  A    between atoms: C_2  and  O_3
REMARK    2  A    between atoms: C_2  and  C_16
REMARK    3  A    between atoms: O_3  and  C_4
REMARK    4  A    between atoms: C_4  and  C_5
REMARK                            x       y       z     vdW  Elec       q    Type
REMARK                         _______ _______ _______ _____ _____    ______ ____
ROOT
ATOM      1  C   UNL     1       3.750   4.231  17.876  0.00  0.00    +0.000 A 
ATOM      2  C   UNL     1       3.132   5.496  17.864  0.00  0.00    +0.000 A 
ATOM      3  C   UNL     1       2.390   5.948  18.957  0.00  0.00    +0.000 A 
ATOM      4  C   UNL     1       2.261   5.149  20.089  0.00  0.00    +0.000 A 
ATOM      5  C   UNL     1       2.882   3.896  20.132  0.00  0.00    +0.000 A 
ATOM      6  C   UNL     1       3.626   3.429  19.030  0.00  0.00    +0.000 A 
ATOM      7  C   UNL     1       4.208   2.046  19.135  0.00  0.00    +0.000 C 
ATOM      8  C   UNL     1       4.648   1.833  20.570  0.00  0.00    +0.000 C 
ATOM      9  O   UNL     1       3.541   1.983  21.472  0.00  0.00    +0.000 OA
ATOM     10  C   UNL     1       2.716   3.057  21.352  0.00  0.00    +0.000 C 
ATOM     11  O   UNL     1       1.876   3.324  22.201  0.00  0.00    +0.000 OA
ENDROOT
BRANCH   1  12
ATOM     12  C   UNL     1       4.536   3.786  16.662  0.00  0.00    +0.000 C 
BRANCH  12  13
ATOM     13  O   UNL     1       5.033   4.937  15.964  0.00  0.00    +0.000 OA
BRANCH  13  15
ATOM     14  O   UNL     1       7.003   4.443  14.901  0.00  0.00    +0.000 OA
ATOM     15  C   UNL     1       6.383   5.007  15.797  0.00  0.00    +0.000 C 
BRANCH  15  16
ATOM     16  C   UNL     1       6.994   5.841  16.811  0.00  0.00    +0.000 A 
ATOM     17  C   UNL     1       7.447   5.509  18.077  0.00  0.00    +0.000 A 
ATOM     18  C   UNL     1       7.946   6.694  18.661  0.00  0.00    +0.000 A 
ATOM     19  C   UNL     1       7.774   7.683  17.725  0.00  0.00    +0.000 A 
ATOM     20  O   UNL     1       7.204   7.179  16.596  0.00  0.00    +0.000 OA
ENDBRANCH  15  16
ENDBRANCH  13  15
ENDBRANCH  12  13
ENDBRANCH   1  12
TORSDOF 4
ENDMDL
MODEL 8
REMARK VINA RESULT:      -7.4      1.748      6.163
REMARK  Name = 
REMARK  4 active torsions:
REMARK  status: ('A' for Active; 'I' for Inactive)
REMARK    1  A    between atoms: C_2  and  O_3
REMARK    2  A    between atoms: C_2  and  C_16
REMARK    3  A    between atoms: O_3  and  C_4
REMARK    4  A    between atoms: C_4  and  C_5
REMARK                            x       y       z     vdW  Elec       q    Type
REMARK                         _______ _______ _______ _____ _____    ______ ____
ROOT
ATOM      1  C   UNL     1       4.982   4.017  17.159  0.00  0.00    +0.000 A 
ATOM      2  C   UNL     1       4.879   3.975  15.755  0.00  0.00    +0.000 A 
ATOM      3  C   UNL     1       5.591   4.869  14.952  0.00  0.00    +0.000 A 
ATOM      4  C   UNL     1       6.427   5.816  15.537  0.00  0.00    +0.000 A 
ATOM      5  C   UNL     1       6.559   5.864  16.928  0.00  0.00    +0.000 A 
ATOM      6  C   UNL     1       5.840   4.971  17.746  0.00  0.00    +0.000 A 
ATOM      7  C   UNL     1       5.991   5.133  19.234  0.00  0.00    +0.000 C 
ATOM      8  C   UNL     1       7.428   5.526  19.516  0.00  0.00    +0.000 C 
ATOM      9  O   UNL     1       7.767   6.746  18.840  0.00  0.00    +0.000 OA
ATOM     10  C   UNL     1       7.452   6.898  17.526  0.00  0.00    +0.000 C 
ATOM     11  O   UNL     1       7.877   7.834  16.864  0.00  0.00    +0.000 OA
ENDROOT
BRANCH   1  12
ATOM     12  C   UNL     1       4.185   3.030  17.983  0.00  0.00    +0.000 C 
BRANCH  12  13
ATOM     13  O   UNL     1       2.880   2.867  17.407  0.00  0.00    +0.000 OA
BRANCH  13  15
ATOM     14  O   UNL     1       1.083   4.285  17.302  0.00  0.00    +0.000 OA
ATOM     15  C   UNL     1       1.882   3.617  17.951  0.00  0.00    +0.000 C 
BRANCH  15  16
ATOM     16  C   UNL     1       1.879   3.519  19.395  0.00  0.00    +0.000 A 
ATOM     17  C   UNL     1       2.254   4.453  20.347  0.00  0.00    +0.000 A 
ATOM     18  C   UNL     1       2.068   3.851  21.612  0.00  0.00    +0.000 A 
ATOM     19  C   UNL     1       1.590   2.588  21.366  0.00  0.00    +0.000 A 
ATOM     20  O   UNL     1       1.465   2.376  20.028  0.00  0.00    +0.000 OA
ENDBRANCH  15  16
ENDBRANCH  13  15
ENDBRANCH  12  13
ENDBRANCH   1  12
TORSDOF 4
ENDMDL
MODEL 9
REMARK VINA RESULT:      -7.3      1.386      1.628
REMARK  Name = 
REMARK  4 active torsions:
REMARK  status: ('A' for Active; 'I' for Inactive)
REMARK    1  A    between atoms: C_2  and  O_3
REMARK    2  A    between atoms: C_2  and  C_16
REMARK    3  A    between atoms: O_3  and  C_4
REMARK    4  A    between atoms: C_4  and  C_5
REMARK                            x       y       z     vdW  Elec       q    Type
REMARK                         _______ _______ _______ _____ _____    ______ ____
ROOT
ATOM      1  C   UNL     1       4.538   6.094  17.743  0.00  0.00    +0.000 A 
ATOM      2  C   UNL     1       3.693   7.220  17.720  0.00  0.00    +0.000 A 
ATOM      3  C   UNL     1       2.312   7.089  17.876  0.00  0.00    +0.000 A 
ATOM      4  C   UNL     1       1.749   5.831  18.069  0.00  0.00    +0.000 A 
ATOM      5  C   UNL     1       2.571   4.700  18.115  0.00  0.00    +0.000 A 
ATOM      6  C   UNL     1       3.965   4.822  17.951  0.00  0.00    +0.000 A 
ATOM      7  C   UNL     1       4.767   3.550  17.950  0.00  0.00    +0.000 C 
ATOM      8  C   UNL     1       4.140   2.603  18.955  0.00  0.00    +0.000 C 
ATOM      9  O   UNL     1       2.770   2.334  18.618  0.00  0.00    +0.000 OA
ATOM     10  C   UNL     1       1.938   3.364  18.310  0.00  0.00    +0.000 C 
ATOM     11  O   UNL     1       0.731   3.207  18.196  0.00  0.00    +0.000 OA
ENDROOT
BRANCH   1  12
ATOM     12  C   UNL     1       6.028   6.290  17.563  0.00  0.00    +0.000 C 
BRANCH  12  13
ATOM     13  O   UNL     1       6.366   6.154  16.174  0.00  0.00    +0.000 OA
BRANCH  13  15
ATOM     14  O   UNL     1       7.933   4.544  16.623  0.00  0.00    +0.000 OA
ATOM     15  C   UNL     1       7.162   5.100  15.847  0.00  0.00    +0.000 C 
BRANCH  15  16
ATOM     16  C   UNL     1       6.977   4.712  14.465  0.00  0.00    +0.000 A 
ATOM     17  C   UNL     1       6.127   3.766  13.916  0.00  0.00    +0.000 A 
ATOM     18  C   UNL     1       6.347   3.772  12.520  0.00  0.00    +0.000 A 
ATOM     19  C   UNL     1       7.314   4.719  12.292  0.00  0.00    +0.000 A 
ATOM     20  O   UNL     1       7.700   5.301  13.460  0.00  0.00    +0.000 OA
ENDBRANCH  15  16
ENDBRANCH  13  15
ENDBRANCH  12  13
ENDBRANCH   1  12
TORSDOF 4
ENDMDL
