MODEL 1
REMARK VINA RESULT:      -6.9      0.000      0.000
REMARK  Name = 
REMARK  5 active torsions:
REMARK  status: ('A' for Active; 'I' for Inactive)
REMARK    1  A    between atoms: C_1  and  O_2
REMARK    2  A    between atoms: O_2  and  C_3
REMARK    3  A    between atoms: C_7  and  C_8
REMARK    4  A    between atoms: C_11  and  N_12
REMARK    5  A    between atoms: N_15  and  C_16
REMARK                            x       y       z     vdW  Elec       q    Type
REMARK                         _______ _______ _______ _____ _____    ______ ____
ROOT
ATOM      1  C   UNL     1      -2.029  12.656  19.811  0.00  0.00    +0.000 C 
ATOM      2  C   UNL     1      -1.261  12.051  20.995  0.00  0.00    +0.000 C 
ATOM      3  C   UNL     1      -1.066  10.538  20.895  0.00  0.00    +0.000 C 
ATOM      4  C   UNL     1      -0.405  10.055  19.578  0.00  0.00    +0.000 C 
ATOM      5  C   UNL     1      -1.149  10.694  18.374  0.00  0.00    +0.000 C 
ATOM      6  C   UNL     1      -1.438  12.191  18.472  0.00  0.00    +0.000 C 
ENDROOT
BRANCH   1  11
ATOM      7  C   UNL     1      -5.475  12.453  21.466  0.00  0.00    +0.000 A 
ATOM      8  C   UNL     1      -6.266  11.956  20.432  0.00  0.00    +0.000 A 
ATOM      9  C   UNL     1      -5.719  11.740  19.174  0.00  0.00    +0.000 A 
ATOM     10  C   UNL     1      -4.368  12.001  18.945  0.00  0.00    +0.000 A 
ATOM     11  C   UNL     1      -3.539  12.481  19.966  0.00  0.00    +0.000 A 
ATOM     12  C   UNL     1      -4.124  12.727  21.226  0.00  0.00    +0.000 A 
BRANCH   7  14
ATOM     13  C   UNL     1      -5.338  12.952  23.788  0.00  0.00    +0.000 C 
ATOM     14  O   UNL     1      -6.128  12.598  22.659  0.00  0.00    +0.000 OA
ENDBRANCH   7  14
ENDBRANCH   1  11
BRANCH   4  15
ATOM     15  N   UNL     1       1.068  10.255  19.622  0.00  0.00    +0.000 NA
ATOM     16  C   UNL     1       1.734   9.272  20.546  0.00  0.00    +0.000 C 
ATOM     17  C   UNL     1       1.805   7.794  20.053  0.00  0.00    +0.000 C 
ATOM     18  N   UNL     1       2.404   7.750  18.714  0.00  0.00    +0.000 N 
ATOM     19  C   UNL     1       1.748   8.645  17.744  0.00  0.00    +0.000 C 
ATOM     20  C   UNL     1       1.752  10.088  18.308  0.00  0.00    +0.000 C 
BRANCH  18  21
ATOM     21  C   UNL     1       2.878   6.544  18.195  0.00  0.00    +0.000 A 
ATOM     22  C   UNL     1       4.096   6.406  17.516  0.00  0.00    +0.000 A 
ATOM     23  C   UNL     1       4.493   5.175  16.985  0.00  0.00    +0.000 A 
ATOM     24  C   UNL     1       3.676   4.056  17.114  0.00  0.00    +0.000 A 
ATOM     25  C   UNL     1       2.463   4.166  17.782  0.00  0.00    +0.000 A 
ATOM     26  C   UNL     1       2.075   5.396  18.319  0.00  0.00    +0.000 A 
ENDBRANCH  18  21
ENDBRANCH   4  15
TORSDOF 4
ENDMDL
MODEL 2
REMARK VINA RESULT:      -6.9      3.037      8.986
REMARK  Name = 
REMARK  5 active torsions:
REMARK  status: ('A' for Active; 'I' for Inactive)
REMARK    1  A    between atoms: C_1  and  O_2
REMARK    2  A    between atoms: O_2  and  C_3
REMARK    3  A    between atoms: C_7  and  C_8
REMARK    4  A    between atoms: C_11  and  N_12
REMARK    5  A    between atoms: N_15  and  C_16
REMARK                            x       y       z     vdW  Elec       q    Type
REMARK                         _______ _______ _______ _____ _____    ______ ____
ROOT
ATOM      1  C   UNL     1       2.378   7.475  19.656  0.00  0.00    +0.000 C 
ATOM      2  C   UNL     1       2.176   8.500  18.532  0.00  0.00    +0.000 C 
ATOM      3  C   UNL     1       0.725   8.948  18.358  0.00  0.00    +0.000 C 
ATOM      4  C   UNL     1       0.056   9.490  19.648  0.00  0.00    +0.000 C 
ATOM      5  C   UNL     1       0.289   8.478  20.803  0.00  0.00    +0.000 C 
ATOM      6  C   UNL     1       1.711   7.942  20.958  0.00  0.00    +0.000 C 
ENDROOT
BRANCH   1  11
ATOM      7  C   UNL     1       1.389   3.780  19.836  0.00  0.00    +0.000 A 
ATOM      8  C   UNL     1       1.586   3.362  18.521  0.00  0.00    +0.000 A 
ATOM      9  C   UNL     1       1.976   4.272  17.548  0.00  0.00    +0.000 A 
ATOM     10  C   UNL     1       2.192   5.607  17.886  0.00  0.00    +0.000 A 
ATOM     11  C   UNL     1       2.026   6.059  19.201  0.00  0.00    +0.000 A 
ATOM     12  C   UNL     1       1.594   5.125  20.166  0.00  0.00    +0.000 A 
BRANCH   7  14
ATOM     13  C   UNL     1       1.822   2.627  21.870  0.00  0.00    +0.000 C 
ATOM     14  O   UNL     1       1.029   2.783  20.700  0.00  0.00    +0.000 OA
ENDBRANCH   7  14
ENDBRANCH   1  11
BRANCH   4  15
ATOM     15  N   UNL     1       0.471  10.893  19.909  0.00  0.00    +0.000 NA
ATOM     16  C   UNL     1      -0.471  11.880  19.272  0.00  0.00    +0.000 C 
ATOM     17  C   UNL     1      -1.877  12.022  19.932  0.00  0.00    +0.000 C 
ATOM     18  N   UNL     1      -1.722  12.289  21.367  0.00  0.00    +0.000 N 
ATOM     19  C   UNL     1      -0.861  11.314  22.060  0.00  0.00    +0.000 C 
ATOM     20  C   UNL     1       0.516  11.265  21.351  0.00  0.00    +0.000 C 
BRANCH  18  21
ATOM     21  C   UNL     1      -2.797  12.779  22.110  0.00  0.00    +0.000 A 
ATOM     22  C   UNL     1      -3.709  13.732  21.638  0.00  0.00    +0.000 A 
ATOM     23  C   UNL     1      -4.742  14.210  22.450  0.00  0.00    +0.000 A 
ATOM     24  C   UNL     1      -4.879  13.752  23.757  0.00  0.00    +0.000 A 
ATOM     25  C   UNL     1      -3.987  12.808  24.250  0.00  0.00    +0.000 A 
ATOM     26  C   UNL     1      -2.963  12.326  23.431  0.00  0.00    +0.000 A 
ENDBRANCH  18  21
ENDBRANCH   4  15
TORSDOF 4
ENDMDL
MODEL 3
REMARK VINA RESULT:      -6.9      0.703      1.175
REMARK  Name = 
REMARK  5 active torsions:
REMARK  status: ('A' for Active; 'I' for Inactive)
REMARK    1  A    between atoms: C_1  and  O_2
REMARK    2  A    between atoms: O_2  and  C_3
REMARK    3  A    between atoms: C_7  and  C_8
REMARK    4  A    between atoms: C_11  and  N_12
REMARK    5  A    between atoms: N_15  and  C_16
REMARK                            x       y       z     vdW  Elec       q    Type
REMARK                         _______ _______ _______ _____ _____    ______ ____
ROOT
ATOM      1  C   UNL     1      -2.125  12.489  19.344  0.00  0.00    +0.000 C 
ATOM      2  C   UNL     1      -1.388  12.055  20.619  0.00  0.00    +0.000 C 
ATOM      3  C   UNL     1      -1.156  10.548  20.715  0.00  0.00    +0.000 C 
ATOM      4  C   UNL     1      -0.435   9.925  19.491  0.00  0.00    +0.000 C 
ATOM      5  C   UNL     1      -1.148  10.390  18.192  0.00  0.00    +0.000 C 
ATOM      6  C   UNL     1      -1.474  11.879  18.094  0.00  0.00    +0.000 C 
ENDROOT
BRANCH   1  11
ATOM      7  C   UNL     1      -5.603  12.255  20.926  0.00  0.00    +0.000 A 
ATOM      8  C   UNL     1      -6.364  11.734  19.880  0.00  0.00    +0.000 A 
ATOM      9  C   UNL     1      -5.787  11.512  18.637  0.00  0.00    +0.000 A 
ATOM     10  C   UNL     1      -4.435  11.791  18.435  0.00  0.00    +0.000 A 
ATOM     11  C   UNL     1      -3.635  12.294  19.468  0.00  0.00    +0.000 A 
ATOM     12  C   UNL     1      -4.252  12.546  20.712  0.00  0.00    +0.000 A 
BRANCH   7  14
ATOM     13  C   UNL     1      -7.698  12.252  22.052  0.00  0.00    +0.000 C 
ATOM     14  O   UNL     1      -6.285  12.404  22.102  0.00  0.00    +0.000 OA
ENDBRANCH   7  14
ENDBRANCH   1  11
BRANCH   4  15
ATOM     15  N   UNL     1       1.030  10.167  19.560  0.00  0.00    +0.000 NA
ATOM     16  C   UNL     1       1.708   9.211  20.504  0.00  0.00    +0.000 C 
ATOM     17  C   UNL     1       1.831   7.732  20.024  0.00  0.00    +0.000 C 
ATOM     18  N   UNL     1       2.455   7.696  18.696  0.00  0.00    +0.000 N 
ATOM     19  C   UNL     1       1.791   8.565  17.707  0.00  0.00    +0.000 C 
ATOM     20  C   UNL     1       1.742  10.011  18.261  0.00  0.00    +0.000 C 
BRANCH  18  21
ATOM     21  C   UNL     1       2.973   6.502  18.195  0.00  0.00    +0.000 A 
ATOM     22  C   UNL     1       2.396   5.243  18.411  0.00  0.00    +0.000 A 
ATOM     23  C   UNL     1       2.991   4.079  17.914  0.00  0.00    +0.000 A 
ATOM     24  C   UNL     1       4.181   4.148  17.196  0.00  0.00    +0.000 A 
ATOM     25  C   UNL     1       4.774   5.383  16.969  0.00  0.00    +0.000 A 
ATOM     26  C   UNL     1       4.171   6.544  17.460  0.00  0.00    +0.000 A 
ENDBRANCH  18  21
ENDBRANCH   4  15
TORSDOF 4
ENDMDL
MODEL 4
REMARK VINA RESULT:      -6.9      2.943      9.031
REMARK  Name = 
REMARK  5 active torsions:
REMARK  status: ('A' for Active; 'I' for Inactive)
REMARK    1  A    between atoms: C_1  and  O_2
REMARK    2  A    between atoms: O_2  and  C_3
REMARK    3  A    between atoms: C_7  and  C_8
REMARK    4  A    between atoms: C_11  and  N_12
REMARK    5  A    between atoms: N_15  and  C_16
REMARK                            x       y       z     vdW  Elec       q    Type
REMARK                         _______ _______ _______ _____ _____    ______ ____
ROOT
ATOM      1  C   UNL     1       2.201   7.779  19.958  0.00  0.00    +0.000 C 
ATOM      2  C   UNL     1       2.035   8.842  18.863  0.00  0.00    +0.000 C 
ATOM      3  C   UNL     1       0.582   9.235  18.601  0.00  0.00    +0.000 C 
ATOM      4  C   UNL     1      -0.202   9.693  19.858  0.00  0.00    +0.000 C 
ATOM      5  C   UNL     1      -0.008   8.643  20.987  0.00  0.00    +0.000 C 
ATOM      6  C   UNL     1       1.422   8.161  21.224  0.00  0.00    +0.000 C 
ENDROOT
BRANCH   1  11
ATOM      7  C   UNL     1       1.325   4.052  19.913  0.00  0.00    +0.000 A 
ATOM      8  C   UNL     1       1.674   3.687  18.613  0.00  0.00    +0.000 A 
ATOM      9  C   UNL     1       2.133   4.642  17.717  0.00  0.00    +0.000 A 
ATOM     10  C   UNL     1       2.267   5.971  18.119  0.00  0.00    +0.000 A 
ATOM     11  C   UNL     1       1.947   6.370  19.423  0.00  0.00    +0.000 A 
ATOM     12  C   UNL     1       1.448   5.389  20.306  0.00  0.00    +0.000 A 
BRANCH   7  14
ATOM     13  C   UNL     1       1.748   2.661  21.795  0.00  0.00    +0.000 C 
ATOM     14  O   UNL     1       0.911   3.014  20.701  0.00  0.00    +0.000 OA
ENDBRANCH   7  14
ENDBRANCH   1  11
BRANCH   4  15
ATOM     15  N   UNL     1       0.129  11.100  20.204  0.00  0.00    +0.000 NA
ATOM     16  C   UNL     1      -0.846  12.068  19.589  0.00  0.00    +0.000 C 
ATOM     17  C   UNL     1      -2.276  12.102  20.210  0.00  0.00    +0.000 C 
ATOM     18  N   UNL     1      -2.178  12.300  21.661  0.00  0.00    +0.000 N 
ATOM     19  C   UNL     1      -1.286  11.336  22.331  0.00  0.00    +0.000 C 
ATOM     20  C   UNL     1       0.111  11.396  21.665  0.00  0.00    +0.000 C 
BRANCH  18  21
ATOM     21  C   UNL     1      -3.298  12.693  22.394  0.00  0.00    +0.000 A 
ATOM     22  C   UNL     1      -3.449  12.483  23.772  0.00  0.00    +0.000 A 
ATOM     23  C   UNL     1      -4.618  12.866  24.438  0.00  0.00    +0.000 A 
ATOM     24  C   UNL     1      -5.665  13.459  23.739  0.00  0.00    +0.000 A 
ATOM     25  C   UNL     1      -5.541  13.677  22.373  0.00  0.00    +0.000 A 
ATOM     26  C   UNL     1      -4.368  13.302  21.713  0.00  0.00    +0.000 A 
ENDBRANCH  18  21
ENDBRANCH   4  15
TORSDOF 4
ENDMDL
MODEL 5
REMARK VINA RESULT:      -6.7      4.112      9.809
REMARK  Name = 
REMARK  5 active torsions:
REMARK  status: ('A' for Active; 'I' for Inactive)
REMARK    1  A    between atoms: C_1  and  O_2
REMARK    2  A    between atoms: O_2  and  C_3
REMARK    3  A    between atoms: C_7  and  C_8
REMARK    4  A    between atoms: C_11  and  N_12
REMARK    5  A    between atoms: N_15  and  C_16
REMARK                            x       y       z     vdW  Elec       q    Type
REMARK                         _______ _______ _______ _____ _____    ______ ____
ROOT
ATOM      1  C   UNL     1       2.373   6.331  18.319  0.00  0.00    +0.000 C 
ATOM      2  C   UNL     1       1.810   6.244  19.744  0.00  0.00    +0.000 C 
ATOM      3  C   UNL     1       2.049   7.500  20.580  0.00  0.00    +0.000 C 
ATOM      4  C   UNL     1       1.547   8.816  19.930  0.00  0.00    +0.000 C 
ATOM      5  C   UNL     1       2.079   8.896  18.472  0.00  0.00    +0.000 C 
ATOM      6  C   UNL     1       1.934   7.630  17.628  0.00  0.00    +0.000 C 
ENDROOT
BRANCH   1  11
ATOM      7  C   UNL     1       5.925   5.908  16.952  0.00  0.00    +0.000 A 
ATOM      8  C   UNL     1       6.578   5.299  18.023  0.00  0.00    +0.000 A 
ATOM      9  C   UNL     1       5.906   5.075  19.216  0.00  0.00    +0.000 A 
ATOM     10  C   UNL     1       4.566   5.441  19.344  0.00  0.00    +0.000 A 
ATOM     11  C   UNL     1       3.872   6.035  18.283  0.00  0.00    +0.000 A 
ATOM     12  C   UNL     1       4.584   6.286  17.091  0.00  0.00    +0.000 A 
BRANCH   7  14
ATOM     13  C   UNL     1       7.037   4.860  15.130  0.00  0.00    +0.000 C 
ATOM     14  O   UNL     1       6.690   6.050  15.827  0.00  0.00    +0.000 OA
ENDBRANCH   7  14
ENDBRANCH   1  11
BRANCH   4  15
ATOM     15  N   UNL     1       0.079   8.965  20.103  0.00  0.00    +0.000 NA
ATOM     16  C   UNL     1      -0.307   9.021  21.557  0.00  0.00    +0.000 C 
ATOM     17  C   UNL     1       0.061  10.329  22.322  0.00  0.00    +0.000 C 
ATOM     18  N   UNL     1      -0.462  11.490  21.592  0.00  0.00    +0.000 N 
ATOM     19  C   UNL     1      -0.061  11.526  20.174  0.00  0.00    +0.000 C 
ATOM     20  C   UNL     1      -0.492  10.201  19.496  0.00  0.00    +0.000 C 
BRANCH  18  21
ATOM     21  C   UNL     1      -0.558  12.732  22.221  0.00  0.00    +0.000 A 
ATOM     22  C   UNL     1      -1.450  13.018  23.263  0.00  0.00    +0.000 A 
ATOM     23  C   UNL     1      -1.523  14.297  23.824  0.00  0.00    +0.000 A 
ATOM     24  C   UNL     1      -0.710  15.321  23.347  0.00  0.00    +0.000 A 
ATOM     25  C   UNL     1       0.182  15.064  22.315  0.00  0.00    +0.000 A 
ATOM     26  C   UNL     1       0.258  13.782  21.765  0.00  0.00    +0.000 A 
ENDBRANCH  18  21
ENDBRANCH   4  15
TORSDOF 4
ENDMDL
MODEL 6
REMARK VINA RESULT:      -6.7      2.971      8.939
REMARK  Name = 
REMARK  5 active torsions:
REMARK  status: ('A' for Active; 'I' for Inactive)
REMARK    1  A    between atoms: C_1  and  O_2
REMARK    2  A    between atoms: O_2  and  C_3
REMARK    3  A    between atoms: C_7  and  C_8
REMARK    4  A    between atoms: C_11  and  N_12
REMARK    5  A    between atoms: N_15  and  C_16
REMARK                            x       y       z     vdW  Elec       q    Type
REMARK                         _______ _______ _______ _____ _____    ______ ____
ROOT
ATOM      1  C   UNL     1       2.401   7.543  19.690  0.00  0.00    +0.000 C 
ATOM      2  C   UNL     1       2.302   8.526  18.516  0.00  0.00    +0.000 C 
ATOM      3  C   UNL     1       0.890   9.056  18.271  0.00  0.00    +0.000 C 
ATOM      4  C   UNL     1       0.215   9.698  19.512  0.00  0.00    +0.000 C 
ATOM      5  C   UNL     1       0.345   8.727  20.718  0.00  0.00    +0.000 C 
ATOM      6  C   UNL     1       1.724   8.110  20.946  0.00  0.00    +0.000 C 
ENDROOT
BRANCH   1  11
ATOM      7  C   UNL     1       1.258   3.902  20.002  0.00  0.00    +0.000 A 
ATOM      8  C   UNL     1       1.396   3.440  18.693  0.00  0.00    +0.000 A 
ATOM      9  C   UNL     1       1.796   4.306  17.684  0.00  0.00    +0.000 A 
ATOM     10  C   UNL     1       2.080   5.640  17.979  0.00  0.00    +0.000 A 
ATOM     11  C   UNL     1       1.974   6.132  19.285  0.00  0.00    +0.000 A 
ATOM     12  C   UNL     1       1.532   5.244  20.288  0.00  0.00    +0.000 A 
BRANCH   7  14
ATOM     13  C   UNL     1       1.887   2.460  21.785  0.00  0.00    +0.000 C 
ATOM     14  O   UNL     1       0.882   2.944  20.903  0.00  0.00    +0.000 OA
ENDBRANCH   7  14
ENDBRANCH   1  11
BRANCH   4  15
ATOM     15  N   UNL     1       0.711  11.082  19.726  0.00  0.00    +0.000 NA
ATOM     16  C   UNL     1       0.105  12.048  18.744  0.00  0.00    +0.000 C 
ATOM     17  C   UNL     1      -1.400  12.401  18.956  0.00  0.00    +0.000 C 
ATOM     18  N   UNL     1      -1.610  12.850  20.337  0.00  0.00    +0.000 N 
ATOM     19  C   UNL     1      -1.095  11.910  21.349  0.00  0.00    +0.000 C 
ATOM     20  C   UNL     1       0.406  11.645  21.072  0.00  0.00    +0.000 C 
BRANCH  18  21
ATOM     21  C   UNL     1      -2.779  13.528  20.685  0.00  0.00    +0.000 A 
ATOM     22  C   UNL     1      -2.803  14.739  21.391  0.00  0.00    +0.000 A 
ATOM     23  C   UNL     1      -4.013  15.347  21.743  0.00  0.00    +0.000 A 
ATOM     24  C   UNL     1      -5.224  14.751  21.405  0.00  0.00    +0.000 A 
ATOM     25  C   UNL     1      -5.227  13.551  20.707  0.00  0.00    +0.000 A 
ATOM     26  C   UNL     1      -4.017  12.953  20.349  0.00  0.00    +0.000 A 
ENDBRANCH  18  21
ENDBRANCH   4  15
TORSDOF 4
ENDMDL
MODEL 7
REMARK VINA RESULT:      -6.4      1.255      1.658
REMARK  Name = 
REMARK  5 active torsions:
REMARK  status: ('A' for Active; 'I' for Inactive)
REMARK    1  A    between atoms: C_1  and  O_2
REMARK    2  A    between atoms: O_2  and  C_3
REMARK    3  A    between atoms: C_7  and  C_8
REMARK    4  A    between atoms: C_11  and  N_12
REMARK    5  A    between atoms: N_15  and  C_16
REMARK                            x       y       z     vdW  Elec       q    Type
REMARK                         _______ _______ _______ _____ _____    ______ ____
ROOT
ATOM      1  C   UNL     1      -0.680  12.230  20.819  0.00  0.00    +0.000 C 
ATOM      2  C   UNL     1      -0.200  11.139  21.785  0.00  0.00    +0.000 C 
ATOM      3  C   UNL     1      -0.442   9.717  21.280  0.00  0.00    +0.000 C 
ATOM      4  C   UNL     1       0.140   9.422  19.872  0.00  0.00    +0.000 C 
ATOM      5  C   UNL     1      -0.307  10.544  18.894  0.00  0.00    +0.000 C 
ATOM      6  C   UNL     1      -0.159  11.979  19.396  0.00  0.00    +0.000 C 
ENDROOT
BRANCH   1  11
ATOM      7  C   UNL     1      -4.151  12.576  22.396  0.00  0.00    +0.000 A 
ATOM      8  C   UNL     1      -4.973  12.670  21.273  0.00  0.00    +0.000 A 
ATOM      9  C   UNL     1      -4.420  12.687  20.000  0.00  0.00    +0.000 A 
ATOM     10  C   UNL     1      -3.038  12.591  19.838  0.00  0.00    +0.000 A 
ATOM     11  C   UNL     1      -2.184  12.474  20.941  0.00  0.00    +0.000 A 
ATOM     12  C   UNL     1      -2.765  12.495  22.226  0.00  0.00    +0.000 A 
BRANCH   7  14
ATOM     13  C   UNL     1      -6.165  13.012  23.583  0.00  0.00    +0.000 C 
ATOM     14  O   UNL     1      -4.822  12.546  23.588  0.00  0.00    +0.000 OA
ENDBRANCH   7  14
ENDBRANCH   1  11
BRANCH   4  15
ATOM     15  N   UNL     1       1.601   9.160  19.948  0.00  0.00    +0.000 NA
ATOM     16  C   UNL     1       1.920   8.074  20.941  0.00  0.00    +0.000 C 
ATOM     17  C   UNL     1       1.536   6.621  20.527  0.00  0.00    +0.000 C 
ATOM     18  N   UNL     1       2.107   6.317  19.210  0.00  0.00    +0.000 N 
ATOM     19  C   UNL     1       1.772   7.313  18.176  0.00  0.00    +0.000 C 
ATOM     20  C   UNL     1       2.216   8.715  18.666  0.00  0.00    +0.000 C 
BRANCH  18  21
ATOM     21  C   UNL     1       2.191   4.996  18.768  0.00  0.00    +0.000 A 
ATOM     22  C   UNL     1       2.958   4.582  17.670  0.00  0.00    +0.000 A 
ATOM     23  C   UNL     1       2.966   3.247  17.255  0.00  0.00    +0.000 A 
ATOM     24  C   UNL     1       2.199   2.297  17.923  0.00  0.00    +0.000 A 
ATOM     25  C   UNL     1       1.428   2.682  19.013  0.00  0.00    +0.000 A 
ATOM     26  C   UNL     1       1.432   4.015  19.430  0.00  0.00    +0.000 A 
ENDBRANCH  18  21
ENDBRANCH   4  15
TORSDOF 4
ENDMDL
MODEL 8
REMARK VINA RESULT:      -6.4      0.938      1.306
REMARK  Name = 
REMARK  5 active torsions:
REMARK  status: ('A' for Active; 'I' for Inactive)
REMARK    1  A    between atoms: C_1  and  O_2
REMARK    2  A    between atoms: O_2  and  C_3
REMARK    3  A    between atoms: C_7  and  C_8
REMARK    4  A    between atoms: C_11  and  N_12
REMARK    5  A    between atoms: N_15  and  C_16
REMARK                            x       y       z     vdW  Elec       q    Type
REMARK                         _______ _______ _______ _____ _____    ______ ____
ROOT
ATOM      1  C   UNL     1      -2.106  12.486  19.363  0.00  0.00    +0.000 C 
ATOM      2  C   UNL     1      -1.329  11.918  20.558  0.00  0.00    +0.000 C 
ATOM      3  C   UNL     1      -1.123  10.405  20.498  0.00  0.00    +0.000 C 
ATOM      4  C   UNL     1      -0.463   9.893  19.191  0.00  0.00    +0.000 C 
ATOM      5  C   UNL     1      -1.217  10.494  17.973  0.00  0.00    +0.000 C 
ATOM      6  C   UNL     1      -1.517  11.991  18.034  0.00  0.00    +0.000 C 
ENDROOT
BRANCH   1  11
ATOM      7  C   UNL     1      -5.546  12.309  21.035  0.00  0.00    +0.000 A 
ATOM      8  C   UNL     1      -6.336  11.771  20.019  0.00  0.00    +0.000 A 
ATOM      9  C   UNL     1      -5.790  11.518  18.768  0.00  0.00    +0.000 A 
ATOM     10  C   UNL     1      -4.442  11.784  18.526  0.00  0.00    +0.000 A 
ATOM     11  C   UNL     1      -3.614  12.303  19.528  0.00  0.00    +0.000 A 
ATOM     12  C   UNL     1      -4.198  12.586  20.781  0.00  0.00    +0.000 A 
BRANCH   7  14
ATOM     13  C   UNL     1      -5.439  13.034  23.297  0.00  0.00    +0.000 C 
ATOM     14  O   UNL     1      -6.196  12.488  22.224  0.00  0.00    +0.000 OA
ENDBRANCH   7  14
ENDBRANCH   1  11
BRANCH   4  15
ATOM     15  N   UNL     1       1.008  10.104  19.223  0.00  0.00    +0.000 NA
ATOM     16  C   UNL     1       1.627   9.517  20.464  0.00  0.00    +0.000 C 
ATOM     17  C   UNL     1       1.705   7.961  20.530  0.00  0.00    +0.000 C 
ATOM     18  N   UNL     1       2.359   7.449  19.319  0.00  0.00    +0.000 N 
ATOM     19  C   UNL     1       1.752   7.938  18.068  0.00  0.00    +0.000 C 
ATOM     20  C   UNL     1       1.745   9.488  18.084  0.00  0.00    +0.000 C 
BRANCH  18  21
ATOM     21  C   UNL     1       2.843   6.141  19.282  0.00  0.00    +0.000 A 
ATOM     22  C   UNL     1       2.319   5.087  20.043  0.00  0.00    +0.000 A 
ATOM     23  C   UNL     1       2.879   3.806  19.987  0.00  0.00    +0.000 A 
ATOM     24  C   UNL     1       3.982   3.555  19.176  0.00  0.00    +0.000 A 
ATOM     25  C   UNL     1       4.521   4.583  18.413  0.00  0.00    +0.000 A 
ATOM     26  C   UNL     1       3.952   5.857  18.464  0.00  0.00    +0.000 A 
ENDBRANCH  18  21
ENDBRANCH   4  15
TORSDOF 4
ENDMDL
MODEL 9
REMARK VINA RESULT:      -6.4      1.052      1.733
REMARK  Name = 
REMARK  5 active torsions:
REMARK  status: ('A' for Active; 'I' for Inactive)
REMARK    1  A    between atoms: C_1  and  O_2
REMARK    2  A    between atoms: O_2  and  C_3
REMARK    3  A    between atoms: C_7  and  C_8
REMARK    4  A    between atoms: C_11  and  N_12
REMARK    5  A    between atoms: N_15  and  C_16
REMARK                            x       y       z     vdW  Elec       q    Type
REMARK                         _______ _______ _______ _____ _____    ______ ____
ROOT
ATOM      1  C   UNL     1      -1.577  12.649  20.385  0.00  0.00    +0.000 C 
ATOM      2  C   UNL     1      -0.834  11.785  21.413  0.00  0.00    +0.000 C 
ATOM      3  C   UNL     1      -0.782  10.302  21.050  0.00  0.00    +0.000 C 
ATOM      4  C   UNL     1      -0.206  10.000  19.642  0.00  0.00    +0.000 C 
ATOM      5  C   UNL     1      -0.924  10.899  18.597  0.00  0.00    +0.000 C 
ATOM      6  C   UNL     1      -1.071  12.376  18.962  0.00  0.00    +0.000 C 
ENDROOT
BRANCH   1  11
ATOM      7  C   UNL     1      -5.307  12.501  19.531  0.00  0.00    +0.000 A 
ATOM      8  C   UNL     1      -5.899  12.685  20.780  0.00  0.00    +0.000 A 
ATOM      9  C   UNL     1      -5.112  12.794  21.918  0.00  0.00    +0.000 A 
ATOM     10  C   UNL     1      -3.722  12.741  21.815  0.00  0.00    +0.000 A 
ATOM     11  C   UNL     1      -3.092  12.579  20.575  0.00  0.00    +0.000 A 
ATOM     12  C   UNL     1      -3.912  12.434  19.437  0.00  0.00    +0.000 A 
BRANCH   7  14
ATOM     13  C   UNL     1      -7.568  12.309  18.821  0.00  0.00    +0.000 C 
ATOM     14  O   UNL     1      -6.191  12.432  18.490  0.00  0.00    +0.000 OA
ENDBRANCH   7  14
ENDBRANCH   1  11
BRANCH   4  15
ATOM     15  N   UNL     1       1.279  10.062  19.653  0.00  0.00    +0.000 NA
ATOM     16  C   UNL     1       1.871   9.032  20.577  0.00  0.00    +0.000 C 
ATOM     17  C   UNL     1       1.795   7.549  20.102  0.00  0.00    +0.000 C 
ATOM     18  N   UNL     1       2.358   7.434  18.751  0.00  0.00    +0.000 N 
ATOM     19  C   UNL     1       1.768   8.376  17.783  0.00  0.00    +0.000 C 
ATOM     20  C   UNL     1       1.917   9.819  18.328  0.00  0.00    +0.000 C 
BRANCH  18  21
ATOM     21  C   UNL     1       2.708   6.185  18.239  0.00  0.00    +0.000 A 
ATOM     22  C   UNL     1       3.965   5.881  17.698  0.00  0.00    +0.000 A 
ATOM     23  C   UNL     1       4.236   4.617  17.164  0.00  0.00    +0.000 A 
ATOM     24  C   UNL     1       3.253   3.632  17.151  0.00  0.00    +0.000 A 
ATOM     25  C   UNL     1       1.999   3.908  17.679  0.00  0.00    +0.000 A 
ATOM     26  C   UNL     1       1.735   5.169  18.221  0.00  0.00    +0.000 A 
ENDBRANCH  18  21
ENDBRANCH   4  15
TORSDOF 4
ENDMDL
