MODEL 1
REMARK VINA RESULT:      -7.7      0.000      0.000
REMARK  Name = 
REMARK  3 active torsions:
REMARK  status: ('A' for Active; 'I' for Inactive)
REMARK    1  A    between atoms: C_1  and  C_2
REMARK    2  A    between atoms: C_9  and  C_10
REMARK    3  A    between atoms: N_16  and  C_17
REMARK                            x       y       z     vdW  Elec       q    Type
REMARK                         _______ _______ _______ _____ _____    ______ ____
ROOT
ATOM      1  C   UNL     1      -0.062   9.630  23.451  0.00  0.00    +0.000 C 
ATOM      2  C   UNL     1      -0.451  10.420  22.240  0.00  0.00    +0.000 A 
ATOM      3  C   UNL     1      -1.334  11.505  22.333  0.00  0.00    +0.000 A 
ATOM      4  F   UNL     1      -1.841  11.844  23.529  0.00  0.00    +0.000 F 
ATOM      5  C   UNL     1      -1.714  12.264  21.224  0.00  0.00    +0.000 A 
ATOM      6  C   UNL     1      -1.220  11.974  19.951  0.00  0.00    +0.000 A 
ATOM      7  C   UNL     1      -0.333  10.900  19.865  0.00  0.00    +0.000 A 
ATOM      8  N   UNL     1       0.342  10.348  18.808  0.00  0.00    +0.000 N 
ATOM      9  C   UNL     1       1.128   9.319  19.273  0.00  0.00    +0.000 A 
ATOM     10  N   UNL     1       0.932   9.147  20.568  0.00  0.00    +0.000 NA
ATOM     11  C   UNL     1       0.053  10.132  20.957  0.00  0.00    +0.000 A 
ATOM     12  H   UNL     1       0.267  10.630  17.842  0.00  0.00    +0.000 HD
ENDROOT
BRANCH   9  13
ATOM     13  C   UNL     1       2.029   8.500  18.455  0.00  0.00    +0.000 C 
ATOM     14  N   UNL     1       2.468   9.004  17.333  0.00  0.00    +0.000 NA
ATOM     15  N   UNL     1       2.438   7.227  18.794  0.00  0.00    +0.000 N 
ATOM     16  C   UNL     1       3.315   6.415  17.964  0.00  0.00    +0.000 C 
ATOM     17  C   UNL     1       3.092   4.997  18.464  0.00  0.00    +0.000 C 
ATOM     18  C   UNL     1       1.860   4.321  17.882  0.00  0.00    +0.000 C 
ATOM     19  N   UNL     1       1.362   3.429  18.941  0.00  0.00    +0.000 NA
ATOM     20  C   UNL     1       1.794   2.050  18.735  0.00  0.00    +0.000 C 
ATOM     21  C   UNL     1       1.845   3.961  20.232  0.00  0.00    +0.000 C 
ATOM     22  C   UNL     1       2.736   5.159  19.930  0.00  0.00    +0.000 C 
ATOM     23  C   UNL     1       2.017   6.513  19.997  0.00  0.00    +0.000 C 
ATOM     24  H   UNL     1       2.175   9.971  17.208  0.00  0.00    +0.000 HD
ENDBRANCH   9  13
TORSDOF 1
ENDMDL
MODEL 2
REMARK VINA RESULT:      -7.7      6.343      9.456
REMARK  Name = 
REMARK  3 active torsions:
REMARK  status: ('A' for Active; 'I' for Inactive)
REMARK    1  A    between atoms: C_1  and  C_2
REMARK    2  A    between atoms: C_9  and  C_10
REMARK    3  A    between atoms: N_16  and  C_17
REMARK                            x       y       z     vdW  Elec       q    Type
REMARK                         _______ _______ _______ _____ _____    ______ ____
ROOT
ATOM      1  C   UNL     1       8.794   6.172  12.732  0.00  0.00    +0.000 C 
ATOM      2  C   UNL     1       7.682   5.170  12.759  0.00  0.00    +0.000 A 
ATOM      3  C   UNL     1       7.222   4.562  11.582  0.00  0.00    +0.000 A 
ATOM      4  F   UNL     1       7.787   4.883  10.408  0.00  0.00    +0.000 F 
ATOM      5  C   UNL     1       6.190   3.621  11.575  0.00  0.00    +0.000 A 
ATOM      6  C   UNL     1       5.561   3.234  12.759  0.00  0.00    +0.000 A 
ATOM      7  C   UNL     1       6.030   3.833  13.929  0.00  0.00    +0.000 A 
ATOM      8  N   UNL     1       5.668   3.691  15.243  0.00  0.00    +0.000 N 
ATOM      9  C   UNL     1       6.479   4.490  16.015  0.00  0.00    +0.000 A 
ATOM     10  N   UNL     1       7.297   5.185  15.245  0.00  0.00    +0.000 NA
ATOM     11  C   UNL     1       7.053   4.774  13.955  0.00  0.00    +0.000 A 
ATOM     12  H   UNL     1       4.919   3.114  15.594  0.00  0.00    +0.000 HD
ENDROOT
BRANCH   9  13
ATOM     13  C   UNL     1       6.430   4.591  17.478  0.00  0.00    +0.000 C 
ATOM     14  N   UNL     1       7.543   4.432  18.142  0.00  0.00    +0.000 NA
ATOM     15  N   UNL     1       5.280   4.839  18.197  0.00  0.00    +0.000 N 
ATOM     16  C   UNL     1       5.239   4.917  19.649  0.00  0.00    +0.000 C 
ATOM     17  C   UNL     1       3.773   4.713  19.992  0.00  0.00    +0.000 C 
ATOM     18  C   UNL     1       3.339   3.255  20.023  0.00  0.00    +0.000 C 
ATOM     19  N   UNL     1       1.937   3.251  19.577  0.00  0.00    +0.000 NA
ATOM     20  C   UNL     1       1.010   3.193  20.704  0.00  0.00    +0.000 C 
ATOM     21  C   UNL     1       1.727   4.465  18.763  0.00  0.00    +0.000 C 
ATOM     22  C   UNL     1       3.020   5.270  18.798  0.00  0.00    +0.000 C 
ATOM     23  C   UNL     1       3.954   5.014  17.609  0.00  0.00    +0.000 C 
ATOM     24  H   UNL     1       8.346   4.331  17.523  0.00  0.00    +0.000 HD
ENDBRANCH   9  13
TORSDOF 1
ENDMDL
MODEL 3
REMARK VINA RESULT:      -7.7      0.614      1.749
REMARK  Name = 
REMARK  3 active torsions:
REMARK  status: ('A' for Active; 'I' for Inactive)
REMARK    1  A    between atoms: C_1  and  C_2
REMARK    2  A    between atoms: C_9  and  C_10
REMARK    3  A    between atoms: N_16  and  C_17
REMARK                            x       y       z     vdW  Elec       q    Type
REMARK                         _______ _______ _______ _____ _____    ______ ____
ROOT
ATOM      1  C   UNL     1      -1.241  12.828  19.793  0.00  0.00    +0.000 C 
ATOM      2  C   UNL     1      -0.930  11.809  20.844  0.00  0.00    +0.000 A 
ATOM      3  C   UNL     1      -1.475  11.903  22.133  0.00  0.00    +0.000 A 
ATOM      4  F   UNL     1      -2.291  12.926  22.432  0.00  0.00    +0.000 F 
ATOM      5  C   UNL     1      -1.208  10.967  23.134  0.00  0.00    +0.000 A 
ATOM      6  C   UNL     1      -0.374   9.873  22.892  0.00  0.00    +0.000 A 
ATOM      7  C   UNL     1       0.157   9.778  21.605  0.00  0.00    +0.000 A 
ATOM      8  N   UNL     1       0.985   8.856  21.019  0.00  0.00    +0.000 N 
ATOM      9  C   UNL     1       1.177   9.207  19.702  0.00  0.00    +0.000 A 
ATOM     10  N   UNL     1       0.562  10.348  19.442  0.00  0.00    +0.000 NA
ATOM     11  C   UNL     1      -0.095  10.702  20.598  0.00  0.00    +0.000 A 
ATOM     12  H   UNL     1       1.406   8.061  21.474  0.00  0.00    +0.000 HD
ENDROOT
BRANCH   9  13
ATOM     13  C   UNL     1       1.974   8.453  18.728  0.00  0.00    +0.000 C 
ATOM     14  N   UNL     1       2.283   9.039  17.604  0.00  0.00    +0.000 NA
ATOM     15  N   UNL     1       2.411   7.160  18.924  0.00  0.00    +0.000 N 
ATOM     16  C   UNL     1       3.183   6.414  17.941  0.00  0.00    +0.000 C 
ATOM     17  C   UNL     1       3.011   4.962  18.357  0.00  0.00    +0.000 C 
ATOM     18  C   UNL     1       1.716   4.327  17.872  0.00  0.00    +0.000 C 
ATOM     19  N   UNL     1       1.338   3.358  18.913  0.00  0.00    +0.000 NA
ATOM     20  C   UNL     1       1.735   1.999  18.557  0.00  0.00    +0.000 C 
ATOM     21  C   UNL     1       1.968   3.795  20.175  0.00  0.00    +0.000 C 
ATOM     22  C   UNL     1       2.826   5.014  19.862  0.00  0.00    +0.000 C 
ATOM     23  C   UNL     1       2.127   6.357  20.111  0.00  0.00    +0.000 C 
ATOM     24  H   UNL     1       1.984  10.012  17.585  0.00  0.00    +0.000 HD
ENDBRANCH   9  13
TORSDOF 1
ENDMDL
MODEL 4
REMARK VINA RESULT:      -7.5      1.260      2.136
REMARK  Name = 
REMARK  3 active torsions:
REMARK  status: ('A' for Active; 'I' for Inactive)
REMARK    1  A    between atoms: C_1  and  C_2
REMARK    2  A    between atoms: C_9  and  C_10
REMARK    3  A    between atoms: N_16  and  C_17
REMARK                            x       y       z     vdW  Elec       q    Type
REMARK                         _______ _______ _______ _____ _____    ______ ____
ROOT
ATOM      1  C   UNL     1      -2.704  11.445  17.707  0.00  0.00    +0.000 C 
ATOM      2  C   UNL     1      -1.948  11.486  18.998  0.00  0.00    +0.000 A 
ATOM      3  C   UNL     1      -2.424  12.214  20.097  0.00  0.00    +0.000 A 
ATOM      4  F   UNL     1      -3.580  12.889  19.992  0.00  0.00    +0.000 F 
ATOM      5  C   UNL     1      -1.745  12.268  21.316  0.00  0.00    +0.000 A 
ATOM      6  C   UNL     1      -0.542  11.585  21.500  0.00  0.00    +0.000 A 
ATOM      7  C   UNL     1      -0.077  10.853  20.406  0.00  0.00    +0.000 A 
ATOM      8  N   UNL     1       1.034  10.070  20.230  0.00  0.00    +0.000 N 
ATOM      9  C   UNL     1       1.002   9.534  18.963  0.00  0.00    +0.000 A 
ATOM     10  N   UNL     1      -0.045   9.995  18.302  0.00  0.00    +0.000 NA
ATOM     11  C   UNL     1      -0.738  10.790  19.185  0.00  0.00    +0.000 A 
ATOM     12  H   UNL     1       1.769   9.920  20.905  0.00  0.00    +0.000 HD
ENDROOT
BRANCH   9  13
ATOM     13  C   UNL     1       1.997   8.613  18.404  0.00  0.00    +0.000 C 
ATOM     14  N   UNL     1       2.622   8.972  17.315  0.00  0.00    +0.000 NA
ATOM     15  N   UNL     1       2.310   7.387  18.952  0.00  0.00    +0.000 N 
ATOM     16  C   UNL     1       3.283   6.472  18.376  0.00  0.00    +0.000 C 
ATOM     17  C   UNL     1       2.943   5.127  18.997  0.00  0.00    +0.000 C 
ATOM     18  C   UNL     1       1.799   4.397  18.309  0.00  0.00    +0.000 C 
ATOM     19  N   UNL     1       1.115   3.645  19.373  0.00  0.00    +0.000 NA
ATOM     20  C   UNL     1       1.533   2.247  19.403  0.00  0.00    +0.000 C 
ATOM     21  C   UNL     1       1.402   4.326  20.652  0.00  0.00    +0.000 C 
ATOM     22  C   UNL     1       2.364   5.470  20.358  0.00  0.00    +0.000 C 
ATOM     23  C   UNL     1       1.684   6.828  20.148  0.00  0.00    +0.000 C 
ATOM     24  H   UNL     1       2.381   9.920  17.031  0.00  0.00    +0.000 HD
ENDBRANCH   9  13
TORSDOF 1
ENDMDL
MODEL 5
REMARK VINA RESULT:      -7.4      2.144      3.344
REMARK  Name = 
REMARK  3 active torsions:
REMARK  status: ('A' for Active; 'I' for Inactive)
REMARK    1  A    between atoms: C_1  and  C_2
REMARK    2  A    between atoms: C_9  and  C_10
REMARK    3  A    between atoms: N_16  and  C_17
REMARK                            x       y       z     vdW  Elec       q    Type
REMARK                         _______ _______ _______ _____ _____    ______ ____
ROOT
ATOM      1  C   UNL     1      -0.385   9.813  22.934  0.00  0.00    +0.000 C 
ATOM      2  C   UNL     1       0.114  10.039  21.542  0.00  0.00    +0.000 A 
ATOM      3  C   UNL     1      -0.078  11.266  20.890  0.00  0.00    +0.000 A 
ATOM      4  F   UNL     1      -0.721  12.258  21.527  0.00  0.00    +0.000 F 
ATOM      5  C   UNL     1       0.379  11.510  19.594  0.00  0.00    +0.000 A 
ATOM      6  C   UNL     1       1.062  10.527  18.875  0.00  0.00    +0.000 A 
ATOM      7  C   UNL     1       1.260   9.312  19.531  0.00  0.00    +0.000 A 
ATOM      8  N   UNL     1       1.884   8.152  19.149  0.00  0.00    +0.000 N 
ATOM      9  C   UNL     1       1.836   7.258  20.194  0.00  0.00    +0.000 A 
ATOM     10  N   UNL     1       1.150   7.773  21.200  0.00  0.00    +0.000 NA
ATOM     11  C   UNL     1       0.810   9.050  20.820  0.00  0.00    +0.000 A 
ATOM     12  H   UNL     1       2.295   7.968  18.247  0.00  0.00    +0.000 HD
ENDROOT
BRANCH   9  13
ATOM     13  C   UNL     1       2.424   5.914  20.191  0.00  0.00    +0.000 C 
ATOM     14  N   UNL     1       2.311   5.194  21.274  0.00  0.00    +0.000 NA
ATOM     15  N   UNL     1       3.095   5.367  19.118  0.00  0.00    +0.000 N 
ATOM     16  C   UNL     1       3.693   4.041  19.134  0.00  0.00    +0.000 C 
ATOM     17  C   UNL     1       4.693   4.069  17.990  0.00  0.00    +0.000 C 
ATOM     18  C   UNL     1       6.025   4.711  18.346  0.00  0.00    +0.000 C 
ATOM     19  N   UNL     1       6.496   5.354  17.109  0.00  0.00    +0.000 NA
ATOM     20  C   UNL     1       7.473   4.527  16.407  0.00  0.00    +0.000 C 
ATOM     21  C   UNL     1       5.310   5.623  16.270  0.00  0.00    +0.000 C 
ATOM     22  C   UNL     1       4.099   5.041  16.987  0.00  0.00    +0.000 C 
ATOM     23  C   UNL     1       3.330   6.050  17.849  0.00  0.00    +0.000 C 
ATOM     24  H   UNL     1       1.736   5.651  21.979  0.00  0.00    +0.000 HD
ENDBRANCH   9  13
TORSDOF 1
ENDMDL
MODEL 6
REMARK VINA RESULT:      -7.3      2.916      7.276
REMARK  Name = 
REMARK  3 active torsions:
REMARK  status: ('A' for Active; 'I' for Inactive)
REMARK    1  A    between atoms: C_1  and  C_2
REMARK    2  A    between atoms: C_9  and  C_10
REMARK    3  A    between atoms: N_16  and  C_17
REMARK                            x       y       z     vdW  Elec       q    Type
REMARK                         _______ _______ _______ _____ _____    ______ ____
ROOT
ATOM      1  C   UNL     1       2.559   3.266  17.132  0.00  0.00    +0.000 C 
ATOM      2  C   UNL     1       2.473   3.730  18.552  0.00  0.00    +0.000 A 
ATOM      3  C   UNL     1       2.537   2.822  19.619  0.00  0.00    +0.000 A 
ATOM      4  F   UNL     1       2.679   1.512  19.363  0.00  0.00    +0.000 F 
ATOM      5  C   UNL     1       2.464   3.223  20.955  0.00  0.00    +0.000 A 
ATOM      6  C   UNL     1       2.325   4.569  21.295  0.00  0.00    +0.000 A 
ATOM      7  C   UNL     1       2.272   5.470  20.230  0.00  0.00    +0.000 A 
ATOM      8  N   UNL     1       2.154   6.835  20.187  0.00  0.00    +0.000 N 
ATOM      9  C   UNL     1       2.193   7.242  18.873  0.00  0.00    +0.000 A 
ATOM     10  N   UNL     1       2.263   6.190  18.075  0.00  0.00    +0.000 NA
ATOM     11  C   UNL     1       2.340   5.089  18.895  0.00  0.00    +0.000 A 
ATOM     12  H   UNL     1       2.037   7.447  20.980  0.00  0.00    +0.000 HD
ENDROOT
BRANCH   9  13
ATOM     13  C   UNL     1       2.131   8.632  18.410  0.00  0.00    +0.000 C 
ATOM     14  N   UNL     1       3.002   9.022  17.520  0.00  0.00    +0.000 NA
ATOM     15  N   UNL     1       1.212   9.556  18.863  0.00  0.00    +0.000 N 
ATOM     16  C   UNL     1       1.174  10.939  18.413  0.00  0.00    +0.000 C 
ATOM     17  C   UNL     1       0.377  11.659  19.488  0.00  0.00    +0.000 C 
ATOM     18  C   UNL     1       1.193  12.044  20.712  0.00  0.00    +0.000 C 
ATOM     19  N   UNL     1       0.263  11.961  21.850  0.00  0.00    +0.000 NA
ATOM     20  C   UNL     1      -0.265  13.272  22.215  0.00  0.00    +0.000 C 
ATOM     21  C   UNL     1      -0.817  11.027  21.472  0.00  0.00    +0.000 C 
ATOM     22  C   UNL     1      -0.575  10.607  20.027  0.00  0.00    +0.000 C 
ATOM     23  C   UNL     1       0.193   9.288  19.874  0.00  0.00    +0.000 C 
ATOM     24  H   UNL     1       3.584   8.254  17.193  0.00  0.00    +0.000 HD
ENDBRANCH   9  13
TORSDOF 1
ENDMDL
MODEL 7
REMARK VINA RESULT:      -7.1      3.068      7.210
REMARK  Name = 
REMARK  3 active torsions:
REMARK  status: ('A' for Active; 'I' for Inactive)
REMARK    1  A    between atoms: C_1  and  C_2
REMARK    2  A    between atoms: C_9  and  C_10
REMARK    3  A    between atoms: N_16  and  C_17
REMARK                            x       y       z     vdW  Elec       q    Type
REMARK                         _______ _______ _______ _____ _____    ______ ____
ROOT
ATOM      1  C   UNL     1       1.431   2.835  21.203  0.00  0.00    +0.000 C 
ATOM      2  C   UNL     1       2.050   3.500  20.013  0.00  0.00    +0.000 A 
ATOM      3  C   UNL     1       2.582   2.749  18.955  0.00  0.00    +0.000 A 
ATOM      4  F   UNL     1       2.537   1.408  19.009  0.00  0.00    +0.000 F 
ATOM      5  C   UNL     1       3.162   3.338  17.830  0.00  0.00    +0.000 A 
ATOM      6  C   UNL     1       3.236   4.727  17.703  0.00  0.00    +0.000 A 
ATOM      7  C   UNL     1       2.695   5.470  18.753  0.00  0.00    +0.000 A 
ATOM      8  N   UNL     1       2.583   6.820  18.960  0.00  0.00    +0.000 N 
ATOM      9  C   UNL     1       1.926   7.032  20.150  0.00  0.00    +0.000 A 
ATOM     10  N   UNL     1       1.674   5.878  20.742  0.00  0.00    +0.000 NA
ATOM     11  C   UNL     1       2.118   4.900  19.881  0.00  0.00    +0.000 A 
ATOM     12  H   UNL     1       2.939   7.546  18.357  0.00  0.00    +0.000 HD
ENDROOT
BRANCH   9  13
ATOM     13  C   UNL     1       1.580   8.344  20.709  0.00  0.00    +0.000 C 
ATOM     14  N   UNL     1       1.833   8.559  21.972  0.00  0.00    +0.000 NA
ATOM     15  N   UNL     1       0.998   9.363  19.985  0.00  0.00    +0.000 N 
ATOM     16  C   UNL     1       0.640  10.653  20.556  0.00  0.00    +0.000 C 
ATOM     17  C   UNL     1      -0.367  11.228  19.574  0.00  0.00    +0.000 C 
ATOM     18  C   UNL     1      -1.785  10.711  19.765  0.00  0.00    +0.000 C 
ATOM     19  N   UNL     1      -2.380  10.683  18.419  0.00  0.00    +0.000 NA
ATOM     20  C   UNL     1      -3.210  11.857  18.169  0.00  0.00    +0.000 C 
ATOM     21  C   UNL     1      -1.272  10.583  17.447  0.00  0.00    +0.000 C 
ATOM     22  C   UNL     1       0.033  10.645  18.231  0.00  0.00    +0.000 C 
ATOM     23  C   UNL     1       0.627   9.274  18.575  0.00  0.00    +0.000 C 
ATOM     24  H   UNL     1       2.331   7.780  22.400  0.00  0.00    +0.000 HD
ENDBRANCH   9  13
TORSDOF 1
ENDMDL
MODEL 8
REMARK VINA RESULT:      -7.1      2.962      7.358
REMARK  Name = 
REMARK  3 active torsions:
REMARK  status: ('A' for Active; 'I' for Inactive)
REMARK    1  A    between atoms: C_1  and  C_2
REMARK    2  A    between atoms: C_9  and  C_10
REMARK    3  A    between atoms: N_16  and  C_17
REMARK                            x       y       z     vdW  Elec       q    Type
REMARK                         _______ _______ _______ _____ _____    ______ ____
ROOT
ATOM      1  C   UNL     1       4.485   5.518  16.780  0.00  0.00    +0.000 C 
ATOM      2  C   UNL     1       3.704   5.546  18.057  0.00  0.00    +0.000 A 
ATOM      3  C   UNL     1       3.695   4.447  18.928  0.00  0.00    +0.000 A 
ATOM      4  F   UNL     1       4.399   3.349  18.613  0.00  0.00    +0.000 F 
ATOM      5  C   UNL     1       2.981   4.444  20.128  0.00  0.00    +0.000 A 
ATOM      6  C   UNL     1       2.233   5.555  20.523  0.00  0.00    +0.000 A 
ATOM      7  C   UNL     1       2.254   6.649  19.658  0.00  0.00    +0.000 A 
ATOM      8  N   UNL     1       1.662   7.884  19.724  0.00  0.00    +0.000 N 
ATOM      9  C   UNL     1       2.039   8.615  18.622  0.00  0.00    +0.000 A 
ATOM     10  N   UNL     1       2.790   7.878  17.823  0.00  0.00    +0.000 NA
ATOM     11  C   UNL     1       2.956   6.669  18.459  0.00  0.00    +0.000 A 
ATOM     12  H   UNL     1       1.036   8.205  20.447  0.00  0.00    +0.000 HD
ENDROOT
BRANCH   9  13
ATOM     13  C   UNL     1       1.642  10.000  18.343  0.00  0.00    +0.000 C 
ATOM     14  N   UNL     1       2.269  10.638  17.392  0.00  0.00    +0.000 NA
ATOM     15  N   UNL     1       0.652  10.672  19.028  0.00  0.00    +0.000 N 
ATOM     16  C   UNL     1       0.282  12.053  18.757  0.00  0.00    +0.000 C 
ATOM     17  C   UNL     1      -0.452  12.495  20.013  0.00  0.00    +0.000 C 
ATOM     18  C   UNL     1       0.465  12.927  21.147  0.00  0.00    +0.000 C 
ATOM     19  N   UNL     1      -0.237  12.554  22.386  0.00  0.00    +0.000 NA
ATOM     20  C   UNL     1      -0.936  13.691  22.976  0.00  0.00    +0.000 C 
ATOM     21  C   UNL     1      -1.169  11.456  22.054  0.00  0.00    +0.000 C 
ATOM     22  C   UNL     1      -1.089  11.227  20.550  0.00  0.00    +0.000 C 
ATOM     23  C   UNL     1      -0.122  10.112  20.132  0.00  0.00    +0.000 C 
ATOM     24  H   UNL     1       2.925  10.037  16.896  0.00  0.00    +0.000 HD
ENDBRANCH   9  13
TORSDOF 1
ENDMDL
MODEL 9
REMARK VINA RESULT:      -7.0      2.318      3.856
REMARK  Name = 
REMARK  3 active torsions:
REMARK  status: ('A' for Active; 'I' for Inactive)
REMARK    1  A    between atoms: C_1  and  C_2
REMARK    2  A    between atoms: C_9  and  C_10
REMARK    3  A    between atoms: N_16  and  C_17
REMARK                            x       y       z     vdW  Elec       q    Type
REMARK                         _______ _______ _______ _____ _____    ______ ____
ROOT
ATOM      1  C   UNL     1       1.619  10.622  18.156  0.00  0.00    +0.000 C 
ATOM      2  C   UNL     1       1.097  10.245  19.507  0.00  0.00    +0.000 A 
ATOM      3  C   UNL     1       0.342  11.145  20.272  0.00  0.00    +0.000 A 
ATOM      4  F   UNL     1       0.080  12.369  19.785  0.00  0.00    +0.000 F 
ATOM      5  C   UNL     1      -0.163  10.823  21.533  0.00  0.00    +0.000 A 
ATOM      6  C   UNL     1       0.062   9.566  22.098  0.00  0.00    +0.000 A 
ATOM      7  C   UNL     1       0.805   8.670  21.328  0.00  0.00    +0.000 A 
ATOM      8  N   UNL     1       1.203   7.377  21.551  0.00  0.00    +0.000 N 
ATOM      9  C   UNL     1       1.888   6.928  20.446  0.00  0.00    +0.000 A 
ATOM     10  N   UNL     1       2.004   7.900  19.558  0.00  0.00    +0.000 NA
ATOM     11  C   UNL     1       1.318   8.975  20.073  0.00  0.00    +0.000 A 
ATOM     12  H   UNL     1       1.041   6.842  22.390  0.00  0.00    +0.000 HD
ENDROOT
BRANCH   9  13
ATOM     13  C   UNL     1       2.447   5.582  20.281  0.00  0.00    +0.000 C 
ATOM     14  N   UNL     1       2.337   4.745  21.277  0.00  0.00    +0.000 NA
ATOM     15  N   UNL     1       3.087   5.146  19.139  0.00  0.00    +0.000 N 
ATOM     16  C   UNL     1       3.656   3.815  18.994  0.00  0.00    +0.000 C 
ATOM     17  C   UNL     1       4.637   3.954  17.841  0.00  0.00    +0.000 C 
ATOM     18  C   UNL     1       5.988   4.525  18.241  0.00  0.00    +0.000 C 
ATOM     19  N   UNL     1       6.452   5.295  17.075  0.00  0.00    +0.000 NA
ATOM     20  C   UNL     1       7.399   4.534  16.265  0.00  0.00    +0.000 C 
ATOM     21  C   UNL     1       5.258   5.681  16.296  0.00  0.00    +0.000 C 
ATOM     22  C   UNL     1       4.047   5.044  16.966  0.00  0.00    +0.000 C 
ATOM     23  C   UNL     1       3.315   5.965  17.951  0.00  0.00    +0.000 C 
ATOM     24  H   UNL     1       1.785   5.130  22.041  0.00  0.00    +0.000 HD
ENDBRANCH   9  13
TORSDOF 1
ENDMDL
