MODEL 1
REMARK VINA RESULT:      -7.9      0.000      0.000
REMARK  Name = 
REMARK  6 active torsions:
REMARK  status: ('A' for Active; 'I' for Inactive)
REMARK    1  A    between atoms: C_1  and  C_2
REMARK    2  A    between atoms: C_4  and  C_5
REMARK    3  A    between atoms: C_5  and  C_6
REMARK    4  A    between atoms: C_6  and  O_8
REMARK    5  A    between atoms: C_10  and  C_11
REMARK    6  A    between atoms: C_11  and  C_12
REMARK                            x       y       z     vdW  Elec       q    Type
REMARK                         _______ _______ _______ _____ _____    ______ ____
ROOT
ATOM      1  C   UNL     1       2.698   8.760  18.227  0.00  0.00    +0.000 C 
ENDROOT
BRANCH   1   2
ATOM      2  C   UNL     1       2.763   7.267  18.091  0.00  0.00    +0.000 A 
ATOM      3  N   UNL     1       1.930   6.435  18.681  0.00  0.00    +0.000 NA
ATOM      4  C   UNL     1       2.358   5.124  18.515  0.00  0.00    +0.000 A 
ATOM      5  C   UNL     1       1.767   3.966  19.065  0.00  0.00    +0.000 A 
ATOM      6  F   UNL     1       0.680   4.063  19.847  0.00  0.00    +0.000 F 
ATOM      7  C   UNL     1       2.330   2.715  18.821  0.00  0.00    +0.000 A 
ATOM      8  F   UNL     1       1.781   1.618  19.363  0.00  0.00    +0.000 F 
ATOM      9  C   UNL     1       3.464   2.580  18.037  0.00  0.00    +0.000 A 
ATOM     10  C   UNL     1       4.063   3.712  17.491  0.00  0.00    +0.000 A 
ATOM     11  F   UNL     1       5.174   3.574  16.755  0.00  0.00    +0.000 F 
ATOM     12  C   UNL     1       3.511   4.977  17.738  0.00  0.00    +0.000 A 
ATOM     13  S   UNL     1       4.054   6.529  17.232  0.00  0.00    +0.000 S 
ENDBRANCH   1   2
BRANCH   1  19
ATOM     14  C   UNL     1      -1.981  10.133  16.956  0.00  0.00    +0.000 C 
ATOM     15  C   UNL     1      -0.926   9.968  18.013  0.00  0.00    +0.000 A 
ATOM     16  C   UNL     1      -1.157  10.355  19.343  0.00  0.00    +0.000 A 
ATOM     17  C   UNL     1      -0.155  10.224  20.314  0.00  0.00    +0.000 A 
ATOM     18  C   UNL     1       1.090   9.693  19.935  0.00  0.00    +0.000 A 
ATOM     19  C   UNL     1       1.337   9.300  18.608  0.00  0.00    +0.000 A 
ATOM     20  C   UNL     1       0.319   9.433  17.657  0.00  0.00    +0.000 A 
BRANCH  17  21
ATOM     21  C   UNL     1      -0.415  10.615  21.755  0.00  0.00    +0.000 C 
BRANCH  21  22
ATOM     22  C   UNL     1      -0.195   9.536  22.804  0.00  0.00    +0.000 C 
ATOM     23  O   UNL     1       0.523   9.703  23.784  0.00  0.00    +0.000 OA
BRANCH  22  24
ATOM     24  O   UNL     1      -0.909   8.404  22.618  0.00  0.00    +0.000 OA
ATOM     25  H   UNL     1      -0.731   7.720  23.290  0.00  0.00    +0.000 HD
ENDBRANCH  22  24
ENDBRANCH  21  22
ENDBRANCH  17  21
ENDBRANCH   1  19
TORSDOF 5
ENDMDL
MODEL 2
REMARK VINA RESULT:      -7.8      1.119      2.059
REMARK  Name = 
REMARK  6 active torsions:
REMARK  status: ('A' for Active; 'I' for Inactive)
REMARK    1  A    between atoms: C_1  and  C_2
REMARK    2  A    between atoms: C_4  and  C_5
REMARK    3  A    between atoms: C_5  and  C_6
REMARK    4  A    between atoms: C_6  and  O_8
REMARK    5  A    between atoms: C_10  and  C_11
REMARK    6  A    between atoms: C_11  and  C_12
REMARK                            x       y       z     vdW  Elec       q    Type
REMARK                         _______ _______ _______ _____ _____    ______ ____
ROOT
ATOM      1  C   UNL     1       2.484   8.639  18.197  0.00  0.00    +0.000 C 
ENDROOT
BRANCH   1   2
ATOM      2  C   UNL     1       2.623   7.191  18.565  0.00  0.00    +0.000 A 
ATOM      3  N   UNL     1       3.119   6.271  17.765  0.00  0.00    +0.000 NA
ATOM      4  C   UNL     1       2.945   5.008  18.316  0.00  0.00    +0.000 A 
ATOM      5  C   UNL     1       3.280   3.772  17.720  0.00  0.00    +0.000 A 
ATOM      6  F   UNL     1       3.822   3.734  16.493  0.00  0.00    +0.000 F 
ATOM      7  C   UNL     1       3.023   2.581  18.397  0.00  0.00    +0.000 A 
ATOM      8  F   UNL     1       3.321   1.408  17.820  0.00  0.00    +0.000 F 
ATOM      9  C   UNL     1       2.445   2.582  19.655  0.00  0.00    +0.000 A 
ATOM     10  C   UNL     1       2.103   3.791  20.255  0.00  0.00    +0.000 A 
ATOM     11  F   UNL     1       1.521   3.781  21.463  0.00  0.00    +0.000 F 
ATOM     12  C   UNL     1       2.348   4.995  19.580  0.00  0.00    +0.000 A 
ATOM     13  S   UNL     1       1.999   6.612  20.056  0.00  0.00    +0.000 S 
ENDBRANCH   1   2
BRANCH   1  19
ATOM     14  C   UNL     1      -2.109  10.382  17.075  0.00  0.00    +0.000 C 
ATOM     15  C   UNL     1      -1.040  10.123  18.099  0.00  0.00    +0.000 A 
ATOM     16  C   UNL     1      -1.204  10.510  19.439  0.00  0.00    +0.000 A 
ATOM     17  C   UNL     1      -0.189  10.291  20.380  0.00  0.00    +0.000 A 
ATOM     18  C   UNL     1       1.001   9.671  19.959  0.00  0.00    +0.000 A 
ATOM     19  C   UNL     1       1.180   9.277  18.622  0.00  0.00    +0.000 A 
ATOM     20  C   UNL     1       0.149   9.499  17.702  0.00  0.00    +0.000 A 
BRANCH  17  21
ATOM     21  C   UNL     1      -0.378  10.682  21.831  0.00  0.00    +0.000 C 
BRANCH  21  22
ATOM     22  C   UNL     1      -0.160   9.588  22.866  0.00  0.00    +0.000 C 
ATOM     23  O   UNL     1       0.600   9.722  23.819  0.00  0.00    +0.000 OA
BRANCH  22  24
ATOM     24  O   UNL     1      -0.923   8.486  22.701  0.00  0.00    +0.000 OA
ATOM     25  H   UNL     1      -1.865   8.633  22.909  0.00  0.00    +0.000 HD
ENDBRANCH  22  24
ENDBRANCH  21  22
ENDBRANCH  17  21
ENDBRANCH   1  19
TORSDOF 5
ENDMDL
MODEL 3
REMARK VINA RESULT:      -7.7      0.924      1.127
REMARK  Name = 
REMARK  6 active torsions:
REMARK  status: ('A' for Active; 'I' for Inactive)
REMARK    1  A    between atoms: C_1  and  C_2
REMARK    2  A    between atoms: C_4  and  C_5
REMARK    3  A    between atoms: C_5  and  C_6
REMARK    4  A    between atoms: C_6  and  O_8
REMARK    5  A    between atoms: C_10  and  C_11
REMARK    6  A    between atoms: C_11  and  C_12
REMARK                            x       y       z     vdW  Elec       q    Type
REMARK                         _______ _______ _______ _____ _____    ______ ____
ROOT
ATOM      1  C   UNL     1       2.496   8.735  17.781  0.00  0.00    +0.000 C 
ENDROOT
BRANCH   1   2
ATOM      2  C   UNL     1       2.740   7.305  18.166  0.00  0.00    +0.000 A 
ATOM      3  N   UNL     1       1.912   6.585  18.893  0.00  0.00    +0.000 NA
ATOM      4  C   UNL     1       2.498   5.372  19.232  0.00  0.00    +0.000 A 
ATOM      5  C   UNL     1       1.948   4.371  20.063  0.00  0.00    +0.000 A 
ATOM      6  F   UNL     1       0.740   4.541  20.623  0.00  0.00    +0.000 F 
ATOM      7  C   UNL     1       2.673   3.211  20.327  0.00  0.00    +0.000 A 
ATOM      8  F   UNL     1       2.159   2.271  21.133  0.00  0.00    +0.000 F 
ATOM      9  C   UNL     1       3.931   3.012  19.782  0.00  0.00    +0.000 A 
ATOM     10  C   UNL     1       4.491   3.991  18.967  0.00  0.00    +0.000 A 
ATOM     11  F   UNL     1       5.719   3.802  18.465  0.00  0.00    +0.000 F 
ATOM     12  C   UNL     1       3.775   5.168  18.702  0.00  0.00    +0.000 A 
ATOM     13  S   UNL     1       4.228   6.544  17.774  0.00  0.00    +0.000 S 
ENDBRANCH   1   2
BRANCH   1  19
ATOM     14  C   UNL     1      -2.227  10.355  17.099  0.00  0.00    +0.000 C 
ATOM     15  C   UNL     1      -1.065  10.113  18.021  0.00  0.00    +0.000 A 
ATOM     16  C   UNL     1      -1.121  10.474  19.376  0.00  0.00    +0.000 A 
ATOM     17  C   UNL     1      -0.020  10.271  20.220  0.00  0.00    +0.000 A 
ATOM     18  C   UNL     1       1.145   9.694  19.686  0.00  0.00    +0.000 A 
ATOM     19  C   UNL     1       1.216   9.326  18.331  0.00  0.00    +0.000 A 
ATOM     20  C   UNL     1       0.102   9.532  17.509  0.00  0.00    +0.000 A 
BRANCH  17  21
ATOM     21  C   UNL     1      -0.092  10.634  21.690  0.00  0.00    +0.000 C 
BRANCH  21  22
ATOM     22  C   UNL     1      -0.221   9.479  22.671  0.00  0.00    +0.000 C 
ATOM     23  O   UNL     1      -0.781   8.427  22.383  0.00  0.00    +0.000 OA
BRANCH  22  24
ATOM     24  O   UNL     1       0.394   9.668  23.859  0.00  0.00    +0.000 OA
ATOM     25  H   UNL     1      -0.214   9.952  24.567  0.00  0.00    +0.000 HD
ENDBRANCH  22  24
ENDBRANCH  21  22
ENDBRANCH  17  21
ENDBRANCH   1  19
TORSDOF 5
ENDMDL
MODEL 4
REMARK VINA RESULT:      -7.5      1.516      2.359
REMARK  Name = 
REMARK  6 active torsions:
REMARK  status: ('A' for Active; 'I' for Inactive)
REMARK    1  A    between atoms: C_1  and  C_2
REMARK    2  A    between atoms: C_4  and  C_5
REMARK    3  A    between atoms: C_5  and  C_6
REMARK    4  A    between atoms: C_6  and  O_8
REMARK    5  A    between atoms: C_10  and  C_11
REMARK    6  A    between atoms: C_11  and  C_12
REMARK                            x       y       z     vdW  Elec       q    Type
REMARK                         _______ _______ _______ _____ _____    ______ ____
ROOT
ATOM      1  C   UNL     1       2.143   9.393  17.912  0.00  0.00    +0.000 C 
ENDROOT
BRANCH   1   2
ATOM      2  C   UNL     1       2.513   8.010  18.363  0.00  0.00    +0.000 A 
ATOM      3  N   UNL     1       3.143   7.133  17.610  0.00  0.00    +0.000 NA
ATOM      4  C   UNL     1       3.176   5.894  18.237  0.00  0.00    +0.000 A 
ATOM      5  C   UNL     1       3.699   4.694  17.709  0.00  0.00    +0.000 A 
ATOM      6  F   UNL     1       4.232   4.668  16.477  0.00  0.00    +0.000 F 
ATOM      7  C   UNL     1       3.640   3.520  18.458  0.00  0.00    +0.000 A 
ATOM      8  F   UNL     1       4.117   2.376  17.947  0.00  0.00    +0.000 F 
ATOM      9  C   UNL     1       3.079   3.506  19.725  0.00  0.00    +0.000 A 
ATOM     10  C   UNL     1       2.553   4.679  20.257  0.00  0.00    +0.000 A 
ATOM     11  F   UNL     1       1.989   4.651  21.474  0.00  0.00    +0.000 F 
ATOM     12  C   UNL     1       2.598   5.864  19.509  0.00  0.00    +0.000 A 
ATOM     13  S   UNL     1       2.000   7.431  19.895  0.00  0.00    +0.000 S 
ENDBRANCH   1   2
BRANCH   1  19
ATOM     14  C   UNL     1      -2.837  10.095  17.600  0.00  0.00    +0.000 C 
ATOM     15  C   UNL     1      -1.554  10.270  18.361  0.00  0.00    +0.000 A 
ATOM     16  C   UNL     1      -1.517  10.964  19.581  0.00  0.00    +0.000 A 
ATOM     17  C   UNL     1      -0.309  11.148  20.268  0.00  0.00    +0.000 A 
ATOM     18  C   UNL     1       0.870  10.619  19.714  0.00  0.00    +0.000 A 
ATOM     19  C   UNL     1       0.850   9.922  18.494  0.00  0.00    +0.000 A 
ATOM     20  C   UNL     1      -0.369   9.745  17.830  0.00  0.00    +0.000 A 
BRANCH  17  21
ATOM     21  C   UNL     1      -0.275  11.871  21.598  0.00  0.00    +0.000 C 
BRANCH  21  22
ATOM     22  C   UNL     1      -0.796  11.104  22.804  0.00  0.00    +0.000 C 
ATOM     23  O   UNL     1      -0.108  10.298  23.422  0.00  0.00    +0.000 OA
BRANCH  22  24
ATOM     24  O   UNL     1      -2.047  11.431  23.192  0.00  0.00    +0.000 OA
ATOM     25  H   UNL     1      -2.439  10.790  23.814  0.00  0.00    +0.000 HD
ENDBRANCH  22  24
ENDBRANCH  21  22
ENDBRANCH  17  21
ENDBRANCH   1  19
TORSDOF 5
ENDMDL
MODEL 5
REMARK VINA RESULT:      -7.5      1.953      3.034
REMARK  Name = 
REMARK  6 active torsions:
REMARK  status: ('A' for Active; 'I' for Inactive)
REMARK    1  A    between atoms: C_1  and  C_2
REMARK    2  A    between atoms: C_4  and  C_5
REMARK    3  A    between atoms: C_5  and  C_6
REMARK    4  A    between atoms: C_6  and  O_8
REMARK    5  A    between atoms: C_10  and  C_11
REMARK    6  A    between atoms: C_11  and  C_12
REMARK                            x       y       z     vdW  Elec       q    Type
REMARK                         _______ _______ _______ _____ _____    ______ ____
ROOT
ATOM      1  C   UNL     1       2.813   8.526  18.070  0.00  0.00    +0.000 C 
ENDROOT
BRANCH   1   2
ATOM      2  C   UNL     1       2.845   7.030  17.953  0.00  0.00    +0.000 A 
ATOM      3  N   UNL     1       1.977   6.226  18.529  0.00  0.00    +0.000 NA
ATOM      4  C   UNL     1       2.377   4.903  18.389  0.00  0.00    +0.000 A 
ATOM      5  C   UNL     1       1.743   3.766  18.936  0.00  0.00    +0.000 A 
ATOM      6  F   UNL     1       0.637   3.899  19.685  0.00  0.00    +0.000 F 
ATOM      7  C   UNL     1       2.281   2.499  18.722  0.00  0.00    +0.000 A 
ATOM      8  F   UNL     1       1.691   1.423  19.260  0.00  0.00    +0.000 F 
ATOM      9  C   UNL     1       3.433   2.327  17.971  0.00  0.00    +0.000 A 
ATOM     10  C   UNL     1       4.074   3.438  17.430  0.00  0.00    +0.000 A 
ATOM     11  F   UNL     1       5.202   3.264  16.727  0.00  0.00    +0.000 F 
ATOM     12  C   UNL     1       3.547   4.719  17.647  0.00  0.00    +0.000 A 
ATOM     13  S   UNL     1       4.141   6.252  17.139  0.00  0.00    +0.000 S 
ENDBRANCH   1   2
BRANCH   1  19
ATOM     14  C   UNL     1       0.076   9.164  22.253  0.00  0.00    +0.000 C 
ATOM     15  C   UNL     1       0.255   9.395  20.779  0.00  0.00    +0.000 A 
ATOM     16  C   UNL     1      -0.716  10.070  20.023  0.00  0.00    +0.000 A 
ATOM     17  C   UNL     1      -0.553  10.254  18.642  0.00  0.00    +0.000 A 
ATOM     18  C   UNL     1       0.608   9.754  18.026  0.00  0.00    +0.000 A 
ATOM     19  C   UNL     1       1.590   9.077  18.770  0.00  0.00    +0.000 A 
ATOM     20  C   UNL     1       1.408   8.912  20.148  0.00  0.00    +0.000 A 
BRANCH  17  21
ATOM     21  C   UNL     1      -1.588  11.006  17.832  0.00  0.00    +0.000 C 
BRANCH  21  22
ATOM     22  C   UNL     1      -2.523  10.168  16.974  0.00  0.00    +0.000 C 
ATOM     23  O   UNL     1      -2.472  10.168  15.748  0.00  0.00    +0.000 OA
BRANCH  22  24
ATOM     24  O   UNL     1      -3.363   9.365  17.661  0.00  0.00    +0.000 OA
ATOM     25  H   UNL     1      -3.690   8.610  17.137  0.00  0.00    +0.000 HD
ENDBRANCH  22  24
ENDBRANCH  21  22
ENDBRANCH  17  21
ENDBRANCH   1  19
TORSDOF 5
ENDMDL
MODEL 6
REMARK VINA RESULT:      -7.5      2.585      3.490
REMARK  Name = 
REMARK  6 active torsions:
REMARK  status: ('A' for Active; 'I' for Inactive)
REMARK    1  A    between atoms: C_1  and  C_2
REMARK    2  A    between atoms: C_4  and  C_5
REMARK    3  A    between atoms: C_5  and  C_6
REMARK    4  A    between atoms: C_6  and  O_8
REMARK    5  A    between atoms: C_10  and  C_11
REMARK    6  A    between atoms: C_11  and  C_12
REMARK                            x       y       z     vdW  Elec       q    Type
REMARK                         _______ _______ _______ _____ _____    ______ ____
ROOT
ATOM      1  C   UNL     1       2.413   9.243  17.834  0.00  0.00    +0.000 C 
ENDROOT
BRANCH   1   2
ATOM      2  C   UNL     1       2.686   7.803  18.159  0.00  0.00    +0.000 A 
ATOM      3  N   UNL     1       2.012   7.108  19.051  0.00  0.00    +0.000 NA
ATOM      4  C   UNL     1       2.615   5.874  19.257  0.00  0.00    +0.000 A 
ATOM      5  C   UNL     1       2.226   4.888  20.190  0.00  0.00    +0.000 A 
ATOM      6  F   UNL     1       1.176   5.096  21.000  0.00  0.00    +0.000 F 
ATOM      7  C   UNL     1       2.950   3.702  20.292  0.00  0.00    +0.000 A 
ATOM      8  F   UNL     1       2.592   2.777  21.193  0.00  0.00    +0.000 F 
ATOM      9  C   UNL     1       4.052   3.464  19.486  0.00  0.00    +0.000 A 
ATOM     10  C   UNL     1       4.453   4.427  18.566  0.00  0.00    +0.000 A 
ATOM     11  F   UNL     1       5.535   4.199  17.809  0.00  0.00    +0.000 F 
ATOM     12  C   UNL     1       3.738   5.629  18.461  0.00  0.00    +0.000 A 
ATOM     13  S   UNL     1       4.026   6.994  17.453  0.00  0.00    +0.000 S 
ENDBRANCH   1   2
BRANCH   1  19
ATOM     14  C   UNL     1      -0.235  11.595  21.418  0.00  0.00    +0.000 C 
ATOM     15  C   UNL     1      -0.197  10.904  20.085  0.00  0.00    +0.000 A 
ATOM     16  C   UNL     1      -1.367  10.690  19.340  0.00  0.00    +0.000 A 
ATOM     17  C   UNL     1      -1.324  10.017  18.110  0.00  0.00    +0.000 A 
ATOM     18  C   UNL     1      -0.083   9.563  17.631  0.00  0.00    +0.000 A 
ATOM     19  C   UNL     1       1.098   9.771  18.365  0.00  0.00    +0.000 A 
ATOM     20  C   UNL     1       1.031  10.451  19.586  0.00  0.00    +0.000 A 
BRANCH  17  21
ATOM     21  C   UNL     1      -2.583   9.812  17.294  0.00  0.00    +0.000 C 
BRANCH  21  22
ATOM     22  C   UNL     1      -2.907  10.880  16.261  0.00  0.00    +0.000 C 
ATOM     23  O   UNL     1      -2.618  10.762  15.074  0.00  0.00    +0.000 OA
BRANCH  22  24
ATOM     24  O   UNL     1      -3.606  11.936  16.731  0.00  0.00    +0.000 OA
ATOM     25  H   UNL     1      -3.060  12.564  17.240  0.00  0.00    +0.000 HD
ENDBRANCH  22  24
ENDBRANCH  21  22
ENDBRANCH  17  21
ENDBRANCH   1  19
TORSDOF 5
ENDMDL
MODEL 7
REMARK VINA RESULT:      -7.5      2.282      3.251
REMARK  Name = 
REMARK  6 active torsions:
REMARK  status: ('A' for Active; 'I' for Inactive)
REMARK    1  A    between atoms: C_1  and  C_2
REMARK    2  A    between atoms: C_4  and  C_5
REMARK    3  A    between atoms: C_5  and  C_6
REMARK    4  A    between atoms: C_6  and  O_8
REMARK    5  A    between atoms: C_10  and  C_11
REMARK    6  A    between atoms: C_11  and  C_12
REMARK                            x       y       z     vdW  Elec       q    Type
REMARK                         _______ _______ _______ _____ _____    ______ ____
ROOT
ATOM      1  C   UNL     1       2.422   8.552  17.782  0.00  0.00    +0.000 C 
ENDROOT
BRANCH   1   2
ATOM      2  C   UNL     1       2.791   7.149  18.168  0.00  0.00    +0.000 A 
ATOM      3  N   UNL     1       2.070   6.389  18.965  0.00  0.00    +0.000 NA
ATOM      4  C   UNL     1       2.760   5.225  19.278  0.00  0.00    +0.000 A 
ATOM      5  C   UNL     1       2.342   4.207  20.162  0.00  0.00    +0.000 A 
ATOM      6  F   UNL     1       1.169   4.306  20.808  0.00  0.00    +0.000 F 
ATOM      7  C   UNL     1       3.161   3.102  20.388  0.00  0.00    +0.000 A 
ATOM      8  F   UNL     1       2.773   2.147  21.244  0.00  0.00    +0.000 F 
ATOM      9  C   UNL     1       4.387   2.978  19.754  0.00  0.00    +0.000 A 
ATOM     10  C   UNL     1       4.817   3.976  18.885  0.00  0.00    +0.000 A 
ATOM     11  F   UNL     1       6.016   3.859  18.296  0.00  0.00    +0.000 F 
ATOM     12  C   UNL     1       4.006   5.096  18.657  0.00  0.00    +0.000 A 
ATOM     13  S   UNL     1       4.295   6.481  17.677  0.00  0.00    +0.000 S 
ENDBRANCH   1   2
BRANCH   1  19
ATOM     14  C   UNL     1       0.389   9.361  22.321  0.00  0.00    +0.000 C 
ATOM     15  C   UNL     1       0.366   9.589  20.836  0.00  0.00    +0.000 A 
ATOM     16  C   UNL     1      -0.654  10.340  20.229  0.00  0.00    +0.000 A 
ATOM     17  C   UNL     1      -0.682  10.521  18.840  0.00  0.00    +0.000 A 
ATOM     18  C   UNL     1       0.333   9.941  18.060  0.00  0.00    +0.000 A 
ATOM     19  C   UNL     1       1.362   9.188  18.653  0.00  0.00    +0.000 A 
ATOM     20  C   UNL     1       1.374   9.026  20.043  0.00  0.00    +0.000 A 
BRANCH  17  21
ATOM     21  C   UNL     1      -1.767  11.356  18.188  0.00  0.00    +0.000 C 
BRANCH  21  22
ATOM     22  C   UNL     1      -2.481  10.735  16.998  0.00  0.00    +0.000 C 
ATOM     23  O   UNL     1      -3.103   9.680  17.076  0.00  0.00    +0.000 OA
BRANCH  22  24
ATOM     24  O   UNL     1      -2.444  11.468  15.864  0.00  0.00    +0.000 OA
ATOM     25  H   UNL     1      -1.601  11.941  15.737  0.00  0.00    +0.000 HD
ENDBRANCH  22  24
ENDBRANCH  21  22
ENDBRANCH  17  21
ENDBRANCH   1  19
TORSDOF 5
ENDMDL
MODEL 8
REMARK VINA RESULT:      -7.4      4.280      7.503
REMARK  Name = 
REMARK  6 active torsions:
REMARK  status: ('A' for Active; 'I' for Inactive)
REMARK    1  A    between atoms: C_1  and  C_2
REMARK    2  A    between atoms: C_4  and  C_5
REMARK    3  A    between atoms: C_5  and  C_6
REMARK    4  A    between atoms: C_6  and  O_8
REMARK    5  A    between atoms: C_10  and  C_11
REMARK    6  A    between atoms: C_11  and  C_12
REMARK                            x       y       z     vdW  Elec       q    Type
REMARK                         _______ _______ _______ _____ _____    ______ ____
ROOT
ATOM      1  C   UNL     1       3.202   4.615  18.442  0.00  0.00    +0.000 C 
ENDROOT
BRANCH   1   2
ATOM      2  C   UNL     1       2.533   5.882  18.890  0.00  0.00    +0.000 A 
ATOM      3  N   UNL     1       2.388   6.947  18.130  0.00  0.00    +0.000 NA
ATOM      4  C   UNL     1       1.902   8.012  18.879  0.00  0.00    +0.000 A 
ATOM      5  C   UNL     1       1.689   9.333  18.431  0.00  0.00    +0.000 A 
ATOM      6  F   UNL     1       1.967   9.674  17.162  0.00  0.00    +0.000 F 
ATOM      7  C   UNL     1       1.213  10.300  19.315  0.00  0.00    +0.000 A 
ATOM      8  F   UNL     1       1.032  11.559  18.893  0.00  0.00    +0.000 F 
ATOM      9  C   UNL     1       0.935   9.988  20.636  0.00  0.00    +0.000 A 
ATOM     10  C   UNL     1       1.146   8.692  21.096  0.00  0.00    +0.000 A 
ATOM     11  F   UNL     1       0.898   8.406  22.382  0.00  0.00    +0.000 F 
ATOM     12  C   UNL     1       1.633   7.713  20.219  0.00  0.00    +0.000 A 
ATOM     13  S   UNL     1       2.018   6.063  20.518  0.00  0.00    +0.000 S 
ENDBRANCH   1   2
BRANCH   1  19
ATOM     14  C   UNL     1       6.233   3.865  14.488  0.00  0.00    +0.000 C 
ATOM     15  C   UNL     1       6.009   4.463  15.848  0.00  0.00    +0.000 A 
ATOM     16  C   UNL     1       7.028   5.160  16.516  0.00  0.00    +0.000 A 
ATOM     17  C   UNL     1       6.817   5.688  17.798  0.00  0.00    +0.000 A 
ATOM     18  C   UNL     1       5.562   5.510  18.404  0.00  0.00    +0.000 A 
ATOM     19  C   UNL     1       4.531   4.814  17.748  0.00  0.00    +0.000 A 
ATOM     20  C   UNL     1       4.762   4.303  16.466  0.00  0.00    +0.000 A 
BRANCH  17  21
ATOM     21  C   UNL     1       7.908   6.465  18.506  0.00  0.00    +0.000 C 
BRANCH  21  22
ATOM     22  C   UNL     1       8.029   7.941  18.157  0.00  0.00    +0.000 C 
ATOM     23  O   UNL     1       8.759   8.708  18.776  0.00  0.00    +0.000 OA
BRANCH  22  24
ATOM     24  O   UNL     1       7.331   8.329  17.068  0.00  0.00    +0.000 OA
ATOM     25  H   UNL     1       7.314   9.296  16.945  0.00  0.00    +0.000 HD
ENDBRANCH  22  24
ENDBRANCH  21  22
ENDBRANCH  17  21
ENDBRANCH   1  19
TORSDOF 5
ENDMDL
MODEL 9
REMARK VINA RESULT:      -7.4      4.565      7.783
REMARK  Name = 
REMARK  6 active torsions:
REMARK  status: ('A' for Active; 'I' for Inactive)
REMARK    1  A    between atoms: C_1  and  C_2
REMARK    2  A    between atoms: C_4  and  C_5
REMARK    3  A    between atoms: C_5  and  C_6
REMARK    4  A    between atoms: C_6  and  O_8
REMARK    5  A    between atoms: C_10  and  C_11
REMARK    6  A    between atoms: C_11  and  C_12
REMARK                            x       y       z     vdW  Elec       q    Type
REMARK                         _______ _______ _______ _____ _____    ______ ____
ROOT
ATOM      1  C   UNL     1       2.548   8.184  17.776  0.00  0.00    +0.000 C 
ENDROOT
BRANCH   1   2
ATOM      2  C   UNL     1       1.629   8.762  18.813  0.00  0.00    +0.000 A 
ATOM      3  N   UNL     1       0.791   9.752  18.586  0.00  0.00    +0.000 NA
ATOM      4  C   UNL     1       0.219  10.182  19.776  0.00  0.00    +0.000 A 
ATOM      5  C   UNL     1      -0.668  11.268  19.943  0.00  0.00    +0.000 A 
ATOM      6  F   UNL     1      -1.039  12.012  18.888  0.00  0.00    +0.000 F 
ATOM      7  C   UNL     1      -1.143  11.589  21.213  0.00  0.00    +0.000 A 
ATOM      8  F   UNL     1      -1.968  12.634  21.373  0.00  0.00    +0.000 F 
ATOM      9  C   UNL     1      -0.765  10.856  22.326  0.00  0.00    +0.000 A 
ATOM     10  C   UNL     1       0.114   9.787  22.180  0.00  0.00    +0.000 A 
ATOM     11  F   UNL     1       0.494   9.099  23.266  0.00  0.00    +0.000 F 
ATOM     12  C   UNL     1       0.606   9.460  20.909  0.00  0.00    +0.000 A 
ATOM     13  S   UNL     1       1.718   8.232  20.443  0.00  0.00    +0.000 S 
ENDBRANCH   1   2
BRANCH   1  19
ATOM     14  C   UNL     1       1.164   3.382  18.422  0.00  0.00    +0.000 C 
ATOM     15  C   UNL     1       2.257   4.406  18.304  0.00  0.00    +0.000 A 
ATOM     16  C   UNL     1       3.608   4.051  18.442  0.00  0.00    +0.000 A 
ATOM     17  C   UNL     1       4.618   5.020  18.361  0.00  0.00    +0.000 A 
ATOM     18  C   UNL     1       4.254   6.358  18.132  0.00  0.00    +0.000 A 
ATOM     19  C   UNL     1       2.906   6.730  17.991  0.00  0.00    +0.000 A 
ATOM     20  C   UNL     1       1.916   5.744  18.069  0.00  0.00    +0.000 A 
BRANCH  17  21
ATOM     21  C   UNL     1       6.077   4.631  18.481  0.00  0.00    +0.000 C 
BRANCH  21  22
ATOM     22  C   UNL     1       6.821   4.364  17.181  0.00  0.00    +0.000 C 
ATOM     23  O   UNL     1       6.267   4.388  16.086  0.00  0.00    +0.000 OA
BRANCH  22  24
ATOM     24  O   UNL     1       8.151   4.172  17.313  0.00  0.00    +0.000 OA
ATOM     25  H   UNL     1       8.419   3.240  17.212  0.00  0.00    +0.000 HD
ENDBRANCH  22  24
ENDBRANCH  21  22
ENDBRANCH  17  21
ENDBRANCH   1  19
TORSDOF 5
ENDMDL
