MODEL 1
REMARK VINA RESULT:      -7.9      0.000      0.000
REMARK  Name = 
REMARK  11 active torsions:
REMARK  status: ('A' for Active; 'I' for Inactive)
REMARK    1  A    between atoms: C_1  and  C_2
REMARK    2  A    between atoms: C_2  and  C_3
REMARK    3  A    between atoms: C_2  and  N_20
REMARK    4  A    between atoms: C_3  and  N_4
REMARK    5  A    between atoms: N_4  and  C_5
REMARK    6  A    between atoms: C_8  and  C_9
REMARK    7  A    between atoms: C_9  and  C_10
REMARK    8  A    between atoms: N_20  and  C_21
REMARK    9  A    between atoms: C_21  and  C_22
REMARK   10  A    between atoms: C_22  and  O_23
REMARK   11  A    between atoms: C_22  and  C_24
REMARK                            x       y       z     vdW  Elec       q    Type
REMARK                         _______ _______ _______ _____ _____    ______ ____
ROOT
ATOM      1  N   UNL     1       2.691   5.960  20.032  0.00  0.00    +0.000 N 
ATOM      2  H   UNL     1       3.656   6.004  20.347  0.00  0.00    +0.000 HD
ENDROOT
BRANCH   1   3
ATOM      3  C   UNL     1       2.227   7.239  19.716  0.00  0.00    +0.000 A 
ATOM      4  C   UNL     1       1.528   8.053  20.612  0.00  0.00    +0.000 A 
ATOM      5  C   UNL     1       1.104   9.329  20.246  0.00  0.00    +0.000 A 
ATOM      6  C   UNL     1       1.346   9.811  18.959  0.00  0.00    +0.000 A 
ATOM      7  C   UNL     1       1.983   8.981  18.028  0.00  0.00    +0.000 A 
ATOM      8  C   UNL     1       2.421   7.712  18.411  0.00  0.00    +0.000 A 
BRANCH   6   9
ATOM      9  C   UNL     1       0.896  11.195  18.585  0.00  0.00    +0.000 C 
BRANCH   9  10
ATOM     10  C   UNL     1      -0.585  11.454  18.804  0.00  0.00    +0.000 C 
ATOM     11  O   UNL     1      -0.992  11.656  19.946  0.00  0.00    +0.000 OA
ATOM     12  N   UNL     1      -1.363  11.344  17.669  0.00  0.00    +0.000 N 
ATOM     13  C   UNL     1      -2.723  11.475  17.731  0.00  0.00    +0.000 A 
ATOM     14  N   UNL     1      -3.461  11.863  18.737  0.00  0.00    +0.000 NA
ATOM     15  C   UNL     1      -4.793  11.734  18.411  0.00  0.00    +0.000 A 
ATOM     16  C   UNL     1      -5.046  11.256  17.144  0.00  0.00    +0.000 A 
ATOM     17  S   UNL     1      -3.559  11.026  16.311  0.00  0.00    +0.000 S 
ATOM     18  H   UNL     1      -0.958  11.097  16.776  0.00  0.00    +0.000 HD
ENDBRANCH   9  10
ENDBRANCH   6   9
ENDBRANCH   1   3
BRANCH   1  19
ATOM     19  C   UNL     1       1.848   5.085  20.845  0.00  0.00    +0.000 C 
BRANCH  19  21
ATOM     20  C   UNL     1       1.508   2.746  21.744  0.00  0.00    +0.000 C 
ATOM     21  C   UNL     1       2.356   3.622  20.820  0.00  0.00    +0.000 C 
BRANCH  21  22
ATOM     22  N   UNL     1       2.386   3.013  19.473  0.00  0.00    +0.000 NA
ATOM     23  H   UNL     1       1.887   3.608  18.816  0.00  0.00    +0.000 HD
BRANCH  22  24
ATOM     24  C   UNL     1       3.744   2.742  18.976  0.00  0.00    +0.000 C 
BRANCH  24  25
ATOM     25  C   UNL     1       4.054   3.253  17.538  0.00  0.00    +0.000 C 
BRANCH  25  26
ATOM     26  C   UNL     1       4.943   4.479  17.464  0.00  0.00    +0.000 A 
ATOM     27  C   UNL     1       4.671   5.481  16.521  0.00  0.00    +0.000 A 
ATOM     28  C   UNL     1       5.452   6.639  16.459  0.00  0.00    +0.000 A 
ATOM     29  C   UNL     1       6.521   6.807  17.336  0.00  0.00    +0.000 A 
ATOM     30  C   UNL     1       6.820   5.811  18.258  0.00  0.00    +0.000 A 
ATOM     31 CL   UNL     1       8.139   6.011  19.342  0.00  0.00    +0.000 Cl
ATOM     32  C   UNL     1       6.042   4.653  18.323  0.00  0.00    +0.000 A 
ENDBRANCH  25  26
BRANCH  25  33
ATOM     33  O   UNL     1       4.650   2.193  16.786  0.00  0.00    +0.000 OA
ATOM     34  H   UNL     1       4.740   1.432  17.383  0.00  0.00    +0.000 HD
ENDBRANCH  25  33
ENDBRANCH  24  25
ENDBRANCH  22  24
ENDBRANCH  21  22
ENDBRANCH  19  21
ENDBRANCH   1  19
TORSDOF 10
ENDMDL
MODEL 2
REMARK VINA RESULT:      -7.8      1.334      1.649
REMARK  Name = 
REMARK  11 active torsions:
REMARK  status: ('A' for Active; 'I' for Inactive)
REMARK    1  A    between atoms: C_1  and  C_2
REMARK    2  A    between atoms: C_2  and  C_3
REMARK    3  A    between atoms: C_2  and  N_20
REMARK    4  A    between atoms: C_3  and  N_4
REMARK    5  A    between atoms: N_4  and  C_5
REMARK    6  A    between atoms: C_8  and  C_9
REMARK    7  A    between atoms: C_9  and  C_10
REMARK    8  A    between atoms: N_20  and  C_21
REMARK    9  A    between atoms: C_21  and  C_22
REMARK   10  A    between atoms: C_22  and  O_23
REMARK   11  A    between atoms: C_22  and  C_24
REMARK                            x       y       z     vdW  Elec       q    Type
REMARK                         _______ _______ _______ _____ _____    ______ ____
ROOT
ATOM      1  N   UNL     1       3.085   6.392  19.335  0.00  0.00    +0.000 N 
ATOM      2  H   UNL     1       4.082   6.573  19.393  0.00  0.00    +0.000 HD
ENDROOT
BRANCH   1   3
ATOM      3  C   UNL     1       2.386   7.588  19.154  0.00  0.00    +0.000 A 
ATOM      4  C   UNL     1       2.448   8.353  17.985  0.00  0.00    +0.000 A 
ATOM      5  C   UNL     1       1.715   9.530  17.855  0.00  0.00    +0.000 A 
ATOM      6  C   UNL     1       0.920   9.987  18.908  0.00  0.00    +0.000 A 
ATOM      7  C   UNL     1       0.902   9.269  20.110  0.00  0.00    +0.000 A 
ATOM      8  C   UNL     1       1.625   8.080  20.222  0.00  0.00    +0.000 A 
BRANCH   6   9
ATOM      9  C   UNL     1       0.123  11.250  18.746  0.00  0.00    +0.000 C 
BRANCH   9  10
ATOM     10  C   UNL     1      -1.320  11.031  18.320  0.00  0.00    +0.000 C 
ATOM     11  O   UNL     1      -1.549  10.419  17.280  0.00  0.00    +0.000 OA
ATOM     12  N   UNL     1      -2.257  11.643  19.130  0.00  0.00    +0.000 N 
ATOM     13  C   UNL     1      -3.589  11.597  18.824  0.00  0.00    +0.000 A 
ATOM     14  N   UNL     1      -4.192  10.892  17.903  0.00  0.00    +0.000 NA
ATOM     15  C   UNL     1      -5.524  11.237  17.854  0.00  0.00    +0.000 A 
ATOM     16  C   UNL     1      -5.918  12.200  18.758  0.00  0.00    +0.000 A 
ATOM     17  S   UNL     1      -4.581  12.636  19.747  0.00  0.00    +0.000 S 
ATOM     18  H   UNL     1      -1.980  12.197  19.928  0.00  0.00    +0.000 HD
ENDBRANCH   9  10
ENDBRANCH   6   9
ENDBRANCH   1   3
BRANCH   1  19
ATOM     19  C   UNL     1       2.603   5.437  20.333  0.00  0.00    +0.000 C 
BRANCH  19  21
ATOM     20  C   UNL     1       0.859   3.607  20.279  0.00  0.00    +0.000 C 
ATOM     21  C   UNL     1       2.179   4.099  19.679  0.00  0.00    +0.000 C 
BRANCH  21  22
ATOM     22  N   UNL     1       2.046   4.157  18.208  0.00  0.00    +0.000 NA
ATOM     23  H   UNL     1       2.478   5.008  17.857  0.00  0.00    +0.000 HD
BRANCH  22  24
ATOM     24  C   UNL     1       2.607   2.986  17.517  0.00  0.00    +0.000 C 
BRANCH  24  25
ATOM     25  C   UNL     1       4.157   2.850  17.564  0.00  0.00    +0.000 C 
BRANCH  25  26
ATOM     26  C   UNL     1       4.927   4.139  17.355  0.00  0.00    +0.000 A 
ATOM     27  C   UNL     1       4.584   4.992  16.295  0.00  0.00    +0.000 A 
ATOM     28  C   UNL     1       5.253   6.205  16.106  0.00  0.00    +0.000 A 
ATOM     29  C   UNL     1       6.280   6.579  16.970  0.00  0.00    +0.000 A 
ATOM     30  C   UNL     1       6.648   5.733  18.009  0.00  0.00    +0.000 A 
ATOM     31 CL   UNL     1       7.915   6.186  19.078  0.00  0.00    +0.000 Cl
ATOM     32  C   UNL     1       5.983   4.520  18.201  0.00  0.00    +0.000 A 
ENDBRANCH  25  26
BRANCH  25  33
ATOM     33  O   UNL     1       4.537   2.272  18.815  0.00  0.00    +0.000 OA
ATOM     34  H   UNL     1       5.203   1.591  18.627  0.00  0.00    +0.000 HD
ENDBRANCH  25  33
ENDBRANCH  24  25
ENDBRANCH  22  24
ENDBRANCH  21  22
ENDBRANCH  19  21
ENDBRANCH   1  19
TORSDOF 10
ENDMDL
MODEL 3
REMARK VINA RESULT:      -7.8      0.887      1.248
REMARK  Name = 
REMARK  11 active torsions:
REMARK  status: ('A' for Active; 'I' for Inactive)
REMARK    1  A    between atoms: C_1  and  C_2
REMARK    2  A    between atoms: C_2  and  C_3
REMARK    3  A    between atoms: C_2  and  N_20
REMARK    4  A    between atoms: C_3  and  N_4
REMARK    5  A    between atoms: N_4  and  C_5
REMARK    6  A    between atoms: C_8  and  C_9
REMARK    7  A    between atoms: C_9  and  C_10
REMARK    8  A    between atoms: N_20  and  C_21
REMARK    9  A    between atoms: C_21  and  C_22
REMARK   10  A    between atoms: C_22  and  O_23
REMARK   11  A    between atoms: C_22  and  C_24
REMARK                            x       y       z     vdW  Elec       q    Type
REMARK                         _______ _______ _______ _____ _____    ______ ____
ROOT
ATOM      1  N   UNL     1       2.235   5.960  20.493  0.00  0.00    +0.000 N 
ATOM      2  H   UNL     1       1.673   5.714  21.303  0.00  0.00    +0.000 HD
ENDROOT
BRANCH   1   3
ATOM      3  C   UNL     1       1.934   7.257  20.072  0.00  0.00    +0.000 A 
ATOM      4  C   UNL     1       2.271   7.761  18.812  0.00  0.00    +0.000 A 
ATOM      5  C   UNL     1       1.930   9.059  18.440  0.00  0.00    +0.000 A 
ATOM      6  C   UNL     1       1.266   9.898  19.336  0.00  0.00    +0.000 A 
ATOM      7  C   UNL     1       0.984   9.432  20.627  0.00  0.00    +0.000 A 
ATOM      8  C   UNL     1       1.313   8.123  20.982  0.00  0.00    +0.000 A 
BRANCH   6   9
ATOM      9  C   UNL     1       0.891  11.290  18.915  0.00  0.00    +0.000 C 
BRANCH   9  10
ATOM     10  C   UNL     1      -0.606  11.542  18.841  0.00  0.00    +0.000 C 
ATOM     11  O   UNL     1      -1.212  11.845  19.867  0.00  0.00    +0.000 OA
ATOM     12  N   UNL     1      -1.168  11.310  17.601  0.00  0.00    +0.000 N 
ATOM     13  C   UNL     1      -2.517  11.421  17.407  0.00  0.00    +0.000 A 
ATOM     14  N   UNL     1      -3.424  11.890  18.223  0.00  0.00    +0.000 NA
ATOM     15  C   UNL     1      -4.676  11.705  17.679  0.00  0.00    +0.000 A 
ATOM     16  C   UNL     1      -4.697  11.103  16.440  0.00  0.00    +0.000 A 
ATOM     17  S   UNL     1      -3.085  10.823  15.912  0.00  0.00    +0.000 S 
ATOM     18  H   UNL     1      -0.609  10.987  16.824  0.00  0.00    +0.000 HD
ENDBRANCH   9  10
ENDBRANCH   6   9
ENDBRANCH   1   3
BRANCH   1  19
ATOM     19  C   UNL     1       2.319   4.895  19.493  0.00  0.00    +0.000 C 
BRANCH  19  21
ATOM     20  C   UNL     1       0.576   3.206  20.200  0.00  0.00    +0.000 C 
ATOM     21  C   UNL     1       2.076   3.502  20.124  0.00  0.00    +0.000 C 
BRANCH  21  22
ATOM     22  N   UNL     1       2.752   2.390  19.422  0.00  0.00    +0.000 NA
ATOM     23  H   UNL     1       2.101   1.619  19.293  0.00  0.00    +0.000 HD
BRANCH  22  24
ATOM     24  C   UNL     1       3.336   2.777  18.129  0.00  0.00    +0.000 C 
BRANCH  24  25
ATOM     25  C   UNL     1       4.876   3.004  18.122  0.00  0.00    +0.000 C 
BRANCH  25  26
ATOM     26  C   UNL     1       5.325   4.389  17.700  0.00  0.00    +0.000 A 
ATOM     27  C   UNL     1       4.602   5.087  16.721  0.00  0.00    +0.000 A 
ATOM     28  C   UNL     1       4.972   6.382  16.343  0.00  0.00    +0.000 A 
ATOM     29  C   UNL     1       6.075   6.993  16.934  0.00  0.00    +0.000 A 
ATOM     30  C   UNL     1       6.817   6.304  17.886  0.00  0.00    +0.000 A 
ATOM     31 CL   UNL     1       8.181   7.051  18.618  0.00  0.00    +0.000 Cl
ATOM     32  C   UNL     1       6.451   5.011  18.266  0.00  0.00    +0.000 A 
ENDBRANCH  25  26
BRANCH  25  33
ATOM     33  O   UNL     1       5.395   2.717  19.423  0.00  0.00    +0.000 OA
ATOM     34  H   UNL     1       5.771   1.822  19.392  0.00  0.00    +0.000 HD
ENDBRANCH  25  33
ENDBRANCH  24  25
ENDBRANCH  22  24
ENDBRANCH  21  22
ENDBRANCH  19  21
ENDBRANCH   1  19
TORSDOF 10
ENDMDL
MODEL 4
REMARK VINA RESULT:      -7.8      1.520      2.081
REMARK  Name = 
REMARK  11 active torsions:
REMARK  status: ('A' for Active; 'I' for Inactive)
REMARK    1  A    between atoms: C_1  and  C_2
REMARK    2  A    between atoms: C_2  and  C_3
REMARK    3  A    between atoms: C_2  and  N_20
REMARK    4  A    between atoms: C_3  and  N_4
REMARK    5  A    between atoms: N_4  and  C_5
REMARK    6  A    between atoms: C_8  and  C_9
REMARK    7  A    between atoms: C_9  and  C_10
REMARK    8  A    between atoms: N_20  and  C_21
REMARK    9  A    between atoms: C_21  and  C_22
REMARK   10  A    between atoms: C_22  and  O_23
REMARK   11  A    between atoms: C_22  and  C_24
REMARK                            x       y       z     vdW  Elec       q    Type
REMARK                         _______ _______ _______ _____ _____    ______ ____
ROOT
ATOM      1  N   UNL     1       1.803   4.517  20.676  0.00  0.00    +0.000 N 
ATOM      2  H   UNL     1       1.651   4.663  21.669  0.00  0.00    +0.000 HD
ENDROOT
BRANCH   1   3
ATOM      3  C   UNL     1       1.876   5.745  20.013  0.00  0.00    +0.000 A 
ATOM      4  C   UNL     1       2.247   5.880  18.672  0.00  0.00    +0.000 A 
ATOM      5  C   UNL     1       2.286   7.130  18.058  0.00  0.00    +0.000 A 
ATOM      6  C   UNL     1       1.982   8.283  18.784  0.00  0.00    +0.000 A 
ATOM      7  C   UNL     1       1.677   8.170  20.147  0.00  0.00    +0.000 A 
ATOM      8  C   UNL     1       1.622   6.911  20.746  0.00  0.00    +0.000 A 
BRANCH   6   9
ATOM      9  C   UNL     1       2.013   9.622  18.104  0.00  0.00    +0.000 C 
BRANCH   9  10
ATOM     10  C   UNL     1       0.789  10.486  18.362  0.00  0.00    +0.000 C 
ATOM     11  O   UNL     1       0.877  11.424  19.151  0.00  0.00    +0.000 OA
ATOM     12  N   UNL     1      -0.361  10.058  17.728  0.00  0.00    +0.000 N 
ATOM     13  C   UNL     1      -1.554  10.694  17.931  0.00  0.00    +0.000 A 
ATOM     14  N   UNL     1      -1.786  11.817  18.558  0.00  0.00    +0.000 NA
ATOM     15  C   UNL     1      -3.144  12.032  18.636  0.00  0.00    +0.000 A 
ATOM     16  C   UNL     1      -3.929  11.063  18.049  0.00  0.00    +0.000 A 
ATOM     17  S   UNL     1      -2.923   9.877  17.316  0.00  0.00    +0.000 S 
ATOM     18  H   UNL     1      -0.366   9.227  17.154  0.00  0.00    +0.000 HD
ENDBRANCH   9  10
ENDBRANCH   6   9
ENDBRANCH   1   3
BRANCH   1  19
ATOM     19  C   UNL     1       0.973   3.456  20.105  0.00  0.00    +0.000 C 
BRANCH  19  21
ATOM     20  C   UNL     1       1.788   2.348  17.984  0.00  0.00    +0.000 C 
ATOM     21  C   UNL     1       1.838   2.316  19.513  0.00  0.00    +0.000 C 
BRANCH  21  22
ATOM     22  N   UNL     1       3.251   2.336  19.949  0.00  0.00    +0.000 NA
ATOM     23  H   UNL     1       3.488   1.448  20.384  0.00  0.00    +0.000 HD
BRANCH  22  24
ATOM     24  C   UNL     1       4.199   2.637  18.866  0.00  0.00    +0.000 C 
BRANCH  24  25
ATOM     25  C   UNL     1       5.276   3.714  19.188  0.00  0.00    +0.000 C 
BRANCH  25  26
ATOM     26  C   UNL     1       5.552   4.707  18.075  0.00  0.00    +0.000 A 
ATOM     27  C   UNL     1       4.916   4.555  16.833  0.00  0.00    +0.000 A 
ATOM     28  C   UNL     1       5.123   5.479  15.805  0.00  0.00    +0.000 A 
ATOM     29  C   UNL     1       5.976   6.564  16.001  0.00  0.00    +0.000 A 
ATOM     30  C   UNL     1       6.633   6.712  17.216  0.00  0.00    +0.000 A 
ATOM     31 CL   UNL     1       7.688   8.046  17.465  0.00  0.00    +0.000 Cl
ATOM     32  C   UNL     1       6.429   5.791  18.247  0.00  0.00    +0.000 A 
ENDBRANCH  25  26
BRANCH  25  33
ATOM     33  O   UNL     1       4.888   4.424  20.366  0.00  0.00    +0.000 OA
ATOM     34  H   UNL     1       4.756   3.766  21.068  0.00  0.00    +0.000 HD
ENDBRANCH  25  33
ENDBRANCH  24  25
ENDBRANCH  22  24
ENDBRANCH  21  22
ENDBRANCH  19  21
ENDBRANCH   1  19
TORSDOF 10
ENDMDL
MODEL 5
REMARK VINA RESULT:      -7.7      1.624      2.021
REMARK  Name = 
REMARK  11 active torsions:
REMARK  status: ('A' for Active; 'I' for Inactive)
REMARK    1  A    between atoms: C_1  and  C_2
REMARK    2  A    between atoms: C_2  and  C_3
REMARK    3  A    between atoms: C_2  and  N_20
REMARK    4  A    between atoms: C_3  and  N_4
REMARK    5  A    between atoms: N_4  and  C_5
REMARK    6  A    between atoms: C_8  and  C_9
REMARK    7  A    between atoms: C_9  and  C_10
REMARK    8  A    between atoms: N_20  and  C_21
REMARK    9  A    between atoms: C_21  and  C_22
REMARK   10  A    between atoms: C_22  and  O_23
REMARK   11  A    between atoms: C_22  and  C_24
REMARK                            x       y       z     vdW  Elec       q    Type
REMARK                         _______ _______ _______ _____ _____    ______ ____
ROOT
ATOM      1  N   UNL     1       2.217   6.144  20.833  0.00  0.00    +0.000 N 
ATOM      2  H   UNL     1       2.349   6.245  21.834  0.00  0.00    +0.000 HD
ENDROOT
BRANCH   1   3
ATOM      3  C   UNL     1       1.885   7.374  20.261  0.00  0.00    +0.000 A 
ATOM      4  C   UNL     1       2.185   7.721  18.940  0.00  0.00    +0.000 A 
ATOM      5  C   UNL     1       1.814   8.958  18.418  0.00  0.00    +0.000 A 
ATOM      6  C   UNL     1       1.157   9.893  19.219  0.00  0.00    +0.000 A 
ATOM      7  C   UNL     1       0.912   9.588  20.564  0.00  0.00    +0.000 A 
ATOM      8  C   UNL     1       1.270   8.338  21.070  0.00  0.00    +0.000 A 
BRANCH   6   9
ATOM      9  C   UNL     1       0.749  11.217  18.637  0.00  0.00    +0.000 C 
BRANCH   9  10
ATOM     10  C   UNL     1      -0.721  11.558  18.820  0.00  0.00    +0.000 C 
ATOM     11  O   UNL     1      -1.118  11.909  19.929  0.00  0.00    +0.000 OA
ATOM     12  N   UNL     1      -1.504  11.344  17.703  0.00  0.00    +0.000 N 
ATOM     13  C   UNL     1      -2.858  11.533  17.745  0.00  0.00    +0.000 A 
ATOM     14  N   UNL     1      -3.579  12.066  18.697  0.00  0.00    +0.000 NA
ATOM     15  C   UNL     1      -4.915  11.950  18.384  0.00  0.00    +0.000 A 
ATOM     16  C   UNL     1      -5.189  11.336  17.182  0.00  0.00    +0.000 A 
ATOM     17  S   UNL     1      -3.713  10.952  16.386  0.00  0.00    +0.000 S 
ATOM     18  H   UNL     1      -1.110  10.978  16.847  0.00  0.00    +0.000 HD
ENDBRANCH   9  10
ENDBRANCH   6   9
ENDBRANCH   1   3
BRANCH   1  19
ATOM     19  C   UNL     1       1.440   4.961  20.461  0.00  0.00    +0.000 C 
BRANCH  19  21
ATOM     20  C   UNL     1       1.512   2.435  20.557  0.00  0.00    +0.000 C 
ATOM     21  C   UNL     1       2.339   3.706  20.342  0.00  0.00    +0.000 C 
BRANCH  21  22
ATOM     22  N   UNL     1       3.064   3.596  19.058  0.00  0.00    +0.000 NA
ATOM     23  H   UNL     1       3.029   4.487  18.568  0.00  0.00    +0.000 HD
BRANCH  22  24
ATOM     24  C   UNL     1       4.459   3.155  19.202  0.00  0.00    +0.000 C 
BRANCH  24  25
ATOM     25  C   UNL     1       5.545   4.215  18.854  0.00  0.00    +0.000 C 
BRANCH  25  26
ATOM     26  C   UNL     1       5.453   4.801  17.458  0.00  0.00    +0.000 A 
ATOM     27  C   UNL     1       5.026   6.127  17.286  0.00  0.00    +0.000 A 
ATOM     28  C   UNL     1       4.971   6.703  16.013  0.00  0.00    +0.000 A 
ATOM     29  C   UNL     1       5.334   5.957  14.893  0.00  0.00    +0.000 A 
ATOM     30  C   UNL     1       5.732   4.635  15.046  0.00  0.00    +0.000 A 
ATOM     31 CL   UNL     1       6.179   3.709  13.668  0.00  0.00    +0.000 Cl
ATOM     32  C   UNL     1       5.789   4.056  16.315  0.00  0.00    +0.000 A 
ENDBRANCH  25  26
BRANCH  25  33
ATOM     33  O   UNL     1       5.489   5.273  19.813  0.00  0.00    +0.000 OA
ATOM     34  H   UNL     1       5.794   4.909  20.660  0.00  0.00    +0.000 HD
ENDBRANCH  25  33
ENDBRANCH  24  25
ENDBRANCH  22  24
ENDBRANCH  21  22
ENDBRANCH  19  21
ENDBRANCH   1  19
TORSDOF 10
ENDMDL
MODEL 6
REMARK VINA RESULT:      -7.7      1.713      2.238
REMARK  Name = 
REMARK  11 active torsions:
REMARK  status: ('A' for Active; 'I' for Inactive)
REMARK    1  A    between atoms: C_1  and  C_2
REMARK    2  A    between atoms: C_2  and  C_3
REMARK    3  A    between atoms: C_2  and  N_20
REMARK    4  A    between atoms: C_3  and  N_4
REMARK    5  A    between atoms: N_4  and  C_5
REMARK    6  A    between atoms: C_8  and  C_9
REMARK    7  A    between atoms: C_9  and  C_10
REMARK    8  A    between atoms: N_20  and  C_21
REMARK    9  A    between atoms: C_21  and  C_22
REMARK   10  A    between atoms: C_22  and  O_23
REMARK   11  A    between atoms: C_22  and  C_24
REMARK                            x       y       z     vdW  Elec       q    Type
REMARK                         _______ _______ _______ _____ _____    ______ ____
ROOT
ATOM      1  N   UNL     1       2.574   5.991  20.114  0.00  0.00    +0.000 N 
ATOM      2  H   UNL     1       3.500   6.062  20.525  0.00  0.00    +0.000 HD
ENDROOT
BRANCH   1   3
ATOM      3  C   UNL     1       2.114   7.256  19.737  0.00  0.00    +0.000 A 
ATOM      4  C   UNL     1       2.379   7.839  18.494  0.00  0.00    +0.000 A 
ATOM      5  C   UNL     1       1.879   9.097  18.167  0.00  0.00    +0.000 A 
ATOM      6  C   UNL     1       1.121   9.817  19.092  0.00  0.00    +0.000 A 
ATOM      7  C   UNL     1       0.906   9.277  20.367  0.00  0.00    +0.000 A 
ATOM      8  C   UNL     1       1.396   8.007  20.676  0.00  0.00    +0.000 A 
BRANCH   6   9
ATOM      9  C   UNL     1       0.575  11.166  18.719  0.00  0.00    +0.000 C 
BRANCH   9  10
ATOM     10  C   UNL     1      -0.933  11.205  18.540  0.00  0.00    +0.000 C 
ATOM     11  O   UNL     1      -1.427  10.714  17.528  0.00  0.00    +0.000 OA
ATOM     12  N   UNL     1      -1.612  11.893  19.527  0.00  0.00    +0.000 N 
ATOM     13  C   UNL     1      -2.965  12.075  19.455  0.00  0.00    +0.000 A 
ATOM     14  N   UNL     1      -3.818  11.542  18.620  0.00  0.00    +0.000 NA
ATOM     15  C   UNL     1      -5.065  12.092  18.820  0.00  0.00    +0.000 A 
ATOM     16  C   UNL     1      -5.142  13.034  19.822  0.00  0.00    +0.000 A 
ATOM     17  S   UNL     1      -3.607  13.184  20.584  0.00  0.00    +0.000 S 
ATOM     18  H   UNL     1      -1.121  12.337  20.291  0.00  0.00    +0.000 HD
ENDBRANCH   9  10
ENDBRANCH   6   9
ENDBRANCH   1   3
BRANCH   1  19
ATOM     19  C   UNL     1       1.673   5.102  20.847  0.00  0.00    +0.000 C 
BRANCH  19  21
ATOM     20  C   UNL     1       2.161   2.869  21.927  0.00  0.00    +0.000 C 
ATOM     21  C   UNL     1       2.018   3.613  20.597  0.00  0.00    +0.000 C 
BRANCH  21  22
ATOM     22  N   UNL     1       1.041   2.898  19.748  0.00  0.00    +0.000 NA
ATOM     23  H   UNL     1       0.098   3.194  19.986  0.00  0.00    +0.000 HD
BRANCH  22  24
ATOM     24  C   UNL     1       1.274   3.069  18.306  0.00  0.00    +0.000 C 
BRANCH  24  25
ATOM     25  C   UNL     1       2.647   2.561  17.776  0.00  0.00    +0.000 C 
BRANCH  25  26
ATOM     26  C   UNL     1       3.772   3.577  17.815  0.00  0.00    +0.000 A 
ATOM     27  C   UNL     1       4.781   3.463  18.784  0.00  0.00    +0.000 A 
ATOM     28  C   UNL     1       5.850   4.364  18.816  0.00  0.00    +0.000 A 
ATOM     29  C   UNL     1       5.920   5.397  17.883  0.00  0.00    +0.000 A 
ATOM     30  C   UNL     1       4.915   5.538  16.934  0.00  0.00    +0.000 A 
ATOM     31 CL   UNL     1       4.994   6.811  15.782  0.00  0.00    +0.000 Cl
ATOM     32  C   UNL     1       3.846   4.641  16.899  0.00  0.00    +0.000 A 
ENDBRANCH  25  26
BRANCH  25  33
ATOM     33  O   UNL     1       3.034   1.403  18.519  0.00  0.00    +0.000 OA
ATOM     34  H   UNL     1       3.866   1.616  18.971  0.00  0.00    +0.000 HD
ENDBRANCH  25  33
ENDBRANCH  24  25
ENDBRANCH  22  24
ENDBRANCH  21  22
ENDBRANCH  19  21
ENDBRANCH   1  19
TORSDOF 10
ENDMDL
MODEL 7
REMARK VINA RESULT:      -7.7      1.896      2.022
REMARK  Name = 
REMARK  11 active torsions:
REMARK  status: ('A' for Active; 'I' for Inactive)
REMARK    1  A    between atoms: C_1  and  C_2
REMARK    2  A    between atoms: C_2  and  C_3
REMARK    3  A    between atoms: C_2  and  N_20
REMARK    4  A    between atoms: C_3  and  N_4
REMARK    5  A    between atoms: N_4  and  C_5
REMARK    6  A    between atoms: C_8  and  C_9
REMARK    7  A    between atoms: C_9  and  C_10
REMARK    8  A    between atoms: N_20  and  C_21
REMARK    9  A    between atoms: C_21  and  C_22
REMARK   10  A    between atoms: C_22  and  O_23
REMARK   11  A    between atoms: C_22  and  C_24
REMARK                            x       y       z     vdW  Elec       q    Type
REMARK                         _______ _______ _______ _____ _____    ______ ____
ROOT
ATOM      1  N   UNL     1       2.270   6.021  20.755  0.00  0.00    +0.000 N 
ATOM      2  H   UNL     1       2.453   6.003  21.754  0.00  0.00    +0.000 HD
ENDROOT
BRANCH   1   3
ATOM      3  C   UNL     1       1.812   7.283  20.370  0.00  0.00    +0.000 A 
ATOM      4  C   UNL     1       1.041   8.112  21.191  0.00  0.00    +0.000 A 
ATOM      5  C   UNL     1       0.627   9.370  20.760  0.00  0.00    +0.000 A 
ATOM      6  C   UNL     1       0.953   9.819  19.479  0.00  0.00    +0.000 A 
ATOM      7  C   UNL     1       1.665   8.972  18.620  0.00  0.00    +0.000 A 
ATOM      8  C   UNL     1       2.091   7.722  19.069  0.00  0.00    +0.000 A 
BRANCH   6   9
ATOM      9  C   UNL     1       0.513  11.185  19.034  0.00  0.00    +0.000 C 
BRANCH   9  10
ATOM     10  C   UNL     1      -0.987  11.325  18.828  0.00  0.00    +0.000 C 
ATOM     11  O   UNL     1      -1.485  10.920  17.780  0.00  0.00    +0.000 OA
ATOM     12  N   UNL     1      -1.646  11.997  19.838  0.00  0.00    +0.000 N 
ATOM     13  C   UNL     1      -2.984  12.265  19.749  0.00  0.00    +0.000 A 
ATOM     14  N   UNL     1      -3.848  11.831  18.869  0.00  0.00    +0.000 NA
ATOM     15  C   UNL     1      -5.064  12.443  19.074  0.00  0.00    +0.000 A 
ATOM     16  C   UNL     1      -5.107  13.332  20.126  0.00  0.00    +0.000 A 
ATOM     17  S   UNL     1      -3.585  13.347  20.926  0.00  0.00    +0.000 S 
ATOM     18  H   UNL     1      -1.147  12.368  20.635  0.00  0.00    +0.000 HD
ENDBRANCH   9  10
ENDBRANCH   6   9
ENDBRANCH   1   3
BRANCH   1  19
ATOM     19  C   UNL     1       1.564   4.835  20.267  0.00  0.00    +0.000 C 
BRANCH  19  21
ATOM     20  C   UNL     1       2.064   3.015  21.949  0.00  0.00    +0.000 C 
ATOM     21  C   UNL     1       2.369   3.542  20.545  0.00  0.00    +0.000 C 
BRANCH  21  22
ATOM     22  N   UNL     1       2.136   2.460  19.564  0.00  0.00    +0.000 NA
ATOM     23  H   UNL     1       1.197   2.086  19.681  0.00  0.00    +0.000 HD
BRANCH  22  24
ATOM     24  C   UNL     1       2.343   2.873  18.168  0.00  0.00    +0.000 C 
BRANCH  24  25
ATOM     25  C   UNL     1       3.793   2.717  17.622  0.00  0.00    +0.000 C 
BRANCH  25  26
ATOM     26  C   UNL     1       4.377   3.957  16.973  0.00  0.00    +0.000 A 
ATOM     27  C   UNL     1       4.002   5.227  17.435  0.00  0.00    +0.000 A 
ATOM     28  C   UNL     1       4.557   6.384  16.880  0.00  0.00    +0.000 A 
ATOM     29  C   UNL     1       5.488   6.286  15.849  0.00  0.00    +0.000 A 
ATOM     30  C   UNL     1       5.849   5.036  15.363  0.00  0.00    +0.000 A 
ATOM     31 CL   UNL     1       6.997   4.908  14.089  0.00  0.00    +0.000 Cl
ATOM     32  C   UNL     1       5.298   3.878  15.914  0.00  0.00    +0.000 A 
ENDBRANCH  25  26
BRANCH  25  33
ATOM     33  O   UNL     1       4.648   2.295  18.686  0.00  0.00    +0.000 OA
ATOM     34  H   UNL     1       5.001   3.097  19.107  0.00  0.00    +0.000 HD
ENDBRANCH  25  33
ENDBRANCH  24  25
ENDBRANCH  22  24
ENDBRANCH  21  22
ENDBRANCH  19  21
ENDBRANCH   1  19
TORSDOF 10
ENDMDL
MODEL 8
REMARK VINA RESULT:      -7.7      1.556      1.982
REMARK  Name = 
REMARK  11 active torsions:
REMARK  status: ('A' for Active; 'I' for Inactive)
REMARK    1  A    between atoms: C_1  and  C_2
REMARK    2  A    between atoms: C_2  and  C_3
REMARK    3  A    between atoms: C_2  and  N_20
REMARK    4  A    between atoms: C_3  and  N_4
REMARK    5  A    between atoms: N_4  and  C_5
REMARK    6  A    between atoms: C_8  and  C_9
REMARK    7  A    between atoms: C_9  and  C_10
REMARK    8  A    between atoms: N_20  and  C_21
REMARK    9  A    between atoms: C_21  and  C_22
REMARK   10  A    between atoms: C_22  and  O_23
REMARK   11  A    between atoms: C_22  and  C_24
REMARK                            x       y       z     vdW  Elec       q    Type
REMARK                         _______ _______ _______ _____ _____    ______ ____
ROOT
ATOM      1  N   UNL     1       2.428   6.383  20.447  0.00  0.00    +0.000 N 
ATOM      2  H   UNL     1       2.993   6.506  21.282  0.00  0.00    +0.000 HD
ENDROOT
BRANCH   1   3
ATOM      3  C   UNL     1       1.977   7.621  19.982  0.00  0.00    +0.000 A 
ATOM      4  C   UNL     1       2.161   8.069  18.670  0.00  0.00    +0.000 A 
ATOM      5  C   UNL     1       1.674   9.307  18.258  0.00  0.00    +0.000 A 
ATOM      6  C   UNL     1       1.013  10.142  19.161  0.00  0.00    +0.000 A 
ATOM      7  C   UNL     1       0.883   9.737  20.495  0.00  0.00    +0.000 A 
ATOM      8  C   UNL     1       1.358   8.486  20.893  0.00  0.00    +0.000 A 
BRANCH   6   9
ATOM      9  C   UNL     1       0.479  11.468  18.697  0.00  0.00    +0.000 C 
BRANCH   9  10
ATOM     10  C   UNL     1      -0.992  11.694  19.003  0.00  0.00    +0.000 C 
ATOM     11  O   UNL     1      -1.331  11.932  20.160  0.00  0.00    +0.000 OA
ATOM     12  N   UNL     1      -1.838  11.515  17.926  0.00  0.00    +0.000 N 
ATOM     13  C   UNL     1      -3.194  11.609  18.073  0.00  0.00    +0.000 A 
ATOM     14  N   UNL     1      -3.878  12.018  19.109  0.00  0.00    +0.000 NA
ATOM     15  C   UNL     1      -5.223  11.837  18.877  0.00  0.00    +0.000 A 
ATOM     16  C   UNL     1      -5.543  11.300  17.649  0.00  0.00    +0.000 A 
ATOM     17  S   UNL     1      -4.106  11.078  16.730  0.00  0.00    +0.000 S 
ATOM     18  H   UNL     1      -1.484  11.242  17.020  0.00  0.00    +0.000 HD
ENDBRANCH   9  10
ENDBRANCH   6   9
ENDBRANCH   1   3
BRANCH   1  19
ATOM     19  C   UNL     1       1.477   5.275  20.540  0.00  0.00    +0.000 C 
BRANCH  19  21
ATOM     20  C   UNL     1       1.206   2.798  20.969  0.00  0.00    +0.000 C 
ATOM     21  C   UNL     1       2.147   3.998  21.105  0.00  0.00    +0.000 C 
BRANCH  21  22
ATOM     22  N   UNL     1       3.445   3.666  20.480  0.00  0.00    +0.000 NA
ATOM     23  H   UNL     1       4.008   3.120  21.127  0.00  0.00    +0.000 HD
BRANCH  22  24
ATOM     24  C   UNL     1       3.319   2.955  19.198  0.00  0.00    +0.000 C 
BRANCH  24  25
ATOM     25  C   UNL     1       3.287   3.851  17.926  0.00  0.00    +0.000 C 
BRANCH  25  26
ATOM     26  C   UNL     1       4.636   4.111  17.283  0.00  0.00    +0.000 A 
ATOM     27  C   UNL     1       5.715   4.533  18.075  0.00  0.00    +0.000 A 
ATOM     28  C   UNL     1       6.978   4.741  17.512  0.00  0.00    +0.000 A 
ATOM     29  C   UNL     1       7.177   4.538  16.148  0.00  0.00    +0.000 A 
ATOM     30  C   UNL     1       6.111   4.147  15.347  0.00  0.00    +0.000 A 
ATOM     31 CL   UNL     1       6.349   3.898  13.663  0.00  0.00    +0.000 Cl
ATOM     32  C   UNL     1       4.848   3.938  15.905  0.00  0.00    +0.000 A 
ENDBRANCH  25  26
BRANCH  25  33
ATOM     33  O   UNL     1       2.413   3.261  16.962  0.00  0.00    +0.000 OA
ATOM     34  H   UNL     1       1.629   2.944  17.440  0.00  0.00    +0.000 HD
ENDBRANCH  25  33
ENDBRANCH  24  25
ENDBRANCH  22  24
ENDBRANCH  21  22
ENDBRANCH  19  21
ENDBRANCH   1  19
TORSDOF 10
ENDMDL
MODEL 9
REMARK VINA RESULT:      -7.7      1.147      1.478
REMARK  Name = 
REMARK  11 active torsions:
REMARK  status: ('A' for Active; 'I' for Inactive)
REMARK    1  A    between atoms: C_1  and  C_2
REMARK    2  A    between atoms: C_2  and  C_3
REMARK    3  A    between atoms: C_2  and  N_20
REMARK    4  A    between atoms: C_3  and  N_4
REMARK    5  A    between atoms: N_4  and  C_5
REMARK    6  A    between atoms: C_8  and  C_9
REMARK    7  A    between atoms: C_9  and  C_10
REMARK    8  A    between atoms: N_20  and  C_21
REMARK    9  A    between atoms: C_21  and  C_22
REMARK   10  A    between atoms: C_22  and  O_23
REMARK   11  A    between atoms: C_22  and  C_24
REMARK                            x       y       z     vdW  Elec       q    Type
REMARK                         _______ _______ _______ _____ _____    ______ ____
ROOT
ATOM      1  N   UNL     1       2.367   5.636  20.830  0.00  0.00    +0.000 N 
ATOM      2  H   UNL     1       2.831   5.764  21.724  0.00  0.00    +0.000 HD
ENDROOT
BRANCH   1   3
ATOM      3  C   UNL     1       2.078   6.876  20.254  0.00  0.00    +0.000 A 
ATOM      4  C   UNL     1       2.523   7.263  18.986  0.00  0.00    +0.000 A 
ATOM      5  C   UNL     1       2.189   8.507  18.455  0.00  0.00    +0.000 A 
ATOM      6  C   UNL     1       1.423   9.409  19.196  0.00  0.00    +0.000 A 
ATOM      7  C   UNL     1       1.030   9.063  20.495  0.00  0.00    +0.000 A 
ATOM      8  C   UNL     1       1.354   7.806  21.010  0.00  0.00    +0.000 A 
BRANCH   6   9
ATOM      9  C   UNL     1       1.059  10.740  18.604  0.00  0.00    +0.000 C 
BRANCH   9  10
ATOM     10  C   UNL     1      -0.407  11.114  18.753  0.00  0.00    +0.000 C 
ATOM     11  O   UNL     1      -0.849  11.357  19.874  0.00  0.00    +0.000 OA
ATOM     12  N   UNL     1      -1.138  11.052  17.583  0.00  0.00    +0.000 N 
ATOM     13  C   UNL     1      -2.486  11.287  17.582  0.00  0.00    +0.000 A 
ATOM     14  N   UNL     1      -3.237  11.739  18.551  0.00  0.00    +0.000 NA
ATOM     15  C   UNL     1      -4.559  11.708  18.164  0.00  0.00    +0.000 A 
ATOM     16  C   UNL     1      -4.790  11.239  16.889  0.00  0.00    +0.000 A 
ATOM     17  S   UNL     1      -3.288  10.889  16.128  0.00  0.00    +0.000 S 
ATOM     18  H   UNL     1      -0.713  10.767  16.712  0.00  0.00    +0.000 HD
ENDBRANCH   9  10
ENDBRANCH   6   9
ENDBRANCH   1   3
BRANCH   1  19
ATOM     19  C   UNL     1       1.326   4.609  20.850  0.00  0.00    +0.000 C 
BRANCH  19  21
ATOM     20  C   UNL     1       0.753   2.700  19.294  0.00  0.00    +0.000 C 
ATOM     21  C   UNL     1       1.823   3.284  20.220  0.00  0.00    +0.000 C 
BRANCH  21  22
ATOM     22  N   UNL     1       3.092   3.407  19.471  0.00  0.00    +0.000 NA
ATOM     23  H   UNL     1       3.607   2.531  19.523  0.00  0.00    +0.000 HD
BRANCH  22  24
ATOM     24  C   UNL     1       2.914   3.804  18.067  0.00  0.00    +0.000 C 
BRANCH  24  25
ATOM     25  C   UNL     1       3.853   3.105  17.040  0.00  0.00    +0.000 C 
BRANCH  25  26
ATOM     26  C   UNL     1       5.040   3.929  16.582  0.00  0.00    +0.000 A 
ATOM     27  C   UNL     1       5.579   3.724  15.303  0.00  0.00    +0.000 A 
ATOM     28  C   UNL     1       6.649   4.498  14.843  0.00  0.00    +0.000 A 
ATOM     29  C   UNL     1       7.199   5.484  15.659  0.00  0.00    +0.000 A 
ATOM     30  C   UNL     1       6.693   5.681  16.939  0.00  0.00    +0.000 A 
ATOM     31 CL   UNL     1       7.368   6.894  17.952  0.00  0.00    +0.000 Cl
ATOM     32  C   UNL     1       5.625   4.910  17.402  0.00  0.00    +0.000 A 
ENDBRANCH  25  26
BRANCH  25  33
ATOM     33  O   UNL     1       4.321   1.876  17.599  0.00  0.00    +0.000 OA
ATOM     34  H   UNL     1       4.054   1.164  16.994  0.00  0.00    +0.000 HD
ENDBRANCH  25  33
ENDBRANCH  24  25
ENDBRANCH  22  24
ENDBRANCH  21  22
ENDBRANCH  19  21
ENDBRANCH   1  19
TORSDOF 10
ENDMDL
