MODEL 1
REMARK VINA RESULT:      -7.4      0.000      0.000
REMARK  Name = 
REMARK  11 active torsions:
REMARK  status: ('A' for Active; 'I' for Inactive)
REMARK    1  A    between atoms: C_1  and  C_2
REMARK    2  A    between atoms: C_2  and  C_3
REMARK    3  A    between atoms: C_3  and  C_4
REMARK    4  A    between atoms: C_4  and  C_5
REMARK    5  A    between atoms: C_5  and  C_6
REMARK    6  A    between atoms: C_6  and  O_7
REMARK    7  A    between atoms: O_7  and  C_8
REMARK    8  A    between atoms: C_16  and  C_17
REMARK    9  A    between atoms: C_17  and  N_18
REMARK   10  A    between atoms: N_18  and  C_19
REMARK   11  A    between atoms: N_18  and  C_20
REMARK                            x       y       z     vdW  Elec       q    Type
REMARK                         _______ _______ _______ _____ _____    ______ ____
ROOT
ATOM      1  C   UNL     1       6.561   5.347  15.636  0.00  0.00    +0.000 A 
ATOM      2  C   UNL     1       5.511   6.258  15.512  0.00  0.00    +0.000 A 
ATOM      3  C   UNL     1       4.476   6.268  16.445  0.00  0.00    +0.000 A 
ATOM      4  C   UNL     1       4.518   5.373  17.511  0.00  0.00    +0.000 A 
ATOM      5  C   UNL     1       5.593   4.507  17.693  0.00  0.00    +0.000 A 
ATOM      6  C   UNL     1       6.612   4.493  16.748  0.00  0.00    +0.000 A 
ATOM      7  O   UNL     1       5.708   3.672  18.776  0.00  0.00    +0.000 OA
ATOM      8  C   UNL     1       4.485   3.448  19.505  0.00  0.00    +0.000 C 
ATOM      9  C   UNL     1       3.730   4.738  19.803  0.00  0.00    +0.000 C 
ATOM     10  C   UNL     1       3.398   5.340  18.460  0.00  0.00    +0.000 C 
ATOM     11  O   UNL     1       2.306   5.804  18.160  0.00  0.00    +0.000 OA
ENDROOT
BRANCH   1  12
ATOM     12  O   UNL     1       7.579   5.204  14.725  0.00  0.00    +0.000 OA
BRANCH  12  13
ATOM     13  C   UNL     1       7.168   4.851  13.404  0.00  0.00    +0.000 C 
BRANCH  13  14
ATOM     14  C   UNL     1       6.385   3.548  13.444  0.00  0.00    +0.000 C 
BRANCH  14  15
ATOM     15  C   UNL     1       5.837   3.218  12.055  0.00  0.00    +0.000 C 
BRANCH  15  16
ATOM     16  C   UNL     1       4.432   3.777  11.872  0.00  0.00    +0.000 C 
BRANCH  16  18
ATOM     17  C   UNL     1       3.063   4.049   9.785  0.00  0.00    +0.000 C 
ATOM     18  C   UNL     1       3.693   3.056  10.746  0.00  0.00    +0.000 C 
ENDBRANCH  16  18
ENDBRANCH  15  16
ENDBRANCH  14  15
ENDBRANCH  13  14
ENDBRANCH  12  13
ENDBRANCH   1  12
BRANCH   9  19
ATOM     19  C   UNL     1       2.428   4.528  20.597  0.00  0.00    +0.000 C 
BRANCH  19  20
ATOM     20  N   UNL     1       1.869   3.159  20.570  0.00  0.00    +0.000 NA
ATOM     21  C   UNL     1       1.505   2.680  21.907  0.00  0.00    +0.000 C 
ATOM     22  C   UNL     1       0.672   3.150  19.715  0.00  0.00    +0.000 C 
ENDBRANCH  19  20
ENDBRANCH   9  19
TORSDOF 8
ENDMDL
MODEL 2
REMARK VINA RESULT:      -6.9      4.606      6.915
REMARK  Name = 
REMARK  11 active torsions:
REMARK  status: ('A' for Active; 'I' for Inactive)
REMARK    1  A    between atoms: C_1  and  C_2
REMARK    2  A    between atoms: C_2  and  C_3
REMARK    3  A    between atoms: C_3  and  C_4
REMARK    4  A    between atoms: C_4  and  C_5
REMARK    5  A    between atoms: C_5  and  C_6
REMARK    6  A    between atoms: C_6  and  O_7
REMARK    7  A    between atoms: O_7  and  C_8
REMARK    8  A    between atoms: C_16  and  C_17
REMARK    9  A    between atoms: C_17  and  N_18
REMARK   10  A    between atoms: N_18  and  C_19
REMARK   11  A    between atoms: N_18  and  C_20
REMARK                            x       y       z     vdW  Elec       q    Type
REMARK                         _______ _______ _______ _____ _____    ______ ____
ROOT
ATOM      1  C   UNL     1       7.304   7.368  17.728  0.00  0.00    +0.000 A 
ATOM      2  C   UNL     1       7.870   6.412  18.574  0.00  0.00    +0.000 A 
ATOM      3  C   UNL     1       7.152   5.269  18.922  0.00  0.00    +0.000 A 
ATOM      4  C   UNL     1       5.875   5.087  18.397  0.00  0.00    +0.000 A 
ATOM      5  C   UNL     1       5.323   5.992  17.495  0.00  0.00    +0.000 A 
ATOM      6  C   UNL     1       6.039   7.137  17.166  0.00  0.00    +0.000 A 
ATOM      7  O   UNL     1       4.104   5.801  16.894  0.00  0.00    +0.000 OA
ATOM      8  C   UNL     1       3.254   4.829  17.535  0.00  0.00    +0.000 C 
ATOM      9  C   UNL     1       3.984   3.533  17.864  0.00  0.00    +0.000 C 
ATOM     10  C   UNL     1       5.093   3.915  18.812  0.00  0.00    +0.000 C 
ATOM     11  O   UNL     1       5.373   3.304  19.835  0.00  0.00    +0.000 OA
ENDROOT
BRANCH   1  12
ATOM     12  O   UNL     1       7.897   8.562  17.396  0.00  0.00    +0.000 OA
BRANCH  12  13
ATOM     13  C   UNL     1       8.503   9.262  18.482  0.00  0.00    +0.000 C 
BRANCH  13  14
ATOM     14  C   UNL     1       9.227  10.493  17.956  0.00  0.00    +0.000 C 
BRANCH  14  15
ATOM     15  C   UNL     1      10.067  11.125  19.065  0.00  0.00    +0.000 C 
BRANCH  15  16
ATOM     16  C   UNL     1      11.446  11.520  18.551  0.00  0.00    +0.000 C 
BRANCH  16  18
ATOM     17  C   UNL     1      11.715  13.695  19.778  0.00  0.00    +0.000 C 
ATOM     18  C   UNL     1      12.237  12.277  19.616  0.00  0.00    +0.000 C 
ENDBRANCH  16  18
ENDBRANCH  15  16
ENDBRANCH  14  15
ENDBRANCH  13  14
ENDBRANCH  12  13
ENDBRANCH   1  12
BRANCH   9  19
ATOM     19  C   UNL     1       3.094   2.470  18.534  0.00  0.00    +0.000 C 
BRANCH  19  20
ATOM     20  N   UNL     1       1.909   2.981  19.255  0.00  0.00    +0.000 NA
ATOM     21  C   UNL     1       0.659   2.396  18.760  0.00  0.00    +0.000 C 
ATOM     22  C   UNL     1       2.052   2.668  20.686  0.00  0.00    +0.000 C 
ENDBRANCH  19  20
ENDBRANCH   9  19
TORSDOF 8
ENDMDL
MODEL 3
REMARK VINA RESULT:      -6.7      4.524      6.922
REMARK  Name = 
REMARK  11 active torsions:
REMARK  status: ('A' for Active; 'I' for Inactive)
REMARK    1  A    between atoms: C_1  and  C_2
REMARK    2  A    between atoms: C_2  and  C_3
REMARK    3  A    between atoms: C_3  and  C_4
REMARK    4  A    between atoms: C_4  and  C_5
REMARK    5  A    between atoms: C_5  and  C_6
REMARK    6  A    between atoms: C_6  and  O_7
REMARK    7  A    between atoms: O_7  and  C_8
REMARK    8  A    between atoms: C_16  and  C_17
REMARK    9  A    between atoms: C_17  and  N_18
REMARK   10  A    between atoms: N_18  and  C_19
REMARK   11  A    between atoms: N_18  and  C_20
REMARK                            x       y       z     vdW  Elec       q    Type
REMARK                         _______ _______ _______ _____ _____    ______ ____
ROOT
ATOM      1  C   UNL     1       7.398   7.466  17.796  0.00  0.00    +0.000 A 
ATOM      2  C   UNL     1       7.944   6.498  18.641  0.00  0.00    +0.000 A 
ATOM      3  C   UNL     1       7.215   5.353  18.961  0.00  0.00    +0.000 A 
ATOM      4  C   UNL     1       5.949   5.181  18.408  0.00  0.00    +0.000 A 
ATOM      5  C   UNL     1       5.418   6.099  17.506  0.00  0.00    +0.000 A 
ATOM      6  C   UNL     1       6.144   7.246  17.206  0.00  0.00    +0.000 A 
ATOM      7  O   UNL     1       4.211   5.920  16.878  0.00  0.00    +0.000 OA
ATOM      8  C   UNL     1       3.346   4.943  17.489  0.00  0.00    +0.000 C 
ATOM      9  C   UNL     1       4.065   3.640  17.817  0.00  0.00    +0.000 C 
ATOM     10  C   UNL     1       5.155   4.007  18.792  0.00  0.00    +0.000 C 
ATOM     11  O   UNL     1       5.413   3.382  19.812  0.00  0.00    +0.000 OA
ENDROOT
BRANCH   1  12
ATOM     12  O   UNL     1       8.002   8.661  17.491  0.00  0.00    +0.000 OA
BRANCH  12  13
ATOM     13  C   UNL     1       8.628   9.324  18.589  0.00  0.00    +0.000 C 
BRANCH  13  14
ATOM     14  C   UNL     1       9.269  10.617  18.108  0.00  0.00    +0.000 C 
BRANCH  14  15
ATOM     15  C   UNL     1      10.131  11.223  19.215  0.00  0.00    +0.000 C 
BRANCH  15  16
ATOM     16  C   UNL     1       9.501  11.004  20.584  0.00  0.00    +0.000 C 
BRANCH  16  18
ATOM     17  C   UNL     1      10.326  13.343  20.977  0.00  0.00    +0.000 C 
ATOM     18  C   UNL     1       9.236  12.332  21.290  0.00  0.00    +0.000 C 
ENDBRANCH  16  18
ENDBRANCH  15  16
ENDBRANCH  14  15
ENDBRANCH  13  14
ENDBRANCH  12  13
ENDBRANCH   1  12
BRANCH   9  19
ATOM     19  C   UNL     1       3.157   2.572  18.455  0.00  0.00    +0.000 C 
BRANCH  19  20
ATOM     20  N   UNL     1       1.975   3.080  19.184  0.00  0.00    +0.000 NA
ATOM     21  C   UNL     1       0.730   2.450  18.734  0.00  0.00    +0.000 C 
ATOM     22  C   UNL     1       2.153   2.819  20.621  0.00  0.00    +0.000 C 
ENDBRANCH  19  20
ENDBRANCH   9  19
TORSDOF 8
ENDMDL
MODEL 4
REMARK VINA RESULT:      -6.7      2.592      6.743
REMARK  Name = 
REMARK  11 active torsions:
REMARK  status: ('A' for Active; 'I' for Inactive)
REMARK    1  A    between atoms: C_1  and  C_2
REMARK    2  A    between atoms: C_2  and  C_3
REMARK    3  A    between atoms: C_3  and  C_4
REMARK    4  A    between atoms: C_4  and  C_5
REMARK    5  A    between atoms: C_5  and  C_6
REMARK    6  A    between atoms: C_6  and  O_7
REMARK    7  A    between atoms: O_7  and  C_8
REMARK    8  A    between atoms: C_16  and  C_17
REMARK    9  A    between atoms: C_17  and  N_18
REMARK   10  A    between atoms: N_18  and  C_19
REMARK   11  A    between atoms: N_18  and  C_20
REMARK                            x       y       z     vdW  Elec       q    Type
REMARK                         _______ _______ _______ _____ _____    ______ ____
ROOT
ATOM      1  C   UNL     1       3.377   5.482  19.645  0.00  0.00    +0.000 A 
ATOM      2  C   UNL     1       2.808   6.191  18.586  0.00  0.00    +0.000 A 
ATOM      3  C   UNL     1       3.478   6.289  17.366  0.00  0.00    +0.000 A 
ATOM      4  C   UNL     1       4.707   5.652  17.216  0.00  0.00    +0.000 A 
ATOM      5  C   UNL     1       5.255   4.879  18.236  0.00  0.00    +0.000 A 
ATOM      6  C   UNL     1       4.589   4.801  19.454  0.00  0.00    +0.000 A 
ATOM      7  O   UNL     1       6.421   4.170  18.095  0.00  0.00    +0.000 OA
ATOM      8  C   UNL     1       7.249   4.575  16.987  0.00  0.00    +0.000 C 
ATOM      9  C   UNL     1       6.465   4.731  15.690  0.00  0.00    +0.000 C 
ATOM     10  C   UNL     1       5.442   5.806  15.954  0.00  0.00    +0.000 C 
ATOM     11  O   UNL     1       5.189   6.728  15.190  0.00  0.00    +0.000 OA
ENDROOT
BRANCH   1  12
ATOM     12  O   UNL     1       2.836   5.399  20.905  0.00  0.00    +0.000 OA
BRANCH  12  13
ATOM     13  C   UNL     1       1.446   5.076  20.950  0.00  0.00    +0.000 C 
BRANCH  13  14
ATOM     14  C   UNL     1       1.265   3.574  20.794  0.00  0.00    +0.000 C 
BRANCH  14  15
ATOM     15  C   UNL     1       0.445   3.267  19.542  0.00  0.00    +0.000 C 
BRANCH  15  16
ATOM     16  C   UNL     1       1.123   2.203  18.688  0.00  0.00    +0.000 C 
BRANCH  16  18
ATOM     17  C   UNL     1       3.482   1.682  18.003  0.00  0.00    +0.000 C 
ATOM     18  C   UNL     1       2.545   1.930  19.173  0.00  0.00    +0.000 C 
ENDBRANCH  16  18
ENDBRANCH  15  16
ENDBRANCH  14  15
ENDBRANCH  13  14
ENDBRANCH  12  13
ENDBRANCH   1  12
BRANCH   9  19
ATOM     19  C   UNL     1       7.331   5.146  14.486  0.00  0.00    +0.000 C 
BRANCH  19  20
ATOM     20  N   UNL     1       7.231   4.283  13.290  0.00  0.00    +0.000 NA
ATOM     21  C   UNL     1       5.894   3.700  13.134  0.00  0.00    +0.000 C 
ATOM     22  C   UNL     1       7.546   5.084  12.096  0.00  0.00    +0.000 C 
ENDBRANCH  19  20
ENDBRANCH   9  19
TORSDOF 8
ENDMDL
MODEL 5
REMARK VINA RESULT:      -6.6      4.319      6.805
REMARK  Name = 
REMARK  11 active torsions:
REMARK  status: ('A' for Active; 'I' for Inactive)
REMARK    1  A    between atoms: C_1  and  C_2
REMARK    2  A    between atoms: C_2  and  C_3
REMARK    3  A    between atoms: C_3  and  C_4
REMARK    4  A    between atoms: C_4  and  C_5
REMARK    5  A    between atoms: C_5  and  C_6
REMARK    6  A    between atoms: C_6  and  O_7
REMARK    7  A    between atoms: O_7  and  C_8
REMARK    8  A    between atoms: C_16  and  C_17
REMARK    9  A    between atoms: C_17  and  N_18
REMARK   10  A    between atoms: N_18  and  C_19
REMARK   11  A    between atoms: N_18  and  C_20
REMARK                            x       y       z     vdW  Elec       q    Type
REMARK                         _______ _______ _______ _____ _____    ______ ____
ROOT
ATOM      1  C   UNL     1       3.692   5.853  18.506  0.00  0.00    +0.000 A 
ATOM      2  C   UNL     1       3.079   5.703  19.751  0.00  0.00    +0.000 A 
ATOM      3  C   UNL     1       2.250   6.705  20.251  0.00  0.00    +0.000 A 
ATOM      4  C   UNL     1       2.026   7.844  19.482  0.00  0.00    +0.000 A 
ATOM      5  C   UNL     1       2.569   7.980  18.208  0.00  0.00    +0.000 A 
ATOM      6  C   UNL     1       3.409   6.984  17.724  0.00  0.00    +0.000 A 
ATOM      7  O   UNL     1       2.303   9.050  17.390  0.00  0.00    +0.000 OA
ATOM      8  C   UNL     1       1.757  10.205  18.057  0.00  0.00    +0.000 C 
ATOM      9  C   UNL     1       0.614   9.857  19.002  0.00  0.00    +0.000 C 
ATOM     10  C   UNL     1       1.203   8.928  20.034  0.00  0.00    +0.000 C 
ATOM     11  O   UNL     1       1.007   9.015  21.239  0.00  0.00    +0.000 OA
ENDROOT
BRANCH   1  12
ATOM     12  O   UNL     1       4.589   4.963  17.967  0.00  0.00    +0.000 OA
BRANCH  12  13
ATOM     13  C   UNL     1       4.584   3.663  18.558  0.00  0.00    +0.000 C 
BRANCH  13  14
ATOM     14  C   UNL     1       3.737   2.722  17.715  0.00  0.00    +0.000 C 
BRANCH  14  15
ATOM     15  C   UNL     1       2.662   2.062  18.579  0.00  0.00    +0.000 C 
BRANCH  15  16
ATOM     16  C   UNL     1       1.342   2.816  18.483  0.00  0.00    +0.000 C 
BRANCH  16  18
ATOM     17  C   UNL     1       1.658   2.543  20.959  0.00  0.00    +0.000 C 
ATOM     18  C   UNL     1       0.717   3.014  19.862  0.00  0.00    +0.000 C 
ENDBRANCH  16  18
ENDBRANCH  15  16
ENDBRANCH  14  15
ENDBRANCH  13  14
ENDBRANCH  12  13
ENDBRANCH   1  12
BRANCH   9  19
ATOM     19  C   UNL     1       0.002  11.077  19.714  0.00  0.00    +0.000 C 
BRANCH  19  20
ATOM     20  N   UNL     1      -1.221  11.637  19.100  0.00  0.00    +0.000 NA
ATOM     21  C   UNL     1      -0.931  12.765  18.210  0.00  0.00    +0.000 C 
ATOM     22  C   UNL     1      -1.894  10.579  18.329  0.00  0.00    +0.000 C 
ENDBRANCH  19  20
ENDBRANCH   9  19
TORSDOF 8
ENDMDL
MODEL 6
REMARK VINA RESULT:      -6.6      4.800      7.183
REMARK  Name = 
REMARK  11 active torsions:
REMARK  status: ('A' for Active; 'I' for Inactive)
REMARK    1  A    between atoms: C_1  and  C_2
REMARK    2  A    between atoms: C_2  and  C_3
REMARK    3  A    between atoms: C_3  and  C_4
REMARK    4  A    between atoms: C_4  and  C_5
REMARK    5  A    between atoms: C_5  and  C_6
REMARK    6  A    between atoms: C_6  and  O_7
REMARK    7  A    between atoms: O_7  and  C_8
REMARK    8  A    between atoms: C_16  and  C_17
REMARK    9  A    between atoms: C_17  and  N_18
REMARK   10  A    between atoms: N_18  and  C_19
REMARK   11  A    between atoms: N_18  and  C_20
REMARK                            x       y       z     vdW  Elec       q    Type
REMARK                         _______ _______ _______ _____ _____    ______ ____
ROOT
ATOM      1  C   UNL     1       3.110   6.755  18.234  0.00  0.00    +0.000 A 
ATOM      2  C   UNL     1       2.967   7.902  17.454  0.00  0.00    +0.000 A 
ATOM      3  C   UNL     1       2.195   8.970  17.910  0.00  0.00    +0.000 A 
ATOM      4  C   UNL     1       1.590   8.881  19.161  0.00  0.00    +0.000 A 
ATOM      5  C   UNL     1       1.782   7.776  19.985  0.00  0.00    +0.000 A 
ATOM      6  C   UNL     1       2.539   6.709  19.515  0.00  0.00    +0.000 A 
ATOM      7  O   UNL     1       1.271   7.691  21.256  0.00  0.00    +0.000 OA
ATOM      8  C   UNL     1       0.207   8.619  21.548  0.00  0.00    +0.000 C 
ATOM      9  C   UNL     1       0.528  10.042  21.110  0.00  0.00    +0.000 C 
ATOM     10  C   UNL     1       0.726   9.978  19.616  0.00  0.00    +0.000 C 
ATOM     11  O   UNL     1       0.253  10.776  18.818  0.00  0.00    +0.000 OA
ENDROOT
BRANCH   1  12
ATOM     12  O   UNL     1       3.779   5.622  17.837  0.00  0.00    +0.000 OA
BRANCH  12  13
ATOM     13  C   UNL     1       3.843   4.581  18.811  0.00  0.00    +0.000 C 
BRANCH  13  14
ATOM     14  C   UNL     1       3.322   3.284  18.210  0.00  0.00    +0.000 C 
BRANCH  14  15
ATOM     15  C   UNL     1       1.820   3.390  17.946  0.00  0.00    +0.000 C 
BRANCH  15  16
ATOM     16  C   UNL     1       1.025   2.599  18.977  0.00  0.00    +0.000 C 
BRANCH  16  18
ATOM     17  C   UNL     1       1.457   2.791  21.443  0.00  0.00    +0.000 C 
ATOM     18  C   UNL     1       0.781   3.424  20.239  0.00  0.00    +0.000 C 
ENDBRANCH  16  18
ENDBRANCH  15  16
ENDBRANCH  14  15
ENDBRANCH  13  14
ENDBRANCH  12  13
ENDBRANCH   1  12
BRANCH   9  19
ATOM     19  C   UNL     1      -0.586  11.057  21.427  0.00  0.00    +0.000 C 
BRANCH  19  20
ATOM     20  N   UNL     1      -0.181  12.231  22.228  0.00  0.00    +0.000 NA
ATOM     21  C   UNL     1       0.309  13.333  21.394  0.00  0.00    +0.000 C 
ATOM     22  C   UNL     1      -1.339  12.699  23.007  0.00  0.00    +0.000 C 
ENDBRANCH  19  20
ENDBRANCH   9  19
TORSDOF 8
ENDMDL
MODEL 7
REMARK VINA RESULT:      -6.6      3.967      6.238
REMARK  Name = 
REMARK  11 active torsions:
REMARK  status: ('A' for Active; 'I' for Inactive)
REMARK    1  A    between atoms: C_1  and  C_2
REMARK    2  A    between atoms: C_2  and  C_3
REMARK    3  A    between atoms: C_3  and  C_4
REMARK    4  A    between atoms: C_4  and  C_5
REMARK    5  A    between atoms: C_5  and  C_6
REMARK    6  A    between atoms: C_6  and  O_7
REMARK    7  A    between atoms: O_7  and  C_8
REMARK    8  A    between atoms: C_16  and  C_17
REMARK    9  A    between atoms: C_17  and  N_18
REMARK   10  A    between atoms: N_18  and  C_19
REMARK   11  A    between atoms: N_18  and  C_20
REMARK                            x       y       z     vdW  Elec       q    Type
REMARK                         _______ _______ _______ _____ _____    ______ ____
ROOT
ATOM      1  C   UNL     1       7.297   7.160  17.474  0.00  0.00    +0.000 A 
ATOM      2  C   UNL     1       7.900   6.074  18.111  0.00  0.00    +0.000 A 
ATOM      3  C   UNL     1       7.126   5.007  18.564  0.00  0.00    +0.000 A 
ATOM      4  C   UNL     1       5.750   5.032  18.353  0.00  0.00    +0.000 A 
ATOM      5  C   UNL     1       5.140   6.071  17.655  0.00  0.00    +0.000 A 
ATOM      6  C   UNL     1       5.916   7.138  17.222  0.00  0.00    +0.000 A 
ATOM      7  O   UNL     1       3.800   6.087  17.355  0.00  0.00    +0.000 OA
ATOM      8  C   UNL     1       2.992   5.181  18.132  0.00  0.00    +0.000 C 
ATOM      9  C   UNL     1       3.585   3.780  18.212  0.00  0.00    +0.000 C 
ATOM     10  C   UNL     1       4.926   3.939  18.884  0.00  0.00    +0.000 C 
ATOM     11  O   UNL     1       5.344   3.216  19.778  0.00  0.00    +0.000 OA
ENDROOT
BRANCH   1  12
ATOM     12  O   UNL     1       7.962   8.292  17.069  0.00  0.00    +0.000 OA
BRANCH  12  13
ATOM     13  C   UNL     1       7.862   9.406  17.956  0.00  0.00    +0.000 C 
BRANCH  13  14
ATOM     14  C   UNL     1       9.036   9.395  18.924  0.00  0.00    +0.000 C 
BRANCH  14  15
ATOM     15  C   UNL     1       9.578  10.811  19.114  0.00  0.00    +0.000 C 
BRANCH  15  16
ATOM     16  C   UNL     1      10.169  11.351  17.818  0.00  0.00    +0.000 C 
BRANCH  16  18
ATOM     17  C   UNL     1       8.774  13.438  17.776  0.00  0.00    +0.000 C 
ATOM     18  C   UNL     1      10.186  12.879  17.813  0.00  0.00    +0.000 C 
ENDBRANCH  16  18
ENDBRANCH  15  16
ENDBRANCH  14  15
ENDBRANCH  13  14
ENDBRANCH  12  13
ENDBRANCH   1  12
BRANCH   9  19
ATOM     19  C   UNL     1       2.731   2.788  19.022  0.00  0.00    +0.000 C 
BRANCH  19  20
ATOM     20  N   UNL     1       2.014   3.352  20.186  0.00  0.00    +0.000 NA
ATOM     21  C   UNL     1       0.558   3.246  20.049  0.00  0.00    +0.000 C 
ATOM     22  C   UNL     1       2.436   2.634  21.399  0.00  0.00    +0.000 C 
ENDBRANCH  19  20
ENDBRANCH   9  19
TORSDOF 8
ENDMDL
MODEL 8
REMARK VINA RESULT:      -6.5      4.883      7.502
REMARK  Name = 
REMARK  11 active torsions:
REMARK  status: ('A' for Active; 'I' for Inactive)
REMARK    1  A    between atoms: C_1  and  C_2
REMARK    2  A    between atoms: C_2  and  C_3
REMARK    3  A    between atoms: C_3  and  C_4
REMARK    4  A    between atoms: C_4  and  C_5
REMARK    5  A    between atoms: C_5  and  C_6
REMARK    6  A    between atoms: C_6  and  O_7
REMARK    7  A    between atoms: O_7  and  C_8
REMARK    8  A    between atoms: C_16  and  C_17
REMARK    9  A    between atoms: C_17  and  N_18
REMARK   10  A    between atoms: N_18  and  C_19
REMARK   11  A    between atoms: N_18  and  C_20
REMARK                            x       y       z     vdW  Elec       q    Type
REMARK                         _______ _______ _______ _____ _____    ______ ____
ROOT
ATOM      1  C   UNL     1       2.732   6.256  19.286  0.00  0.00    +0.000 A 
ATOM      2  C   UNL     1       2.021   6.462  20.470  0.00  0.00    +0.000 A 
ATOM      3  C   UNL     1       1.395   7.685  20.710  0.00  0.00    +0.000 A 
ATOM      4  C   UNL     1       1.472   8.685  19.744  0.00  0.00    +0.000 A 
ATOM      5  C   UNL     1       2.114   8.473  18.527  0.00  0.00    +0.000 A 
ATOM      6  C   UNL     1       2.749   7.258  18.303  0.00  0.00    +0.000 A 
ATOM      7  O   UNL     1       2.136   9.406  17.520  0.00  0.00    +0.000 OA
ATOM      8  C   UNL     1       1.810  10.749  17.927  0.00  0.00    +0.000 C 
ATOM      9  C   UNL     1       0.560  10.816  18.796  0.00  0.00    +0.000 C 
ATOM     10  C   UNL     1       0.867   9.994  20.022  0.00  0.00    +0.000 C 
ATOM     11  O   UNL     1       0.616  10.338  21.169  0.00  0.00    +0.000 OA
ENDROOT
BRANCH   1  12
ATOM     12  O   UNL     1       3.449   5.121  18.997  0.00  0.00    +0.000 OA
BRANCH  12  13
ATOM     13  C   UNL     1       3.418   4.715  17.628  0.00  0.00    +0.000 C 
BRANCH  13  14
ATOM     14  C   UNL     1       2.768   3.344  17.517  0.00  0.00    +0.000 C 
BRANCH  14  15
ATOM     15  C   UNL     1       1.361   3.376  18.114  0.00  0.00    +0.000 C 
BRANCH  15  16
ATOM     16  C   UNL     1       1.224   2.367  19.248  0.00  0.00    +0.000 C 
BRANCH  16  18
ATOM     17  C   UNL     1       2.181   2.810  21.527  0.00  0.00    +0.000 C 
ATOM     18  C   UNL     1       1.015   3.069  20.589  0.00  0.00    +0.000 C 
ENDBRANCH  16  18
ENDBRANCH  15  16
ENDBRANCH  14  15
ENDBRANCH  13  14
ENDBRANCH  12  13
ENDBRANCH   1  12
BRANCH   9  19
ATOM     19  C   UNL     1       0.179  12.243  19.229  0.00  0.00    +0.000 C 
BRANCH  19  20
ATOM     20  N   UNL     1      -1.189  12.682  18.878  0.00  0.00    +0.000 NA
ATOM     21  C   UNL     1      -1.821  11.798  17.893  0.00  0.00    +0.000 C 
ATOM     22  C   UNL     1      -2.010  12.704  20.098  0.00  0.00    +0.000 C 
ENDBRANCH  19  20
ENDBRANCH   9  19
TORSDOF 8
ENDMDL
MODEL 9
REMARK VINA RESULT:      -6.5      3.950      6.213
REMARK  Name = 
REMARK  11 active torsions:
REMARK  status: ('A' for Active; 'I' for Inactive)
REMARK    1  A    between atoms: C_1  and  C_2
REMARK    2  A    between atoms: C_2  and  C_3
REMARK    3  A    between atoms: C_3  and  C_4
REMARK    4  A    between atoms: C_4  and  C_5
REMARK    5  A    between atoms: C_5  and  C_6
REMARK    6  A    between atoms: C_6  and  O_7
REMARK    7  A    between atoms: O_7  and  C_8
REMARK    8  A    between atoms: C_16  and  C_17
REMARK    9  A    between atoms: C_17  and  N_18
REMARK   10  A    between atoms: N_18  and  C_19
REMARK   11  A    between atoms: N_18  and  C_20
REMARK                            x       y       z     vdW  Elec       q    Type
REMARK                         _______ _______ _______ _____ _____    ______ ____
ROOT
ATOM      1  C   UNL     1       6.617   6.883  17.276  0.00  0.00    +0.000 A 
ATOM      2  C   UNL     1       5.402   7.045  16.607  0.00  0.00    +0.000 A 
ATOM      3  C   UNL     1       4.332   6.194  16.880  0.00  0.00    +0.000 A 
ATOM      4  C   UNL     1       4.486   5.200  17.842  0.00  0.00    +0.000 A 
ATOM      5  C   UNL     1       5.665   5.070  18.572  0.00  0.00    +0.000 A 
ATOM      6  C   UNL     1       6.732   5.911  18.282  0.00  0.00    +0.000 A 
ATOM      7  O   UNL     1       5.823   4.157  19.585  0.00  0.00    +0.000 OA
ATOM      8  C   UNL     1       4.861   3.084  19.592  0.00  0.00    +0.000 C 
ATOM      9  C   UNL     1       3.428   3.574  19.427  0.00  0.00    +0.000 C 
ATOM     10  C   UNL     1       3.381   4.264  18.087  0.00  0.00    +0.000 C 
ATOM     11  O   UNL     1       2.494   4.111  17.257  0.00  0.00    +0.000 OA
ENDROOT
BRANCH   1  12
ATOM     12  O   UNL     1       7.751   7.615  17.017  0.00  0.00    +0.000 OA
BRANCH  12  13
ATOM     13  C   UNL     1       8.314   8.281  18.146  0.00  0.00    +0.000 C 
BRANCH  13  14
ATOM     14  C   UNL     1       8.177   9.786  17.973  0.00  0.00    +0.000 C 
BRANCH  14  15
ATOM     15  C   UNL     1       9.441  10.493  18.462  0.00  0.00    +0.000 C 
BRANCH  15  16
ATOM     16  C   UNL     1       9.377  10.756  19.961  0.00  0.00    +0.000 C 
BRANCH  16  18
ATOM     17  C   UNL     1       9.558  12.491  21.768  0.00  0.00    +0.000 C 
ATOM     18  C   UNL     1       9.561  12.241  20.269  0.00  0.00    +0.000 C 
ENDBRANCH  16  18
ENDBRANCH  15  16
ENDBRANCH  14  15
ENDBRANCH  13  14
ENDBRANCH  12  13
ENDBRANCH   1  12
BRANCH   9  19
ATOM     19  C   UNL     1       2.378   2.448  19.449  0.00  0.00    +0.000 C 
BRANCH  19  20
ATOM     20  N   UNL     1       1.272   2.615  20.416  0.00  0.00    +0.000 NA
ATOM     21  C   UNL     1       1.716   2.451  21.804  0.00  0.00    +0.000 C 
ATOM     22  C   UNL     1       0.695   3.959  20.253  0.00  0.00    +0.000 C 
ENDBRANCH  19  20
ENDBRANCH   9  19
TORSDOF 8
ENDMDL
