MODEL 1
REMARK VINA RESULT:      -8.1      0.000      0.000
REMARK  Name = 
REMARK  12 active torsions:
REMARK  status: ('A' for Active; 'I' for Inactive)
REMARK    1  A    between atoms: C_1  and  O_2
REMARK    2  A    between atoms: O_2  and  C_3
REMARK    3  A    between atoms: C_4  and  C_5
REMARK    4  A    between atoms: N_6  and  N_7
REMARK    5  A    between atoms: N_7  and  S_8
REMARK    6  A    between atoms: S_8  and  C_11
REMARK    7  A    between atoms: C_14  and  C_15
REMARK    8  A    between atoms: C_18  and  C_19
REMARK    9  A    between atoms: C_19  and  C_20
REMARK   10  A    between atoms: C_20  and  N_21
REMARK   11  A    between atoms: N_21  and  C_22
REMARK   12  A    between atoms: C_23  and  C_24
REMARK                            x       y       z     vdW  Elec       q    Type
REMARK                         _______ _______ _______ _____ _____    ______ ____
ROOT
ATOM      1  C   UNL     1       2.397   5.285  18.698  0.00  0.00    +0.000 A 
ATOM      2  C   UNL     1       3.174   6.100  17.820  0.00  0.00    +0.000 A 
ATOM      3  C   UNL     1       4.129   5.522  16.918  0.00  0.00    +0.000 A 
ATOM      4  C   UNL     1       4.312   4.127  16.960  0.00  0.00    +0.000 A 
ATOM      5  C   UNL     1       3.538   3.363  17.808  0.00  0.00    +0.000 A 
ATOM      6  C   UNL     1       2.602   3.915  18.651  0.00  0.00    +0.000 A 
ATOM      7  O   UNL     1       1.976   2.947  19.381  0.00  0.00    +0.000 OA
ATOM      8  C   UNL     1       2.577   1.748  18.864  0.00  0.00    +0.000 C 
ATOM      9  O   UNL     1       3.616   2.009  17.909  0.00  0.00    +0.000 OA
ENDROOT
BRANCH   1  11
ATOM     10  C   UNL     1       1.724   5.921  20.913  0.00  0.00    +0.000 C 
ATOM     11  O   UNL     1       1.495   5.927  19.510  0.00  0.00    +0.000 OA
ENDBRANCH   1  11
BRANCH   2  12
ATOM     12  C   UNL     1       2.964   7.575  17.940  0.00  0.00    +0.000 C 
ATOM     13  N   UNL     1       1.834   8.148  17.662  0.00  0.00    +0.000 NA
BRANCH  13  14
ATOM     14  N   UNL     1       1.747   9.592  17.773  0.00  0.00    +0.000 N 
ATOM     15  H   UNL     1       1.594  10.076  16.884  0.00  0.00    +0.000 HD
BRANCH  14  16
ATOM     16  S   UNL     1       1.009  10.373  19.099  0.00  0.00    +0.000 S 
ATOM     17  O   UNL     1       0.959   9.446  20.212  0.00  0.00    +0.000 OA
ATOM     18  O   UNL     1       1.584  11.695  19.237  0.00  0.00    +0.000 OA
BRANCH  16  19
ATOM     19  C   UNL     1      -0.649  10.570  18.493  0.00  0.00    +0.000 A 
ATOM     20  C   UNL     1      -1.504  11.504  19.087  0.00  0.00    +0.000 A 
ATOM     21  C   UNL     1      -2.783  11.699  18.560  0.00  0.00    +0.000 A 
ATOM     22  C   UNL     1      -3.208  10.970  17.439  0.00  0.00    +0.000 A 
ATOM     23  C   UNL     1      -4.573  11.185  16.852  0.00  0.00    +0.000 C 
ATOM     24  C   UNL     1      -2.341  10.036  16.856  0.00  0.00    +0.000 A 
ATOM     25  C   UNL     1      -1.062   9.835  17.378  0.00  0.00    +0.000 A 
ENDBRANCH  16  19
ENDBRANCH  14  16
ENDBRANCH  13  14
ENDBRANCH   2  12
BRANCH   3  26
ATOM     26  C   UNL     1       5.034   6.346  16.003  0.00  0.00    +0.000 C 
BRANCH  26  27
ATOM     27  C   UNL     1       6.476   5.834  15.829  0.00  0.00    +0.000 C 
BRANCH  27  28
ATOM     28  N   UNL     1       7.242   5.841  17.081  0.00  0.00    +0.000 N 
ATOM     29  C   UNL     1       7.658   4.558  17.628  0.00  0.00    +0.000 C 
ATOM     30  C   UNL     1       7.605   7.063  17.629  0.00  0.00    +0.000 C 
ATOM     31  C   UNL     1       8.346   7.075  18.946  0.00  0.00    +0.000 C 
ATOM     32  O   UNL     1       7.324   8.133  17.086  0.00  0.00    +0.000 OA
ENDBRANCH  27  28
ENDBRANCH  26  27
ENDBRANCH   3  26
TORSDOF 8
ENDMDL
MODEL 2
REMARK VINA RESULT:      -8.0      3.078      7.927
REMARK  Name = 
REMARK  12 active torsions:
REMARK  status: ('A' for Active; 'I' for Inactive)
REMARK    1  A    between atoms: C_1  and  O_2
REMARK    2  A    between atoms: O_2  and  C_3
REMARK    3  A    between atoms: C_4  and  C_5
REMARK    4  A    between atoms: N_6  and  N_7
REMARK    5  A    between atoms: N_7  and  S_8
REMARK    6  A    between atoms: S_8  and  C_11
REMARK    7  A    between atoms: C_14  and  C_15
REMARK    8  A    between atoms: C_18  and  C_19
REMARK    9  A    between atoms: C_19  and  C_20
REMARK   10  A    between atoms: C_20  and  N_21
REMARK   11  A    between atoms: N_21  and  C_22
REMARK   12  A    between atoms: C_23  and  C_24
REMARK                            x       y       z     vdW  Elec       q    Type
REMARK                         _______ _______ _______ _____ _____    ______ ____
ROOT
ATOM      1  C   UNL     1       1.597   9.126  18.850  0.00  0.00    +0.000 A 
ATOM      2  C   UNL     1       2.139   7.813  18.986  0.00  0.00    +0.000 A 
ATOM      3  C   UNL     1       1.916   7.033  20.169  0.00  0.00    +0.000 A 
ATOM      4  C   UNL     1       1.184   7.624  21.217  0.00  0.00    +0.000 A 
ATOM      5  C   UNL     1       0.660   8.889  21.053  0.00  0.00    +0.000 A 
ATOM      6  C   UNL     1       0.850   9.625  19.907  0.00  0.00    +0.000 A 
ATOM      7  O   UNL     1       0.232  10.837  20.000  0.00  0.00    +0.000 OA
ATOM      8  C   UNL     1      -0.401  10.751  21.287  0.00  0.00    +0.000 C 
ATOM      9  O   UNL     1      -0.081   9.541  21.989  0.00  0.00    +0.000 OA
ENDROOT
BRANCH   1  11
ATOM     10  C   UNL     1       2.470  11.064  17.733  0.00  0.00    +0.000 C 
ATOM     11  O   UNL     1       1.848   9.787  17.673  0.00  0.00    +0.000 OA
ENDBRANCH   1  11
BRANCH   2  12
ATOM     12  C   UNL     1       2.984   7.334  17.849  0.00  0.00    +0.000 C 
ATOM     13  N   UNL     1       4.275   7.451  17.837  0.00  0.00    +0.000 NA
BRANCH  13  14
ATOM     14  N   UNL     1       4.998   6.989  16.666  0.00  0.00    +0.000 N 
ATOM     15  H   UNL     1       5.041   7.667  15.900  0.00  0.00    +0.000 HD
BRANCH  14  16
ATOM     16  S   UNL     1       6.389   6.005  16.768  0.00  0.00    +0.000 S 
ATOM     17  O   UNL     1       7.562   6.854  16.698  0.00  0.00    +0.000 OA
ATOM     18  O   UNL     1       6.205   5.053  17.844  0.00  0.00    +0.000 OA
BRANCH  16  19
ATOM     19  C   UNL     1       6.284   5.111  15.237  0.00  0.00    +0.000 A 
ATOM     20  C   UNL     1       7.332   5.180  14.314  0.00  0.00    +0.000 A 
ATOM     21  C   UNL     1       7.270   4.420  13.144  0.00  0.00    +0.000 A 
ATOM     22  C   UNL     1       6.169   3.588  12.895  0.00  0.00    +0.000 A 
ATOM     23  C   UNL     1       6.100   2.751  11.650  0.00  0.00    +0.000 C 
ATOM     24  C   UNL     1       5.124   3.531  13.828  0.00  0.00    +0.000 A 
ATOM     25  C   UNL     1       5.179   4.289  14.999  0.00  0.00    +0.000 A 
ENDBRANCH  16  19
ENDBRANCH  14  16
ENDBRANCH  13  14
ENDBRANCH   2  12
BRANCH   3  26
ATOM     26  C   UNL     1       2.522   5.650  20.398  0.00  0.00    +0.000 C 
BRANCH  26  27
ATOM     27  C   UNL     1       1.602   4.446  20.121  0.00  0.00    +0.000 C 
BRANCH  27  28
ATOM     28  N   UNL     1       2.056   3.626  18.991  0.00  0.00    +0.000 N 
ATOM     29  C   UNL     1       1.592   3.990  17.661  0.00  0.00    +0.000 C 
ATOM     30  C   UNL     1       2.967   2.609  19.235  0.00  0.00    +0.000 C 
ATOM     31  C   UNL     1       3.395   1.728  18.083  0.00  0.00    +0.000 C 
ATOM     32  O   UNL     1       3.419   2.390  20.360  0.00  0.00    +0.000 OA
ENDBRANCH  27  28
ENDBRANCH  26  27
ENDBRANCH   3  26
TORSDOF 8
ENDMDL
MODEL 3
REMARK VINA RESULT:      -7.9      1.969      2.725
REMARK  Name = 
REMARK  12 active torsions:
REMARK  status: ('A' for Active; 'I' for Inactive)
REMARK    1  A    between atoms: C_1  and  O_2
REMARK    2  A    between atoms: O_2  and  C_3
REMARK    3  A    between atoms: C_4  and  C_5
REMARK    4  A    between atoms: N_6  and  N_7
REMARK    5  A    between atoms: N_7  and  S_8
REMARK    6  A    between atoms: S_8  and  C_11
REMARK    7  A    between atoms: C_14  and  C_15
REMARK    8  A    between atoms: C_18  and  C_19
REMARK    9  A    between atoms: C_19  and  C_20
REMARK   10  A    between atoms: C_20  and  N_21
REMARK   11  A    between atoms: N_21  and  C_22
REMARK   12  A    between atoms: C_23  and  C_24
REMARK                            x       y       z     vdW  Elec       q    Type
REMARK                         _______ _______ _______ _____ _____    ______ ____
ROOT
ATOM      1  C   UNL     1       2.561   4.941  18.783  0.00  0.00    +0.000 A 
ATOM      2  C   UNL     1       3.278   5.840  17.937  0.00  0.00    +0.000 A 
ATOM      3  C   UNL     1       4.176   5.358  16.928  0.00  0.00    +0.000 A 
ATOM      4  C   UNL     1       4.367   3.966  16.829  0.00  0.00    +0.000 A 
ATOM      5  C   UNL     1       3.651   3.120  17.650  0.00  0.00    +0.000 A 
ATOM      6  C   UNL     1       2.768   3.583  18.597  0.00  0.00    +0.000 A 
ATOM      7  O   UNL     1       2.194   2.545  19.273  0.00  0.00    +0.000 OA
ATOM      8  C   UNL     1       2.766   1.405  18.610  0.00  0.00    +0.000 C 
ATOM      9  O   UNL     1       3.741   1.763  17.620  0.00  0.00    +0.000 OA
ENDROOT
BRANCH   1  11
ATOM     10  C   UNL     1       1.854   5.123  21.070  0.00  0.00    +0.000 C 
ATOM     11  O   UNL     1       1.709   5.496  19.706  0.00  0.00    +0.000 OA
ENDBRANCH   1  11
BRANCH   2  12
ATOM     12  C   UNL     1       3.069   7.296  18.206  0.00  0.00    +0.000 C 
ATOM     13  N   UNL     1       2.190   8.008  17.572  0.00  0.00    +0.000 NA
BRANCH  13  14
ATOM     14  N   UNL     1       2.096   9.423  17.880  0.00  0.00    +0.000 N 
ATOM     15  H   UNL     1       2.466  10.040  17.152  0.00  0.00    +0.000 HD
BRANCH  14  16
ATOM     16  S   UNL     1       0.774  10.097  18.724  0.00  0.00    +0.000 S 
ATOM     17  O   UNL     1      -0.411   9.977  17.898  0.00  0.00    +0.000 OA
ATOM     18  O   UNL     1       0.800   9.614  20.089  0.00  0.00    +0.000 OA
BRANCH  16  19
ATOM     19  C   UNL     1       1.232  11.813  18.753  0.00  0.00    +0.000 A 
ATOM     20  C   UNL     1       2.444  12.223  18.189  0.00  0.00    +0.000 A 
ATOM     21  C   UNL     1       2.762  13.583  18.157  0.00  0.00    +0.000 A 
ATOM     22  C   UNL     1       1.873  14.534  18.679  0.00  0.00    +0.000 A 
ATOM     23  C   UNL     1       2.196  15.999  18.633  0.00  0.00    +0.000 C 
ATOM     24  C   UNL     1       0.663  14.107  19.244  0.00  0.00    +0.000 A 
ATOM     25  C   UNL     1       0.339  12.750  19.281  0.00  0.00    +0.000 A 
ENDBRANCH  16  19
ENDBRANCH  14  16
ENDBRANCH  13  14
ENDBRANCH   2  12
BRANCH   3  26
ATOM     26  C   UNL     1       5.017   6.271  16.038  0.00  0.00    +0.000 C 
BRANCH  26  27
ATOM     27  C   UNL     1       6.495   5.875  15.857  0.00  0.00    +0.000 C 
BRANCH  27  28
ATOM     28  N   UNL     1       7.253   5.899  17.114  0.00  0.00    +0.000 N 
ATOM     29  C   UNL     1       7.643   4.623  17.694  0.00  0.00    +0.000 C 
ATOM     30  C   UNL     1       7.632   7.128  17.636  0.00  0.00    +0.000 C 
ATOM     31  C   UNL     1       8.364   7.158  18.958  0.00  0.00    +0.000 C 
ATOM     32  O   UNL     1       7.372   8.189  17.067  0.00  0.00    +0.000 OA
ENDBRANCH  27  28
ENDBRANCH  26  27
ENDBRANCH   3  26
TORSDOF 8
ENDMDL
MODEL 4
REMARK VINA RESULT:      -7.8      3.064      8.012
REMARK  Name = 
REMARK  12 active torsions:
REMARK  status: ('A' for Active; 'I' for Inactive)
REMARK    1  A    between atoms: C_1  and  O_2
REMARK    2  A    between atoms: O_2  and  C_3
REMARK    3  A    between atoms: C_4  and  C_5
REMARK    4  A    between atoms: N_6  and  N_7
REMARK    5  A    between atoms: N_7  and  S_8
REMARK    6  A    between atoms: S_8  and  C_11
REMARK    7  A    between atoms: C_14  and  C_15
REMARK    8  A    between atoms: C_18  and  C_19
REMARK    9  A    between atoms: C_19  and  C_20
REMARK   10  A    between atoms: C_20  and  N_21
REMARK   11  A    between atoms: N_21  and  C_22
REMARK   12  A    between atoms: C_23  and  C_24
REMARK                            x       y       z     vdW  Elec       q    Type
REMARK                         _______ _______ _______ _____ _____    ______ ____
ROOT
ATOM      1  C   UNL     1       1.483   9.184  19.076  0.00  0.00    +0.000 A 
ATOM      2  C   UNL     1       1.866   7.828  19.301  0.00  0.00    +0.000 A 
ATOM      3  C   UNL     1       1.571   7.165  20.539  0.00  0.00    +0.000 A 
ATOM      4  C   UNL     1       0.931   7.912  21.547  0.00  0.00    +0.000 A 
ATOM      5  C   UNL     1       0.560   9.216  21.298  0.00  0.00    +0.000 A 
ATOM      6  C   UNL     1       0.818   9.841  20.100  0.00  0.00    +0.000 A 
ATOM      7  O   UNL     1       0.351  11.123  20.112  0.00  0.00    +0.000 OA
ATOM      8  C   UNL     1      -0.267  11.204  21.407  0.00  0.00    +0.000 C 
ATOM      9  O   UNL     1      -0.083  10.016  22.191  0.00  0.00    +0.000 OA
ENDROOT
BRANCH   1  11
ATOM     10  C   UNL     1       2.374  11.023  17.815  0.00  0.00    +0.000 C 
ATOM     11  O   UNL     1       1.792   9.726  17.853  0.00  0.00    +0.000 OA
ENDBRANCH   1  11
BRANCH   2  12
ATOM     12  C   UNL     1       2.630   7.172  18.195  0.00  0.00    +0.000 C 
ATOM     13  N   UNL     1       3.699   6.470  18.401  0.00  0.00    +0.000 NA
BRANCH  13  14
ATOM     14  N   UNL     1       4.388   5.909  17.253  0.00  0.00    +0.000 N 
ATOM     15  H   UNL     1       3.890   6.020  16.365  0.00  0.00    +0.000 HD
BRANCH  14  16
ATOM     16  S   UNL     1       6.085   5.957  17.081  0.00  0.00    +0.000 S 
ATOM     17  O   UNL     1       6.494   7.338  16.913  0.00  0.00    +0.000 OA
ATOM     18  O   UNL     1       6.678   5.108  18.093  0.00  0.00    +0.000 OA
BRANCH  16  19
ATOM     19  C   UNL     1       6.289   5.147  15.513  0.00  0.00    +0.000 A 
ATOM     20  C   UNL     1       5.256   4.361  14.993  0.00  0.00    +0.000 A 
ATOM     21  C   UNL     1       5.401   3.784  13.728  0.00  0.00    +0.000 A 
ATOM     22  C   UNL     1       6.569   3.995  12.981  0.00  0.00    +0.000 A 
ATOM     23  C   UNL     1       6.727   3.397  11.613  0.00  0.00    +0.000 C 
ATOM     24  C   UNL     1       7.596   4.784  13.517  0.00  0.00    +0.000 A 
ATOM     25  C   UNL     1       7.460   5.362  14.779  0.00  0.00    +0.000 A 
ENDBRANCH  16  19
ENDBRANCH  14  16
ENDBRANCH  13  14
ENDBRANCH   2  12
BRANCH   3  26
ATOM     26  C   UNL     1       2.011   5.738  20.862  0.00  0.00    +0.000 C 
BRANCH  26  27
ATOM     27  C   UNL     1       1.170   4.607  20.240  0.00  0.00    +0.000 C 
BRANCH  27  28
ATOM     28  N   UNL     1       1.990   3.552  19.633  0.00  0.00    +0.000 N 
ATOM     29  C   UNL     1       2.784   2.715  20.520  0.00  0.00    +0.000 C 
ATOM     30  C   UNL     1       1.900   3.349  18.263  0.00  0.00    +0.000 C 
ATOM     31  C   UNL     1       2.782   2.300  17.626  0.00  0.00    +0.000 C 
ATOM     32  O   UNL     1       1.140   4.009  17.552  0.00  0.00    +0.000 OA
ENDBRANCH  27  28
ENDBRANCH  26  27
ENDBRANCH   3  26
TORSDOF 8
ENDMDL
MODEL 5
REMARK VINA RESULT:      -7.8      3.041      7.806
REMARK  Name = 
REMARK  12 active torsions:
REMARK  status: ('A' for Active; 'I' for Inactive)
REMARK    1  A    between atoms: C_1  and  O_2
REMARK    2  A    between atoms: O_2  and  C_3
REMARK    3  A    between atoms: C_4  and  C_5
REMARK    4  A    between atoms: N_6  and  N_7
REMARK    5  A    between atoms: N_7  and  S_8
REMARK    6  A    between atoms: S_8  and  C_11
REMARK    7  A    between atoms: C_14  and  C_15
REMARK    8  A    between atoms: C_18  and  C_19
REMARK    9  A    between atoms: C_19  and  C_20
REMARK   10  A    between atoms: C_20  and  N_21
REMARK   11  A    between atoms: N_21  and  C_22
REMARK   12  A    between atoms: C_23  and  C_24
REMARK                            x       y       z     vdW  Elec       q    Type
REMARK                         _______ _______ _______ _____ _____    ______ ____
ROOT
ATOM      1  C   UNL     1       1.443   9.018  19.032  0.00  0.00    +0.000 A 
ATOM      2  C   UNL     1       1.830   7.671  19.300  0.00  0.00    +0.000 A 
ATOM      3  C   UNL     1       1.539   7.048  20.559  0.00  0.00    +0.000 A 
ATOM      4  C   UNL     1       0.899   7.826  21.544  0.00  0.00    +0.000 A 
ATOM      5  C   UNL     1       0.525   9.120  21.253  0.00  0.00    +0.000 A 
ATOM      6  C   UNL     1       0.779   9.707  20.035  0.00  0.00    +0.000 A 
ATOM      7  O   UNL     1       0.309  10.988  20.005  0.00  0.00    +0.000 OA
ATOM      8  C   UNL     1      -0.307  11.109  21.298  0.00  0.00    +0.000 C 
ATOM      9  O   UNL     1      -0.118   9.948  22.121  0.00  0.00    +0.000 OA
ENDROOT
BRANCH   1  11
ATOM     10  C   UNL     1       2.497  10.728  17.715  0.00  0.00    +0.000 C 
ATOM     11  O   UNL     1       1.749   9.521  17.791  0.00  0.00    +0.000 OA
ENDBRANCH   1  11
BRANCH   2  12
ATOM     12  C   UNL     1       2.593   6.981  18.214  0.00  0.00    +0.000 C 
ATOM     13  N   UNL     1       3.496   6.082  18.453  0.00  0.00    +0.000 NA
BRANCH  13  14
ATOM     14  N   UNL     1       4.207   5.503  17.328  0.00  0.00    +0.000 N 
ATOM     15  H   UNL     1       4.096   6.015  16.449  0.00  0.00    +0.000 HD
BRANCH  14  16
ATOM     16  S   UNL     1       5.736   4.762  17.485  0.00  0.00    +0.000 S 
ATOM     17  O   UNL     1       5.735   3.949  18.685  0.00  0.00    +0.000 OA
ATOM     18  O   UNL     1       6.122   4.217  16.200  0.00  0.00    +0.000 OA
BRANCH  16  19
ATOM     19  C   UNL     1       6.766   6.176  17.800  0.00  0.00    +0.000 A 
ATOM     20  C   UNL     1       6.563   7.361  17.086  0.00  0.00    +0.000 A 
ATOM     21  C   UNL     1       7.333   8.487  17.390  0.00  0.00    +0.000 A 
ATOM     22  C   UNL     1       8.298   8.434  18.405  0.00  0.00    +0.000 A 
ATOM     23  C   UNL     1       9.118   9.643  18.753  0.00  0.00    +0.000 C 
ATOM     24  C   UNL     1       8.492   7.238  19.110  0.00  0.00    +0.000 A 
ATOM     25  C   UNL     1       7.727   6.109  18.812  0.00  0.00    +0.000 A 
ENDBRANCH  16  19
ENDBRANCH  14  16
ENDBRANCH  13  14
ENDBRANCH   2  12
BRANCH   3  26
ATOM     26  C   UNL     1       1.983   5.634  20.927  0.00  0.00    +0.000 C 
BRANCH  26  27
ATOM     27  C   UNL     1       1.139   4.481  20.351  0.00  0.00    +0.000 C 
BRANCH  27  28
ATOM     28  N   UNL     1       1.949   3.324  19.949  0.00  0.00    +0.000 N 
ATOM     29  C   UNL     1       2.564   2.530  21.001  0.00  0.00    +0.000 C 
ATOM     30  C   UNL     1       2.013   2.997  18.602  0.00  0.00    +0.000 C 
ATOM     31  C   UNL     1       2.889   1.840  18.179  0.00  0.00    +0.000 C 
ATOM     32  O   UNL     1       1.396   3.631  17.743  0.00  0.00    +0.000 OA
ENDBRANCH  27  28
ENDBRANCH  26  27
ENDBRANCH   3  26
TORSDOF 8
ENDMDL
MODEL 6
REMARK VINA RESULT:      -7.7      2.339      4.821
REMARK  Name = 
REMARK  12 active torsions:
REMARK  status: ('A' for Active; 'I' for Inactive)
REMARK    1  A    between atoms: C_1  and  O_2
REMARK    2  A    between atoms: O_2  and  C_3
REMARK    3  A    between atoms: C_4  and  C_5
REMARK    4  A    between atoms: N_6  and  N_7
REMARK    5  A    between atoms: N_7  and  S_8
REMARK    6  A    between atoms: S_8  and  C_11
REMARK    7  A    between atoms: C_14  and  C_15
REMARK    8  A    between atoms: C_18  and  C_19
REMARK    9  A    between atoms: C_19  and  C_20
REMARK   10  A    between atoms: C_20  and  N_21
REMARK   11  A    between atoms: N_21  and  C_22
REMARK   12  A    between atoms: C_23  and  C_24
REMARK                            x       y       z     vdW  Elec       q    Type
REMARK                         _______ _______ _______ _____ _____    ______ ____
ROOT
ATOM      1  C   UNL     1       5.468   6.591  16.785  0.00  0.00    +0.000 A 
ATOM      2  C   UNL     1       4.223   6.264  17.402  0.00  0.00    +0.000 A 
ATOM      3  C   UNL     1       3.588   4.997  17.173  0.00  0.00    +0.000 A 
ATOM      4  C   UNL     1       4.209   4.103  16.280  0.00  0.00    +0.000 A 
ATOM      5  C   UNL     1       5.418   4.439  15.710  0.00  0.00    +0.000 A 
ATOM      6  C   UNL     1       6.040   5.641  15.952  0.00  0.00    +0.000 A 
ATOM      7  O   UNL     1       7.218   5.725  15.267  0.00  0.00    +0.000 OA
ATOM      8  C   UNL     1       7.284   4.439  14.630  0.00  0.00    +0.000 C 
ATOM      9  O   UNL     1       6.113   3.640  14.855  0.00  0.00    +0.000 OA
ENDROOT
BRANCH   1  11
ATOM     10  C   UNL     1       7.311   7.866  17.647  0.00  0.00    +0.000 C 
ATOM     11  O   UNL     1       6.008   7.818  17.080  0.00  0.00    +0.000 OA
ENDBRANCH   1  11
BRANCH   2  12
ATOM     12  C   UNL     1       3.612   7.334  18.248  0.00  0.00    +0.000 C 
ATOM     13  N   UNL     1       2.330   7.506  18.344  0.00  0.00    +0.000 NA
BRANCH  13  14
ATOM     14  N   UNL     1       1.841   8.601  19.162  0.00  0.00    +0.000 N 
ATOM     15  H   UNL     1       2.434   8.826  19.966  0.00  0.00    +0.000 HD
BRANCH  14  16
ATOM     16  S   UNL     1       1.058   9.966  18.503  0.00  0.00    +0.000 S 
ATOM     17  O   UNL     1       2.057  10.974  18.206  0.00  0.00    +0.000 OA
ATOM     18  O   UNL     1       0.110   9.520  17.503  0.00  0.00    +0.000 OA
BRANCH  16  19
ATOM     19  C   UNL     1       0.129  10.534  19.907  0.00  0.00    +0.000 A 
ATOM     20  C   UNL     1       0.344   9.962  21.165  0.00  0.00    +0.000 A 
ATOM     21  C   UNL     1      -0.342  10.463  22.274  0.00  0.00    +0.000 A 
ATOM     22  C   UNL     1      -1.235  11.534  22.133  0.00  0.00    +0.000 A 
ATOM     23  C   UNL     1      -1.963  12.093  23.321  0.00  0.00    +0.000 C 
ATOM     24  C   UNL     1      -1.443  12.095  20.865  0.00  0.00    +0.000 A 
ATOM     25  C   UNL     1      -0.762  11.600  19.752  0.00  0.00    +0.000 A 
ENDBRANCH  16  19
ENDBRANCH  14  16
ENDBRANCH  13  14
ENDBRANCH   2  12
BRANCH   3  26
ATOM     26  C   UNL     1       2.227   4.617  17.753  0.00  0.00    +0.000 C 
BRANCH  26  27
ATOM     27  C   UNL     1       1.991   3.117  18.013  0.00  0.00    +0.000 C 
BRANCH  27  28
ATOM     28  N   UNL     1       2.454   2.686  19.338  0.00  0.00    +0.000 N 
ATOM     29  C   UNL     1       3.798   2.140  19.441  0.00  0.00    +0.000 C 
ATOM     30  C   UNL     1       1.627   2.901  20.431  0.00  0.00    +0.000 C 
ATOM     31  C   UNL     1       2.076   2.409  21.788  0.00  0.00    +0.000 C 
ATOM     32  O   UNL     1       0.533   3.459  20.325  0.00  0.00    +0.000 OA
ENDBRANCH  27  28
ENDBRANCH  26  27
ENDBRANCH   3  26
TORSDOF 8
ENDMDL
MODEL 7
REMARK VINA RESULT:      -7.7      1.588      2.287
REMARK  Name = 
REMARK  12 active torsions:
REMARK  status: ('A' for Active; 'I' for Inactive)
REMARK    1  A    between atoms: C_1  and  O_2
REMARK    2  A    between atoms: O_2  and  C_3
REMARK    3  A    between atoms: C_4  and  C_5
REMARK    4  A    between atoms: N_6  and  N_7
REMARK    5  A    between atoms: N_7  and  S_8
REMARK    6  A    between atoms: S_8  and  C_11
REMARK    7  A    between atoms: C_14  and  C_15
REMARK    8  A    between atoms: C_18  and  C_19
REMARK    9  A    between atoms: C_19  and  C_20
REMARK   10  A    between atoms: C_20  and  N_21
REMARK   11  A    between atoms: N_21  and  C_22
REMARK   12  A    between atoms: C_23  and  C_24
REMARK                            x       y       z     vdW  Elec       q    Type
REMARK                         _______ _______ _______ _____ _____    ______ ____
ROOT
ATOM      1  C   UNL     1       2.597   5.080  19.335  0.00  0.00    +0.000 A 
ATOM      2  C   UNL     1       3.097   5.818  18.219  0.00  0.00    +0.000 A 
ATOM      3  C   UNL     1       4.308   5.433  17.554  0.00  0.00    +0.000 A 
ATOM      4  C   UNL     1       5.018   4.331  18.067  0.00  0.00    +0.000 A 
ATOM      5  C   UNL     1       4.506   3.629  19.137  0.00  0.00    +0.000 A 
ATOM      6  C   UNL     1       3.329   3.980  19.756  0.00  0.00    +0.000 A 
ATOM      7  O   UNL     1       3.047   3.127  20.783  0.00  0.00    +0.000 OA
ATOM      8  C   UNL     1       4.131   2.189  20.698  0.00  0.00    +0.000 C 
ATOM      9  O   UNL     1       5.097   2.537  19.694  0.00  0.00    +0.000 OA
ENDROOT
BRANCH   1  11
ATOM     10  C   UNL     1       1.483   6.356  21.036  0.00  0.00    +0.000 C 
ATOM     11  O   UNL     1       1.420   5.513  19.893  0.00  0.00    +0.000 OA
ENDBRANCH   1  11
BRANCH   2  12
ATOM     12  C   UNL     1       2.309   7.028  17.831  0.00  0.00    +0.000 C 
ATOM     13  N   UNL     1       2.607   8.221  18.243  0.00  0.00    +0.000 NA
BRANCH  13  14
ATOM     14  N   UNL     1       1.754   9.323  17.839  0.00  0.00    +0.000 N 
ATOM     15  H   UNL     1       1.101   9.097  17.083  0.00  0.00    +0.000 HD
BRANCH  14  16
ATOM     16  S   UNL     1       1.130  10.461  18.947  0.00  0.00    +0.000 S 
ATOM     17  O   UNL     1       1.033   9.833  20.249  0.00  0.00    +0.000 OA
ATOM     18  O   UNL     1       1.824  11.718  18.761  0.00  0.00    +0.000 OA
BRANCH  16  19
ATOM     19  C   UNL     1      -0.523  10.664  18.328  0.00  0.00    +0.000 A 
ATOM     20  C   UNL     1      -1.032   9.765  17.386  0.00  0.00    +0.000 A 
ATOM     21  C   UNL     1      -2.356   9.894  16.957  0.00  0.00    +0.000 A 
ATOM     22  C   UNL     1      -3.173  10.912  17.470  0.00  0.00    +0.000 A 
ATOM     23  C   UNL     1      -4.602  11.048  17.032  0.00  0.00    +0.000 C 
ATOM     24  C   UNL     1      -2.647  11.807  18.413  0.00  0.00    +0.000 A 
ATOM     25  C   UNL     1      -1.326  11.686  18.844  0.00  0.00    +0.000 A 
ENDBRANCH  16  19
ENDBRANCH  14  16
ENDBRANCH  13  14
ENDBRANCH   2  12
BRANCH   3  26
ATOM     26  C   UNL     1       4.925   6.219  16.398  0.00  0.00    +0.000 C 
BRANCH  26  27
ATOM     27  C   UNL     1       6.292   5.725  15.889  0.00  0.00    +0.000 C 
BRANCH  27  28
ATOM     28  N   UNL     1       6.196   4.959  14.640  0.00  0.00    +0.000 N 
ATOM     29  C   UNL     1       4.954   4.249  14.375  0.00  0.00    +0.000 C 
ATOM     30  C   UNL     1       7.252   5.022  13.742  0.00  0.00    +0.000 C 
ATOM     31  C   UNL     1       7.180   4.192  12.481  0.00  0.00    +0.000 C 
ATOM     32  O   UNL     1       8.250   5.714  13.951  0.00  0.00    +0.000 OA
ENDBRANCH  27  28
ENDBRANCH  26  27
ENDBRANCH   3  26
TORSDOF 8
ENDMDL
MODEL 8
REMARK VINA RESULT:      -7.6      2.304      4.793
REMARK  Name = 
REMARK  12 active torsions:
REMARK  status: ('A' for Active; 'I' for Inactive)
REMARK    1  A    between atoms: C_1  and  O_2
REMARK    2  A    between atoms: O_2  and  C_3
REMARK    3  A    between atoms: C_4  and  C_5
REMARK    4  A    between atoms: N_6  and  N_7
REMARK    5  A    between atoms: N_7  and  S_8
REMARK    6  A    between atoms: S_8  and  C_11
REMARK    7  A    between atoms: C_14  and  C_15
REMARK    8  A    between atoms: C_18  and  C_19
REMARK    9  A    between atoms: C_19  and  C_20
REMARK   10  A    between atoms: C_20  and  N_21
REMARK   11  A    between atoms: N_21  and  C_22
REMARK   12  A    between atoms: C_23  and  C_24
REMARK                            x       y       z     vdW  Elec       q    Type
REMARK                         _______ _______ _______ _____ _____    ______ ____
ROOT
ATOM      1  C   UNL     1       5.469   6.724  16.813  0.00  0.00    +0.000 A 
ATOM      2  C   UNL     1       4.184   6.570  17.415  0.00  0.00    +0.000 A 
ATOM      3  C   UNL     1       3.488   5.317  17.374  0.00  0.00    +0.000 A 
ATOM      4  C   UNL     1       4.090   4.253  16.675  0.00  0.00    +0.000 A 
ATOM      5  C   UNL     1       5.338   4.426  16.115  0.00  0.00    +0.000 A 
ATOM      6  C   UNL     1       6.018   5.619  16.180  0.00  0.00    +0.000 A 
ATOM      7  O   UNL     1       7.224   5.526  15.549  0.00  0.00    +0.000 OA
ATOM      8  C   UNL     1       7.241   4.148  15.141  0.00  0.00    +0.000 C 
ATOM      9  O   UNL     1       6.019   3.459  15.442  0.00  0.00    +0.000 OA
ENDROOT
BRANCH   1  11
ATOM     10  C   UNL     1       7.344   8.036  17.541  0.00  0.00    +0.000 C 
ATOM     11  O   UNL     1       6.066   7.956  16.921  0.00  0.00    +0.000 OA
ENDBRANCH   1  11
BRANCH   2  12
ATOM     12  C   UNL     1       3.603   7.799  18.039  0.00  0.00    +0.000 C 
ATOM     13  N   UNL     1       2.787   8.585  17.409  0.00  0.00    +0.000 NA
BRANCH  13  14
ATOM     14  N   UNL     1       2.311   9.774  18.093  0.00  0.00    +0.000 N 
ATOM     15  H   UNL     1       2.678  10.653  17.717  0.00  0.00    +0.000 HD
BRANCH  14  16
ATOM     16  S   UNL     1       0.723   9.916  18.701  0.00  0.00    +0.000 S 
ATOM     17  O   UNL     1      -0.206   9.492  17.672  0.00  0.00    +0.000 OA
ATOM     18  O   UNL     1       0.686   9.354  20.035  0.00  0.00    +0.000 OA
BRANCH  16  19
ATOM     19  C   UNL     1       0.577  11.680  18.857  0.00  0.00    +0.000 A 
ATOM     20  C   UNL     1       1.672  12.500  18.568  0.00  0.00    +0.000 A 
ATOM     21  C   UNL     1       1.526  13.889  18.628  0.00  0.00    +0.000 A 
ATOM     22  C   UNL     1       0.291  14.459  18.968  0.00  0.00    +0.000 A 
ATOM     23  C   UNL     1       0.117  15.949  19.017  0.00  0.00    +0.000 C 
ATOM     24  C   UNL     1      -0.797  13.623  19.257  0.00  0.00    +0.000 A 
ATOM     25  C   UNL     1      -0.659  12.236  19.201  0.00  0.00    +0.000 A 
ENDBRANCH  16  19
ENDBRANCH  14  16
ENDBRANCH  13  14
ENDBRANCH   2  12
BRANCH   3  26
ATOM     26  C   UNL     1       2.085   5.109  17.944  0.00  0.00    +0.000 C 
BRANCH  26  27
ATOM     27  C   UNL     1       1.589   3.652  18.022  0.00  0.00    +0.000 C 
BRANCH  27  28
ATOM     28  N   UNL     1       1.994   2.975  19.260  0.00  0.00    +0.000 N 
ATOM     29  C   UNL     1       3.085   2.016  19.182  0.00  0.00    +0.000 C 
ATOM     30  C   UNL     1       1.381   3.345  20.448  0.00  0.00    +0.000 C 
ATOM     31  C   UNL     1       1.756   2.612  21.716  0.00  0.00    +0.000 C 
ATOM     32  O   UNL     1       0.529   4.235  20.497  0.00  0.00    +0.000 OA
ENDBRANCH  27  28
ENDBRANCH  26  27
ENDBRANCH   3  26
TORSDOF 8
ENDMDL
MODEL 9
REMARK VINA RESULT:      -7.6      2.332      4.619
REMARK  Name = 
REMARK  12 active torsions:
REMARK  status: ('A' for Active; 'I' for Inactive)
REMARK    1  A    between atoms: C_1  and  O_2
REMARK    2  A    between atoms: O_2  and  C_3
REMARK    3  A    between atoms: C_4  and  C_5
REMARK    4  A    between atoms: N_6  and  N_7
REMARK    5  A    between atoms: N_7  and  S_8
REMARK    6  A    between atoms: S_8  and  C_11
REMARK    7  A    between atoms: C_14  and  C_15
REMARK    8  A    between atoms: C_18  and  C_19
REMARK    9  A    between atoms: C_19  and  C_20
REMARK   10  A    between atoms: C_20  and  N_21
REMARK   11  A    between atoms: N_21  and  C_22
REMARK   12  A    between atoms: C_23  and  C_24
REMARK                            x       y       z     vdW  Elec       q    Type
REMARK                         _______ _______ _______ _____ _____    ______ ____
ROOT
ATOM      1  C   UNL     1       5.311   6.441  17.046  0.00  0.00    +0.000 A 
ATOM      2  C   UNL     1       4.039   6.102  17.598  0.00  0.00    +0.000 A 
ATOM      3  C   UNL     1       3.399   4.857  17.285  0.00  0.00    +0.000 A 
ATOM      4  C   UNL     1       4.044   3.997  16.375  0.00  0.00    +0.000 A 
ATOM      5  C   UNL     1       5.278   4.344  15.868  0.00  0.00    +0.000 A 
ATOM      6  C   UNL     1       5.904   5.525  16.191  0.00  0.00    +0.000 A 
ATOM      7  O   UNL     1       7.109   5.625  15.557  0.00  0.00    +0.000 OA
ATOM      8  C   UNL     1       7.185   4.369  14.862  0.00  0.00    +0.000 C 
ATOM      9  O   UNL     1       5.997   3.577  15.004  0.00  0.00    +0.000 OA
ENDROOT
BRANCH   1  11
ATOM     10  C   UNL     1       7.257   7.719  17.634  0.00  0.00    +0.000 C 
ATOM     11  O   UNL     1       5.853   7.646  17.419  0.00  0.00    +0.000 OA
ENDBRANCH   1  11
BRANCH   2  12
ATOM     12  C   UNL     1       3.408   7.140  18.470  0.00  0.00    +0.000 C 
ATOM     13  N   UNL     1       2.260   7.679  18.201  0.00  0.00    +0.000 NA
BRANCH  13  14
ATOM     14  N   UNL     1       1.754   8.706  19.092  0.00  0.00    +0.000 N 
ATOM     15  H   UNL     1       2.344   8.884  19.910  0.00  0.00    +0.000 HD
BRANCH  14  16
ATOM     16  S   UNL     1       0.950  10.102  18.530  0.00  0.00    +0.000 S 
ATOM     17  O   UNL     1       1.937  11.136  18.283  0.00  0.00    +0.000 OA
ATOM     18  O   UNL     1      -0.007   9.710  17.516  0.00  0.00    +0.000 OA
BRANCH  16  19
ATOM     19  C   UNL     1       0.036  10.573  19.978  0.00  0.00    +0.000 A 
ATOM     20  C   UNL     1       0.260   9.914  21.191  0.00  0.00    +0.000 A 
ATOM     21  C   UNL     1      -0.415  10.338  22.339  0.00  0.00    +0.000 A 
ATOM     22  C   UNL     1      -1.306  11.419  22.281  0.00  0.00    +0.000 A 
ATOM     23  C   UNL     1      -2.022  11.895  23.511  0.00  0.00    +0.000 C 
ATOM     24  C   UNL     1      -1.522  12.068  21.057  0.00  0.00    +0.000 A 
ATOM     25  C   UNL     1      -0.853  11.650  19.906  0.00  0.00    +0.000 A 
ENDBRANCH  16  19
ENDBRANCH  14  16
ENDBRANCH  13  14
ENDBRANCH   2  12
BRANCH   3  26
ATOM     26  C   UNL     1       2.012   4.468  17.793  0.00  0.00    +0.000 C 
BRANCH  26  27
ATOM     27  C   UNL     1       1.889   3.078  18.446  0.00  0.00    +0.000 C 
BRANCH  27  28
ATOM     28  N   UNL     1       2.821   2.886  19.564  0.00  0.00    +0.000 N 
ATOM     29  C   UNL     1       2.619   3.691  20.759  0.00  0.00    +0.000 C 
ATOM     30  C   UNL     1       3.785   1.893  19.460  0.00  0.00    +0.000 C 
ATOM     31  C   UNL     1       4.780   1.730  20.586  0.00  0.00    +0.000 C 
ATOM     32  O   UNL     1       3.865   1.160  18.473  0.00  0.00    +0.000 OA
ENDBRANCH  27  28
ENDBRANCH  26  27
ENDBRANCH   3  26
TORSDOF 8
ENDMDL
