MODEL 1
REMARK VINA RESULT:      -6.5      0.000      0.000
REMARK  Name = 
REMARK  7 active torsions:
REMARK  status: ('A' for Active; 'I' for Inactive)
REMARK    1  A    between atoms: C_1  and  O_2
REMARK    2  A    between atoms: O_2  and  C_3
REMARK    3  A    between atoms: C_3  and  C_4
REMARK    4  A    between atoms: C_3  and  C_18
REMARK    5  A    between atoms: C_8  and  C_9
REMARK    6  A    between atoms: C_8  and  C_10
REMARK    7  A    between atoms: N_21  and  C_22
REMARK                            x       y       z     vdW  Elec       q    Type
REMARK                         _______ _______ _______ _____ _____    ______ ____
ROOT
ATOM      1  C   UNL     1       3.506   5.423  17.674  0.00  0.00    +0.000 C 
ATOM      2  O   UNL     1       2.870   4.466  17.228  0.00  0.00    +0.000 OA
ATOM      3  N   UNL     1       4.597   5.943  16.985  0.00  0.00    +0.000 N 
ATOM      4  C   UNL     1       4.929   5.471  15.638  0.00  0.00    +0.000 C 
ATOM      5  C   UNL     1       6.427   5.106  15.528  0.00  0.00    +0.000 C 
ATOM      6  C   UNL     1       6.709   3.758  16.203  0.00  0.00    +0.000 C 
ATOM      7  C   UNL     1       6.821   4.970  14.048  0.00  0.00    +0.000 C 
ATOM      8  O   UNL     1       7.271   6.163  16.044  0.00  0.00    +0.000 OA
ATOM      9  C   UNL     1       6.932   6.716  17.334  0.00  0.00    +0.000 C 
ATOM     10  C   UNL     1       7.744   8.008  17.495  0.00  0.00    +0.000 C 
ATOM     11  C   UNL     1       8.391   7.897  18.855  0.00  0.00    +0.000 C 
ATOM     12  O   UNL     1       8.569   6.506  19.085  0.00  0.00    +0.000 OA
ATOM     13  C   UNL     1       7.428   5.851  18.507  0.00  0.00    +0.000 C 
ATOM     14  C   UNL     1       5.432   7.050  17.428  0.00  0.00    +0.000 C 
ENDROOT
BRANCH   1  15
ATOM     15  C   UNL     1       3.078   6.073  19.038  0.00  0.00    +0.000 C 
BRANCH  15  16
ATOM     16  C   UNL     1       2.382   7.393  18.812  0.00  0.00    +0.000 A 
ATOM     17  C   UNL     1       2.181   8.068  17.585  0.00  0.00    +0.000 A 
ATOM     18  N   UNL     1       1.523   9.222  17.726  0.00  0.00    +0.000 NA
ATOM     19  N   UNL     1       1.320   9.313  19.050  0.00  0.00    +0.000 N 
ATOM     20  C   UNL     1       0.632  10.452  19.606  0.00  0.00    +0.000 C 
ATOM     21  C   UNL     1       1.810   8.244  19.742  0.00  0.00    +0.000 A 
ENDBRANCH  15  16
BRANCH  15  23
ATOM     22  C   UNL     1       3.055   4.203  20.516  0.00  0.00    +0.000 C 
ATOM     23  O   UNL     1       2.304   5.247  19.916  0.00  0.00    +0.000 OA
ENDBRANCH  15  23
ENDBRANCH   1  15
TORSDOF 3
ENDMDL
MODEL 2
REMARK VINA RESULT:      -6.4      2.244      6.556
REMARK  Name = 
REMARK  7 active torsions:
REMARK  status: ('A' for Active; 'I' for Inactive)
REMARK    1  A    between atoms: C_1  and  O_2
REMARK    2  A    between atoms: O_2  and  C_3
REMARK    3  A    between atoms: C_3  and  C_4
REMARK    4  A    between atoms: C_3  and  C_18
REMARK    5  A    between atoms: C_8  and  C_9
REMARK    6  A    between atoms: C_8  and  C_10
REMARK    7  A    between atoms: N_21  and  C_22
REMARK                            x       y       z     vdW  Elec       q    Type
REMARK                         _______ _______ _______ _____ _____    ______ ____
ROOT
ATOM      1  C   UNL     1       5.795   5.874  16.697  0.00  0.00    +0.000 C 
ATOM      2  O   UNL     1       6.350   6.973  16.766  0.00  0.00    +0.000 OA
ATOM      3  N   UNL     1       4.428   5.745  16.914  0.00  0.00    +0.000 N 
ATOM      4  C   UNL     1       3.579   6.928  17.081  0.00  0.00    +0.000 C 
ATOM      5  C   UNL     1       2.679   6.798  18.330  0.00  0.00    +0.000 C 
ATOM      6  C   UNL     1       3.487   7.046  19.610  0.00  0.00    +0.000 C 
ATOM      7  C   UNL     1       1.562   7.855  18.278  0.00  0.00    +0.000 C 
ATOM      8  O   UNL     1       1.988   5.526  18.357  0.00  0.00    +0.000 OA
ATOM      9  C   UNL     1       2.771   4.338  18.118  0.00  0.00    +0.000 C 
ATOM     10  C   UNL     1       1.783   3.191  17.867  0.00  0.00    +0.000 C 
ATOM     11  C   UNL     1       2.243   2.072  18.771  0.00  0.00    +0.000 C 
ATOM     12  O   UNL     1       2.862   2.704  19.882  0.00  0.00    +0.000 OA
ATOM     13  C   UNL     1       3.538   3.862  19.365  0.00  0.00    +0.000 C 
ATOM     14  C   UNL     1       3.676   4.498  16.882  0.00  0.00    +0.000 C 
ENDROOT
BRANCH   1  15
ATOM     15  C   UNL     1       6.643   4.597  16.351  0.00  0.00    +0.000 C 
BRANCH  15  16
ATOM     16  C   UNL     1       6.647   4.340  14.864  0.00  0.00    +0.000 A 
ATOM     17  C   UNL     1       7.424   4.985  13.873  0.00  0.00    +0.000 A 
ATOM     18  N   UNL     1       7.192   4.521  12.643  0.00  0.00    +0.000 NA
ATOM     19  N   UNL     1       6.242   3.590  12.828  0.00  0.00    +0.000 N 
ATOM     20  C   UNL     1       5.713   2.855  11.705  0.00  0.00    +0.000 C 
ATOM     21  C   UNL     1       5.886   3.441  14.136  0.00  0.00    +0.000 A 
ENDBRANCH  15  16
BRANCH  15  23
ATOM     22  C   UNL     1       8.041   4.641  18.281  0.00  0.00    +0.000 C 
ATOM     23  O   UNL     1       7.980   4.568  16.865  0.00  0.00    +0.000 OA
ENDBRANCH  15  23
ENDBRANCH   1  15
TORSDOF 3
ENDMDL
MODEL 3
REMARK VINA RESULT:      -6.2      2.399      6.012
REMARK  Name = 
REMARK  7 active torsions:
REMARK  status: ('A' for Active; 'I' for Inactive)
REMARK    1  A    between atoms: C_1  and  O_2
REMARK    2  A    between atoms: O_2  and  C_3
REMARK    3  A    between atoms: C_3  and  C_4
REMARK    4  A    between atoms: C_3  and  C_18
REMARK    5  A    between atoms: C_8  and  C_9
REMARK    6  A    between atoms: C_8  and  C_10
REMARK    7  A    between atoms: N_21  and  C_22
REMARK                            x       y       z     vdW  Elec       q    Type
REMARK                         _______ _______ _______ _____ _____    ______ ____
ROOT
ATOM      1  C   UNL     1       5.196   3.653  18.888  0.00  0.00    +0.000 C 
ATOM      2  O   UNL     1       5.281   2.430  18.764  0.00  0.00    +0.000 OA
ATOM      3  N   UNL     1       4.111   4.237  19.534  0.00  0.00    +0.000 N 
ATOM      4  C   UNL     1       3.114   3.411  20.220  0.00  0.00    +0.000 C 
ATOM      5  C   UNL     1       1.679   3.807  19.805  0.00  0.00    +0.000 C 
ATOM      6  C   UNL     1       1.348   3.264  18.409  0.00  0.00    +0.000 C 
ATOM      7  C   UNL     1       0.666   3.198  20.788  0.00  0.00    +0.000 C 
ATOM      8  O   UNL     1       1.475   5.238  19.898  0.00  0.00    +0.000 OA
ATOM      9  C   UNL     1       2.476   6.093  19.305  0.00  0.00    +0.000 C 
ATOM     10  C   UNL     1       2.214   7.515  19.821  0.00  0.00    +0.000 C 
ATOM     11  C   UNL     1       2.213   8.384  18.587  0.00  0.00    +0.000 C 
ATOM     12  O   UNL     1       1.767   7.550  17.526  0.00  0.00    +0.000 OA
ATOM     13  C   UNL     1       2.311   6.245  17.782  0.00  0.00    +0.000 C 
ATOM     14  C   UNL     1       3.897   5.666  19.715  0.00  0.00    +0.000 C 
ENDROOT
BRANCH   1  15
ATOM     15  C   UNL     1       6.334   4.572  18.315  0.00  0.00    +0.000 C 
BRANCH  15  16
ATOM     16  C   UNL     1       6.160   4.783  16.830  0.00  0.00    +0.000 A 
ATOM     17  C   UNL     1       5.613   5.909  16.171  0.00  0.00    +0.000 A 
ATOM     18  N   UNL     1       5.603   5.782  14.842  0.00  0.00    +0.000 NA
ATOM     19  N   UNL     1       6.120   4.561  14.635  0.00  0.00    +0.000 N 
ATOM     20  C   UNL     1       6.267   4.049  13.294  0.00  0.00    +0.000 C 
ATOM     21  C   UNL     1       6.472   3.925  15.789  0.00  0.00    +0.000 A 
ENDBRANCH  15  16
BRANCH  15  23
ATOM     22  C   UNL     1       7.878   6.257  18.990  0.00  0.00    +0.000 C 
ATOM     23  O   UNL     1       6.525   5.828  18.976  0.00  0.00    +0.000 OA
ENDBRANCH  15  23
ENDBRANCH   1  15
TORSDOF 3
ENDMDL
MODEL 4
REMARK VINA RESULT:      -6.1      2.901      6.458
REMARK  Name = 
REMARK  7 active torsions:
REMARK  status: ('A' for Active; 'I' for Inactive)
REMARK    1  A    between atoms: C_1  and  O_2
REMARK    2  A    between atoms: O_2  and  C_3
REMARK    3  A    between atoms: C_3  and  C_4
REMARK    4  A    between atoms: C_3  and  C_18
REMARK    5  A    between atoms: C_8  and  C_9
REMARK    6  A    between atoms: C_8  and  C_10
REMARK    7  A    between atoms: N_21  and  C_22
REMARK                            x       y       z     vdW  Elec       q    Type
REMARK                         _______ _______ _______ _____ _____    ______ ____
ROOT
ATOM      1  C   UNL     1       4.532   5.228  17.267  0.00  0.00    +0.000 C 
ATOM      2  O   UNL     1       4.017   6.340  17.131  0.00  0.00    +0.000 OA
ATOM      3  N   UNL     1       3.777   4.130  17.666  0.00  0.00    +0.000 N 
ATOM      4  C   UNL     1       2.320   4.227  17.788  0.00  0.00    +0.000 C 
ATOM      5  C   UNL     1       1.836   3.669  19.146  0.00  0.00    +0.000 C 
ATOM      6  C   UNL     1       2.119   4.667  20.275  0.00  0.00    +0.000 C 
ATOM      7  C   UNL     1       0.315   3.443  19.102  0.00  0.00    +0.000 C 
ATOM      8  O   UNL     1       2.400   2.362  19.415  0.00  0.00    +0.000 OA
ATOM      9  C   UNL     1       3.822   2.200  19.229  0.00  0.00    +0.000 C 
ATOM     10  C   UNL     1       4.108   0.692  19.246  0.00  0.00    +0.000 C 
ATOM     11  C   UNL     1       5.251   0.522  20.218  0.00  0.00    +0.000 C 
ATOM     12  O   UNL     1       5.121   1.579  21.158  0.00  0.00    +0.000 OA
ATOM     13  C   UNL     1       4.647   2.719  20.421  0.00  0.00    +0.000 C 
ATOM     14  C   UNL     1       4.285   2.783  17.881  0.00  0.00    +0.000 C 
ENDROOT
BRANCH   1  15
ATOM     15  C   UNL     1       6.066   5.043  16.979  0.00  0.00    +0.000 C 
BRANCH  15  16
ATOM     16  C   UNL     1       6.307   4.727  15.523  0.00  0.00    +0.000 A 
ATOM     17  C   UNL     1       7.346   5.207  14.692  0.00  0.00    +0.000 A 
ATOM     18  N   UNL     1       7.278   4.732  13.445  0.00  0.00    +0.000 NA
ATOM     19  N   UNL     1       6.178   3.963  13.457  0.00  0.00    +0.000 N 
ATOM     20  C   UNL     1       5.760   3.270  12.263  0.00  0.00    +0.000 C 
ATOM     21  C   UNL     1       5.565   3.923  14.675  0.00  0.00    +0.000 A 
ENDBRANCH  15  16
BRANCH  15  23
ATOM     22  C   UNL     1       7.472   5.907  18.698  0.00  0.00    +0.000 C 
ATOM     23  O   UNL     1       6.922   6.109  17.405  0.00  0.00    +0.000 OA
ENDBRANCH  15  23
ENDBRANCH   1  15
TORSDOF 3
ENDMDL
MODEL 5
REMARK VINA RESULT:      -6.0      0.953      1.251
REMARK  Name = 
REMARK  7 active torsions:
REMARK  status: ('A' for Active; 'I' for Inactive)
REMARK    1  A    between atoms: C_1  and  O_2
REMARK    2  A    between atoms: O_2  and  C_3
REMARK    3  A    between atoms: C_3  and  C_4
REMARK    4  A    between atoms: C_3  and  C_18
REMARK    5  A    between atoms: C_8  and  C_9
REMARK    6  A    between atoms: C_8  and  C_10
REMARK    7  A    between atoms: N_21  and  C_22
REMARK                            x       y       z     vdW  Elec       q    Type
REMARK                         _______ _______ _______ _____ _____    ______ ____
ROOT
ATOM      1  C   UNL     1       2.997   5.464  18.135  0.00  0.00    +0.000 C 
ATOM      2  O   UNL     1       2.136   4.761  17.602  0.00  0.00    +0.000 OA
ATOM      3  N   UNL     1       4.155   5.823  17.453  0.00  0.00    +0.000 N 
ATOM      4  C   UNL     1       4.317   5.506  16.031  0.00  0.00    +0.000 C 
ATOM      5  C   UNL     1       5.681   4.831  15.762  0.00  0.00    +0.000 C 
ATOM      6  C   UNL     1       5.659   3.364  16.212  0.00  0.00    +0.000 C 
ATOM      7  C   UNL     1       5.979   4.845  14.253  0.00  0.00    +0.000 C 
ATOM      8  O   UNL     1       6.769   5.572  16.364  0.00  0.00    +0.000 OA
ATOM      9  C   UNL     1       6.618   5.975  17.742  0.00  0.00    +0.000 C 
ATOM     10  C   UNL     1       7.718   7.006  18.031  0.00  0.00    +0.000 C 
ATOM     11  C   UNL     1       8.368   6.535  19.310  0.00  0.00    +0.000 C 
ATOM     12  O   UNL     1       8.219   5.122  19.322  0.00  0.00    +0.000 OA
ATOM     13  C   UNL     1       6.936   4.846  18.737  0.00  0.00    +0.000 C 
ATOM     14  C   UNL     1       5.244   6.625  17.991  0.00  0.00    +0.000 C 
ENDROOT
BRANCH   1  15
ATOM     15  C   UNL     1       2.784   5.970  19.607  0.00  0.00    +0.000 C 
BRANCH  15  16
ATOM     16  C   UNL     1       2.148   7.339  19.619  0.00  0.00    +0.000 A 
ATOM     17  C   UNL     1       1.485   7.979  20.693  0.00  0.00    +0.000 A 
ATOM     18  N   UNL     1       1.034   9.196  20.378  0.00  0.00    +0.000 NA
ATOM     19  N   UNL     1       1.379   9.338  19.088  0.00  0.00    +0.000 N 
ATOM     20  C   UNL     1       1.049  10.548  18.375  0.00  0.00    +0.000 C 
ATOM     21  C   UNL     1       2.050   8.260  18.590  0.00  0.00    +0.000 A 
ENDBRANCH  15  16
BRANCH  15  23
ATOM     22  C   UNL     1       2.785   3.889  20.767  0.00  0.00    +0.000 C 
ATOM     23  O   UNL     1       2.077   5.085  20.483  0.00  0.00    +0.000 OA
ENDBRANCH  15  23
ENDBRANCH   1  15
TORSDOF 3
ENDMDL
MODEL 6
REMARK VINA RESULT:      -5.9      2.517      5.936
REMARK  Name = 
REMARK  7 active torsions:
REMARK  status: ('A' for Active; 'I' for Inactive)
REMARK    1  A    between atoms: C_1  and  O_2
REMARK    2  A    between atoms: O_2  and  C_3
REMARK    3  A    between atoms: C_3  and  C_4
REMARK    4  A    between atoms: C_3  and  C_18
REMARK    5  A    between atoms: C_8  and  C_9
REMARK    6  A    between atoms: C_8  and  C_10
REMARK    7  A    between atoms: N_21  and  C_22
REMARK                            x       y       z     vdW  Elec       q    Type
REMARK                         _______ _______ _______ _____ _____    ______ ____
ROOT
ATOM      1  C   UNL     1       4.538   3.429  17.497  0.00  0.00    +0.000 C 
ATOM      2  O   UNL     1       4.479   2.206  17.365  0.00  0.00    +0.000 OA
ATOM      3  N   UNL     1       3.899   4.070  18.553  0.00  0.00    +0.000 N 
ATOM      4  C   UNL     1       3.265   3.299  19.625  0.00  0.00    +0.000 C 
ATOM      5  C   UNL     1       1.825   3.794  19.893  0.00  0.00    +0.000 C 
ATOM      6  C   UNL     1       0.868   3.297  18.802  0.00  0.00    +0.000 C 
ATOM      7  C   UNL     1       1.324   3.234  21.235  0.00  0.00    +0.000 C 
ATOM      8  O   UNL     1       1.779   5.233  20.047  0.00  0.00    +0.000 OA
ATOM      9  C   UNL     1       2.460   6.032  19.057  0.00  0.00    +0.000 C 
ATOM     10  C   UNL     1       2.550   7.458  19.615  0.00  0.00    +0.000 C 
ATOM     11  C   UNL     1       2.052   8.347  18.501  0.00  0.00    +0.000 C 
ATOM     12  O   UNL     1       1.124   7.561  17.766  0.00  0.00    +0.000 OA
ATOM     13  C   UNL     1       1.640   6.220  17.768  0.00  0.00    +0.000 C 
ATOM     14  C   UNL     1       3.883   5.507  18.790  0.00  0.00    +0.000 C 
ENDROOT
BRANCH   1  15
ATOM     15  C   UNL     1       5.355   4.283  16.461  0.00  0.00    +0.000 C 
BRANCH  15  16
ATOM     16  C   UNL     1       6.345   5.180  17.163  0.00  0.00    +0.000 A 
ATOM     17  C   UNL     1       7.255   4.833  18.188  0.00  0.00    +0.000 A 
ATOM     18  N   UNL     1       7.999   5.864  18.597  0.00  0.00    +0.000 NA
ATOM     19  N   UNL     1       7.554   6.891  17.856  0.00  0.00    +0.000 N 
ATOM     20  C   UNL     1       8.121   8.208  18.018  0.00  0.00    +0.000 C 
ATOM     21  C   UNL     1       6.570   6.534  16.981  0.00  0.00    +0.000 A 
ENDBRANCH  15  16
BRANCH  15  23
ATOM     22  C   UNL     1       6.132   4.295  14.208  0.00  0.00    +0.000 C 
ATOM     23  O   UNL     1       6.002   3.554  15.411  0.00  0.00    +0.000 OA
ENDBRANCH  15  23
ENDBRANCH   1  15
TORSDOF 3
ENDMDL
MODEL 7
REMARK VINA RESULT:      -5.9      5.128     10.254
REMARK  Name = 
REMARK  7 active torsions:
REMARK  status: ('A' for Active; 'I' for Inactive)
REMARK    1  A    between atoms: C_1  and  O_2
REMARK    2  A    between atoms: O_2  and  C_3
REMARK    3  A    between atoms: C_3  and  C_4
REMARK    4  A    between atoms: C_3  and  C_18
REMARK    5  A    between atoms: C_8  and  C_9
REMARK    6  A    between atoms: C_8  and  C_10
REMARK    7  A    between atoms: N_21  and  C_22
REMARK                            x       y       z     vdW  Elec       q    Type
REMARK                         _______ _______ _______ _____ _____    ______ ____
ROOT
ATOM      1  C   UNL     1       0.359  11.880  20.939  0.00  0.00    +0.000 C 
ATOM      2  O   UNL     1       1.476  12.232  21.322  0.00  0.00    +0.000 OA
ATOM      3  N   UNL     1      -0.622  12.816  20.626  0.00  0.00    +0.000 N 
ATOM      4  C   UNL     1      -0.309  14.248  20.596  0.00  0.00    +0.000 C 
ATOM      5  C   UNL     1      -1.341  15.062  21.409  0.00  0.00    +0.000 C 
ATOM      6  C   UNL     1      -1.086  14.913  22.914  0.00  0.00    +0.000 C 
ATOM      7  C   UNL     1      -1.212  16.555  21.065  0.00  0.00    +0.000 C 
ATOM      8  O   UNL     1      -2.699  14.712  21.046  0.00  0.00    +0.000 OA
ATOM      9  C   UNL     1      -3.030  13.308  20.985  0.00  0.00    +0.000 C 
ATOM     10  C   UNL     1      -4.384  13.198  20.270  0.00  0.00    +0.000 C 
ATOM     11  C   UNL     1      -5.222  12.307  21.155  0.00  0.00    +0.000 C 
ATOM     12  O   UNL     1      -4.744  12.515  22.477  0.00  0.00    +0.000 OA
ATOM     13  C   UNL     1      -3.322  12.698  22.368  0.00  0.00    +0.000 C 
ATOM     14  C   UNL     1      -1.977  12.514  20.190  0.00  0.00    +0.000 C 
ENDROOT
BRANCH   1  15
ATOM     15  C   UNL     1       0.034  10.350  20.793  0.00  0.00    +0.000 C 
BRANCH  15  16
ATOM     16  C   UNL     1       0.864   9.725  19.697  0.00  0.00    +0.000 A 
ATOM     17  C   UNL     1       1.116  10.235  18.402  0.00  0.00    +0.000 A 
ATOM     18  N   UNL     1       1.897   9.436  17.670  0.00  0.00    +0.000 NA
ATOM     19  N   UNL     1       2.130   8.391  18.479  0.00  0.00    +0.000 N 
ATOM     20  C   UNL     1       2.947   7.289  18.031  0.00  0.00    +0.000 C 
ATOM     21  C   UNL     1       1.540   8.517  19.702  0.00  0.00    +0.000 A 
ENDBRANCH  15  16
BRANCH  15  23
ATOM     22  C   UNL     1      -0.722  10.038  23.031  0.00  0.00    +0.000 C 
ATOM     23  O   UNL     1       0.121   9.568  21.990  0.00  0.00    +0.000 OA
ENDBRANCH  15  23
ENDBRANCH   1  15
TORSDOF 3
ENDMDL
MODEL 8
REMARK VINA RESULT:      -5.9      2.045      3.830
REMARK  Name = 
REMARK  7 active torsions:
REMARK  status: ('A' for Active; 'I' for Inactive)
REMARK    1  A    between atoms: C_1  and  O_2
REMARK    2  A    between atoms: O_2  and  C_3
REMARK    3  A    between atoms: C_3  and  C_4
REMARK    4  A    between atoms: C_3  and  C_18
REMARK    5  A    between atoms: C_8  and  C_9
REMARK    6  A    between atoms: C_8  and  C_10
REMARK    7  A    between atoms: N_21  and  C_22
REMARK                            x       y       z     vdW  Elec       q    Type
REMARK                         _______ _______ _______ _____ _____    ______ ____
ROOT
ATOM      1  C   UNL     1       3.380   4.690  17.313  0.00  0.00    +0.000 C 
ATOM      2  O   UNL     1       2.749   3.876  16.638  0.00  0.00    +0.000 OA
ATOM      3  N   UNL     1       4.495   5.342  16.796  0.00  0.00    +0.000 N 
ATOM      4  C   UNL     1       4.861   5.197  15.385  0.00  0.00    +0.000 C 
ATOM      5  C   UNL     1       6.358   4.846  15.230  0.00  0.00    +0.000 C 
ATOM      6  C   UNL     1       6.609   3.372  15.574  0.00  0.00    +0.000 C 
ATOM      7  C   UNL     1       6.794   5.058  13.771  0.00  0.00    +0.000 C 
ATOM      8  O   UNL     1       7.196   5.738  16.004  0.00  0.00    +0.000 OA
ATOM      9  C   UNL     1       6.826   5.975  17.379  0.00  0.00    +0.000 C 
ATOM     10  C   UNL     1       7.643   7.180  17.863  0.00  0.00    +0.000 C 
ATOM     11  C   UNL     1       8.250   6.740  19.174  0.00  0.00    +0.000 C 
ATOM     12  O   UNL     1       8.410   5.332  19.072  0.00  0.00    +0.000 OA
ATOM     13  C   UNL     1       7.281   4.850  18.325  0.00  0.00    +0.000 C 
ATOM     14  C   UNL     1       5.327   6.300  17.511  0.00  0.00    +0.000 C 
ENDROOT
BRANCH   1  15
ATOM     15  C   UNL     1       2.918   5.005  18.782  0.00  0.00    +0.000 C 
BRANCH  15  16
ATOM     16  C   UNL     1       3.295   3.882  19.718  0.00  0.00    +0.000 A 
ATOM     17  C   UNL     1       2.614   3.459  20.883  0.00  0.00    +0.000 A 
ATOM     18  N   UNL     1       3.209   2.429  21.491  0.00  0.00    +0.000 NA
ATOM     19  N   UNL     1       4.294   2.199  20.736  0.00  0.00    +0.000 N 
ATOM     20  C   UNL     1       5.214   1.142  21.083  0.00  0.00    +0.000 C 
ATOM     21  C   UNL     1       4.389   3.036  19.663  0.00  0.00    +0.000 A 
ENDBRANCH  15  16
BRANCH  15  23
ATOM     22  C   UNL     1       2.262   7.076  19.761  0.00  0.00    +0.000 C 
ATOM     23  O   UNL     1       3.339   6.264  19.320  0.00  0.00    +0.000 OA
ENDBRANCH  15  23
ENDBRANCH   1  15
TORSDOF 3
ENDMDL
MODEL 9
REMARK VINA RESULT:      -5.8      2.719      5.889
REMARK  Name = 
REMARK  7 active torsions:
REMARK  status: ('A' for Active; 'I' for Inactive)
REMARK    1  A    between atoms: C_1  and  O_2
REMARK    2  A    between atoms: O_2  and  C_3
REMARK    3  A    between atoms: C_3  and  C_4
REMARK    4  A    between atoms: C_3  and  C_18
REMARK    5  A    between atoms: C_8  and  C_9
REMARK    6  A    between atoms: C_8  and  C_10
REMARK    7  A    between atoms: N_21  and  C_22
REMARK                            x       y       z     vdW  Elec       q    Type
REMARK                         _______ _______ _______ _____ _____    ______ ____
ROOT
ATOM      1  C   UNL     1       4.016   5.827  17.345  0.00  0.00    +0.000 C 
ATOM      2  O   UNL     1       3.590   6.974  17.492  0.00  0.00    +0.000 OA
ATOM      3  N   UNL     1       3.283   4.728  17.780  0.00  0.00    +0.000 N 
ATOM      4  C   UNL     1       1.917   4.890  18.286  0.00  0.00    +0.000 C 
ATOM      5  C   UNL     1       1.733   4.165  19.638  0.00  0.00    +0.000 C 
ATOM      6  C   UNL     1       2.380   4.965  20.776  0.00  0.00    +0.000 C 
ATOM      7  C   UNL     1       0.235   4.036  19.960  0.00  0.00    +0.000 C 
ATOM      8  O   UNL     1       2.220   2.802  19.581  0.00  0.00    +0.000 OA
ATOM      9  C   UNL     1       3.531   2.587  19.015  0.00  0.00    +0.000 C 
ATOM     10  C   UNL     1       3.668   1.079  18.763  0.00  0.00    +0.000 C 
ATOM     11  C   UNL     1       4.995   0.699  19.375  0.00  0.00    +0.000 C 
ATOM     12  O   UNL     1       5.201   1.610  20.445  0.00  0.00    +0.000 OA
ATOM     13  C   UNL     1       4.670   2.872  20.010  0.00  0.00    +0.000 C 
ATOM     14  C   UNL     1       3.699   3.336  17.681  0.00  0.00    +0.000 C 
ENDROOT
BRANCH   1  15
ATOM     15  C   UNL     1       5.406   5.598  16.650  0.00  0.00    +0.000 C 
BRANCH  15  16
ATOM     16  C   UNL     1       6.497   6.358  17.363  0.00  0.00    +0.000 A 
ATOM     17  C   UNL     1       7.370   5.883  18.371  0.00  0.00    +0.000 A 
ATOM     18  N   UNL     1       8.230   6.812  18.796  0.00  0.00    +0.000 NA
ATOM     19  N   UNL     1       7.900   7.901  18.085  0.00  0.00    +0.000 N 
ATOM     20  C   UNL     1       8.616   9.140  18.273  0.00  0.00    +0.000 C 
ATOM     21  C   UNL     1       6.875   7.681  17.212  0.00  0.00    +0.000 A 
ENDBRANCH  15  16
BRANCH  15  23
ATOM     22  C   UNL     1       6.453   4.009  15.215  0.00  0.00    +0.000 C 
ATOM     23  O   UNL     1       5.796   4.234  16.453  0.00  0.00    +0.000 OA
ENDBRANCH  15  23
ENDBRANCH   1  15
TORSDOF 3
ENDMDL
