MODEL 1
REMARK VINA RESULT:      -7.8      0.000      0.000
REMARK  Name = 
REMARK  5 active torsions:
REMARK  status: ('A' for Active; 'I' for Inactive)
REMARK    1  A    between atoms: C_1  and  N_2
REMARK    2  A    between atoms: N_2  and  C_3
REMARK    3  A    between atoms: N_2  and  C_12
REMARK    4  A    between atoms: C_3  and  C_4
REMARK    5  A    between atoms: N_8  and  C_9
REMARK                            x       y       z     vdW  Elec       q    Type
REMARK                         _______ _______ _______ _____ _____    ______ ____
ROOT
ATOM      1  C   UNL     1       2.967   7.188  18.588  0.00  0.00    +0.000 C 
ATOM      2  N   UNL     1       3.889   6.055  18.442  0.00  0.00    +0.000 N 
ENDROOT
BRANCH   2   3
ATOM      3  C   UNL     1       3.323   4.760  18.337  0.00  0.00    +0.000 A 
ATOM      4  C   UNL     1       3.254   4.115  17.084  0.00  0.00    +0.000 A 
ATOM      5  C   UNL     1       2.647   2.873  16.922  0.00  0.00    +0.000 A 
ATOM      6  C   UNL     1       2.092   2.229  18.015  0.00  0.00    +0.000 A 
ATOM      7  C   UNL     1       2.144   2.806  19.288  0.00  0.00    +0.000 A 
ATOM      8  C   UNL     1       1.568   2.116  20.368  0.00  0.00    +0.000 A 
ATOM      9  C   UNL     1       1.575   2.652  21.652  0.00  0.00    +0.000 A 
ATOM     10  C   UNL     1       2.150   3.892  21.866  0.00  0.00    +0.000 A 
ATOM     11  C   UNL     1       2.716   4.592  20.795  0.00  0.00    +0.000 A 
ATOM     12  C   UNL     1       2.754   4.079  19.474  0.00  0.00    +0.000 A 
ENDBRANCH   2   3
BRANCH   2  13
ATOM     13  C   UNL     1       5.056   6.327  17.584  0.00  0.00    +0.000 C 
BRANCH  13  14
ATOM     14  C   UNL     1       6.333   5.587  17.842  0.00  0.00    +0.000 A 
ATOM     15  N   UNL     1       7.050   5.726  18.946  0.00  0.00    +0.000 NA
ATOM     16  N   UNL     1       8.125   4.890  18.830  0.00  0.00    +0.000 NA
ATOM     17  N   UNL     1       8.087   4.229  17.686  0.00  0.00    +0.000 NA
ATOM     18  N   UNL     1       6.985   4.667  17.046  0.00  0.00    +0.000 N 
BRANCH  18  19
ATOM     19  C   UNL     1       6.635   4.174  15.729  0.00  0.00    +0.000 C 
ATOM     20  C   UNL     1       5.703   4.932  14.797  0.00  0.00    +0.000 C 
ATOM     21  C   UNL     1       7.157   4.868  14.479  0.00  0.00    +0.000 C 
ENDBRANCH  18  19
ENDBRANCH  13  14
ENDBRANCH   2  13
TORSDOF 4
ENDMDL
MODEL 2
REMARK VINA RESULT:      -7.7      1.406      3.516
REMARK  Name = 
REMARK  5 active torsions:
REMARK  status: ('A' for Active; 'I' for Inactive)
REMARK    1  A    between atoms: C_1  and  N_2
REMARK    2  A    between atoms: N_2  and  C_3
REMARK    3  A    between atoms: N_2  and  C_12
REMARK    4  A    between atoms: C_3  and  C_4
REMARK    5  A    between atoms: N_8  and  C_9
REMARK                            x       y       z     vdW  Elec       q    Type
REMARK                         _______ _______ _______ _____ _____    ______ ____
ROOT
ATOM      1  C   UNL     1       3.684   2.756  17.618  0.00  0.00    +0.000 C 
ATOM      2  N   UNL     1       4.181   4.029  18.154  0.00  0.00    +0.000 N 
ENDROOT
BRANCH   2   3
ATOM      3  C   UNL     1       3.365   4.706  19.095  0.00  0.00    +0.000 A 
ATOM      4  C   UNL     1       2.902   4.034  20.245  0.00  0.00    +0.000 A 
ATOM      5  C   UNL     1       2.045   4.637  21.161  0.00  0.00    +0.000 A 
ATOM      6  C   UNL     1       1.627   5.942  20.959  0.00  0.00    +0.000 A 
ATOM      7  C   UNL     1       2.065   6.670  19.849  0.00  0.00    +0.000 A 
ATOM      8  C   UNL     1       1.616   7.991  19.684  0.00  0.00    +0.000 A 
ATOM      9  C   UNL     1       2.007   8.754  18.589  0.00  0.00    +0.000 A 
ATOM     10  C   UNL     1       2.844   8.197  17.638  0.00  0.00    +0.000 A 
ATOM     11  C   UNL     1       3.288   6.879  17.787  0.00  0.00    +0.000 A 
ATOM     12  C   UNL     1       2.937   6.069  18.896  0.00  0.00    +0.000 A 
ENDBRANCH   2   3
BRANCH   2  13
ATOM     13  C   UNL     1       5.631   4.056  18.412  0.00  0.00    +0.000 C 
BRANCH  13  14
ATOM     14  C   UNL     1       6.433   5.223  17.924  0.00  0.00    +0.000 A 
ATOM     15  N   UNL     1       7.155   6.000  18.718  0.00  0.00    +0.000 NA
ATOM     16  N   UNL     1       7.750   6.938  17.922  0.00  0.00    +0.000 NA
ATOM     17  N   UNL     1       7.425   6.757  16.654  0.00  0.00    +0.000 NA
ATOM     18  N   UNL     1       6.586   5.701  16.639  0.00  0.00    +0.000 N 
BRANCH  18  19
ATOM     19  C   UNL     1       5.998   5.228  15.401  0.00  0.00    +0.000 C 
ATOM     20  C   UNL     1       6.837   4.853  14.191  0.00  0.00    +0.000 C 
ATOM     21  C   UNL     1       6.164   3.777  14.971  0.00  0.00    +0.000 C 
ENDBRANCH  18  19
ENDBRANCH  13  14
ENDBRANCH   2  13
TORSDOF 4
ENDMDL
MODEL 3
REMARK VINA RESULT:      -7.6      2.271      5.885
REMARK  Name = 
REMARK  5 active torsions:
REMARK  status: ('A' for Active; 'I' for Inactive)
REMARK    1  A    between atoms: C_1  and  N_2
REMARK    2  A    between atoms: N_2  and  C_3
REMARK    3  A    between atoms: N_2  and  C_12
REMARK    4  A    between atoms: C_3  and  C_4
REMARK    5  A    between atoms: N_8  and  C_9
REMARK                            x       y       z     vdW  Elec       q    Type
REMARK                         _______ _______ _______ _____ _____    ______ ____
ROOT
ATOM      1  C   UNL     1       3.088   7.744  17.937  0.00  0.00    +0.000 C 
ATOM      2  N   UNL     1       3.305   6.297  17.816  0.00  0.00    +0.000 N 
ENDROOT
BRANCH   2   3
ATOM      3  C   UNL     1       4.635   5.822  17.943  0.00  0.00    +0.000 A 
ATOM      4  C   UNL     1       5.260   5.794  19.207  0.00  0.00    +0.000 A 
ATOM      5  C   UNL     1       6.585   5.399  19.370  0.00  0.00    +0.000 A 
ATOM      6  C   UNL     1       7.329   5.010  18.269  0.00  0.00    +0.000 A 
ATOM      7  C   UNL     1       6.762   4.997  16.991  0.00  0.00    +0.000 A 
ATOM      8  C   UNL     1       7.554   4.594  15.903  0.00  0.00    +0.000 A 
ATOM      9  C   UNL     1       7.046   4.579  14.607  0.00  0.00    +0.000 A 
ATOM     10  C   UNL     1       5.740   4.980  14.387  0.00  0.00    +0.000 A 
ATOM     11  C   UNL     1       4.947   5.393  15.462  0.00  0.00    +0.000 A 
ATOM     12  C   UNL     1       5.410   5.404  16.802  0.00  0.00    +0.000 A 
ENDBRANCH   2   3
BRANCH   2  13
ATOM     13  C   UNL     1       2.256   5.471  18.439  0.00  0.00    +0.000 C 
BRANCH  13  14
ATOM     14  C   UNL     1       2.303   3.984  18.259  0.00  0.00    +0.000 A 
ATOM     15  N   UNL     1       2.055   3.377  17.109  0.00  0.00    +0.000 NA
ATOM     16  N   UNL     1       2.207   2.036  17.326  0.00  0.00    +0.000 NA
ATOM     17  N   UNL     1       2.553   1.797  18.579  0.00  0.00    +0.000 NA
ATOM     18  N   UNL     1       2.598   3.002  19.182  0.00  0.00    +0.000 N 
BRANCH  18  19
ATOM     19  C   UNL     1       2.920   3.125  20.590  0.00  0.00    +0.000 C 
ATOM     20  C   UNL     1       2.190   4.089  21.512  0.00  0.00    +0.000 C 
ATOM     21  C   UNL     1       1.953   2.625  21.653  0.00  0.00    +0.000 C 
ENDBRANCH  18  19
ENDBRANCH  13  14
ENDBRANCH   2  13
TORSDOF 4
ENDMDL
MODEL 4
REMARK VINA RESULT:      -7.6      2.260      3.721
REMARK  Name = 
REMARK  5 active torsions:
REMARK  status: ('A' for Active; 'I' for Inactive)
REMARK    1  A    between atoms: C_1  and  N_2
REMARK    2  A    between atoms: N_2  and  C_3
REMARK    3  A    between atoms: N_2  and  C_12
REMARK    4  A    between atoms: C_3  and  C_4
REMARK    5  A    between atoms: N_8  and  C_9
REMARK                            x       y       z     vdW  Elec       q    Type
REMARK                         _______ _______ _______ _____ _____    ______ ____
ROOT
ATOM      1  C   UNL     1       7.094   6.265  17.056  0.00  0.00    +0.000 C 
ATOM      2  N   UNL     1       6.096   5.188  17.055  0.00  0.00    +0.000 N 
ENDROOT
BRANCH   2   3
ATOM      3  C   UNL     1       4.755   5.538  17.351  0.00  0.00    +0.000 A 
ATOM      4  C   UNL     1       4.374   6.895  17.416  0.00  0.00    +0.000 A 
ATOM      5  C   UNL     1       3.085   7.286  17.768  0.00  0.00    +0.000 A 
ATOM      6  C   UNL     1       2.129   6.329  18.062  0.00  0.00    +0.000 A 
ATOM      7  C   UNL     1       2.438   4.967  17.998  0.00  0.00    +0.000 A 
ATOM      8  C   UNL     1       1.436   4.030  18.304  0.00  0.00    +0.000 A 
ATOM      9  C   UNL     1       1.693   2.663  18.273  0.00  0.00    +0.000 A 
ATOM     10  C   UNL     1       2.963   2.219  17.946  0.00  0.00    +0.000 A 
ATOM     11  C   UNL     1       3.970   3.144  17.651  0.00  0.00    +0.000 A 
ATOM     12  C   UNL     1       3.752   4.545  17.646  0.00  0.00    +0.000 A 
ENDBRANCH   2   3
BRANCH   2  13
ATOM     13  C   UNL     1       6.287   4.183  15.995  0.00  0.00    +0.000 C 
BRANCH  13  14
ATOM     14  C   UNL     1       6.873   4.614  14.685  0.00  0.00    +0.000 A 
ATOM     15  N   UNL     1       7.862   5.489  14.576  0.00  0.00    +0.000 NA
ATOM     16  N   UNL     1       8.134   5.617  13.244  0.00  0.00    +0.000 NA
ATOM     17  N   UNL     1       7.347   4.837  12.523  0.00  0.00    +0.000 NA
ATOM     18  N   UNL     1       6.539   4.218  13.406  0.00  0.00    +0.000 N 
BRANCH  18  19
ATOM     19  C   UNL     1       5.512   3.294  12.965  0.00  0.00    +0.000 C 
ATOM     20  C   UNL     1       4.683   3.535  11.715  0.00  0.00    +0.000 C 
ATOM     21  C   UNL     1       5.711   2.458  11.710  0.00  0.00    +0.000 C 
ENDBRANCH  18  19
ENDBRANCH  13  14
ENDBRANCH   2  13
TORSDOF 4
ENDMDL
MODEL 5
REMARK VINA RESULT:      -7.6      1.564      3.815
REMARK  Name = 
REMARK  5 active torsions:
REMARK  status: ('A' for Active; 'I' for Inactive)
REMARK    1  A    between atoms: C_1  and  N_2
REMARK    2  A    between atoms: N_2  and  C_3
REMARK    3  A    between atoms: N_2  and  C_12
REMARK    4  A    between atoms: C_3  and  C_4
REMARK    5  A    between atoms: N_8  and  C_9
REMARK                            x       y       z     vdW  Elec       q    Type
REMARK                         _______ _______ _______ _____ _____    ______ ____
ROOT
ATOM      1  C   UNL     1       2.828   3.066  16.550  0.00  0.00    +0.000 C 
ATOM      2  N   UNL     1       3.670   3.945  17.372  0.00  0.00    +0.000 N 
ENDROOT
BRANCH   2   3
ATOM      3  C   UNL     1       3.135   4.395  18.606  0.00  0.00    +0.000 A 
ATOM      4  C   UNL     1       2.905   3.480  19.655  0.00  0.00    +0.000 A 
ATOM      5  C   UNL     1       2.321   3.865  20.858  0.00  0.00    +0.000 A 
ATOM      6  C   UNL     1       1.953   5.184  21.056  0.00  0.00    +0.000 A 
ATOM      7  C   UNL     1       2.172   6.145  20.063  0.00  0.00    +0.000 A 
ATOM      8  C   UNL     1       1.783   7.472  20.307  0.00  0.00    +0.000 A 
ATOM      9  C   UNL     1       1.961   8.464  19.347  0.00  0.00    +0.000 A 
ATOM     10  C   UNL     1       2.521   8.132  18.126  0.00  0.00    +0.000 A 
ATOM     11  C   UNL     1       2.901   6.811  17.869  0.00  0.00    +0.000 A 
ATOM     12  C   UNL     1       2.762   5.771  18.822  0.00  0.00    +0.000 A 
ENDBRANCH   2   3
BRANCH   2  13
ATOM     13  C   UNL     1       5.100   3.591  17.372  0.00  0.00    +0.000 C 
BRANCH  13  14
ATOM     14  C   UNL     1       6.045   4.395  16.532  0.00  0.00    +0.000 A 
ATOM     15  N   UNL     1       6.318   4.117  15.266  0.00  0.00    +0.000 NA
ATOM     16  N   UNL     1       7.199   5.067  14.831  0.00  0.00    +0.000 NA
ATOM     17  N   UNL     1       7.472   5.932  15.792  0.00  0.00    +0.000 NA
ATOM     18  N   UNL     1       6.775   5.517  16.868  0.00  0.00    +0.000 N 
BRANCH  18  19
ATOM     19  C   UNL     1       6.855   6.221  18.133  0.00  0.00    +0.000 C 
ATOM     20  C   UNL     1       6.587   5.537  19.463  0.00  0.00    +0.000 C 
ATOM     21  C   UNL     1       7.982   5.926  19.112  0.00  0.00    +0.000 C 
ENDBRANCH  18  19
ENDBRANCH  13  14
ENDBRANCH   2  13
TORSDOF 4
ENDMDL
MODEL 6
REMARK VINA RESULT:      -7.5      2.207      3.544
REMARK  Name = 
REMARK  5 active torsions:
REMARK  status: ('A' for Active; 'I' for Inactive)
REMARK    1  A    between atoms: C_1  and  N_2
REMARK    2  A    between atoms: N_2  and  C_3
REMARK    3  A    between atoms: N_2  and  C_12
REMARK    4  A    between atoms: C_3  and  C_4
REMARK    5  A    between atoms: N_8  and  C_9
REMARK                            x       y       z     vdW  Elec       q    Type
REMARK                         _______ _______ _______ _____ _____    ______ ____
ROOT
ATOM      1  C   UNL     1       7.274   5.347  17.481  0.00  0.00    +0.000 C 
ATOM      2  N   UNL     1       5.965   4.711  17.289  0.00  0.00    +0.000 N 
ENDROOT
BRANCH   2   3
ATOM      3  C   UNL     1       4.820   5.428  17.721  0.00  0.00    +0.000 A 
ATOM      4  C   UNL     1       4.528   6.695  17.175  0.00  0.00    +0.000 A 
ATOM      5  C   UNL     1       3.454   7.462  17.617  0.00  0.00    +0.000 A 
ATOM      6  C   UNL     1       2.629   6.982  18.620  0.00  0.00    +0.000 A 
ATOM      7  C   UNL     1       2.853   5.725  19.190  0.00  0.00    +0.000 A 
ATOM      8  C   UNL     1       1.990   5.277  20.204  0.00  0.00    +0.000 A 
ATOM      9  C   UNL     1       2.178   4.043  20.818  0.00  0.00    +0.000 A 
ATOM     10  C   UNL     1       3.241   3.247  20.429  0.00  0.00    +0.000 A 
ATOM     11  C   UNL     1       4.113   3.688  19.428  0.00  0.00    +0.000 A 
ATOM     12  C   UNL     1       3.950   4.926  18.757  0.00  0.00    +0.000 A 
ENDBRANCH   2   3
BRANCH   2  13
ATOM     13  C   UNL     1       5.828   3.970  16.023  0.00  0.00    +0.000 C 
BRANCH  13  14
ATOM     14  C   UNL     1       6.550   4.471  14.809  0.00  0.00    +0.000 A 
ATOM     15  N   UNL     1       7.521   5.371  14.852  0.00  0.00    +0.000 NA
ATOM     16  N   UNL     1       7.942   5.563  13.567  0.00  0.00    +0.000 NA
ATOM     17  N   UNL     1       7.266   4.798  12.728  0.00  0.00    +0.000 NA
ATOM     18  N   UNL     1       6.378   4.122  13.485  0.00  0.00    +0.000 N 
BRANCH  18  19
ATOM     19  C   UNL     1       5.436   3.195  12.890  0.00  0.00    +0.000 C 
ATOM     20  C   UNL     1       4.723   3.488  11.580  0.00  0.00    +0.000 C 
ATOM     21  C   UNL     1       5.788   2.447  11.612  0.00  0.00    +0.000 C 
ENDBRANCH  18  19
ENDBRANCH  13  14
ENDBRANCH   2  13
TORSDOF 4
ENDMDL
MODEL 7
REMARK VINA RESULT:      -7.5      2.204      3.075
REMARK  Name = 
REMARK  5 active torsions:
REMARK  status: ('A' for Active; 'I' for Inactive)
REMARK    1  A    between atoms: C_1  and  N_2
REMARK    2  A    between atoms: N_2  and  C_3
REMARK    3  A    between atoms: N_2  and  C_12
REMARK    4  A    between atoms: C_3  and  C_4
REMARK    5  A    between atoms: N_8  and  C_9
REMARK                            x       y       z     vdW  Elec       q    Type
REMARK                         _______ _______ _______ _____ _____    ______ ____
ROOT
ATOM      1  C   UNL     1       4.794   6.013  16.279  0.00  0.00    +0.000 C 
ATOM      2  N   UNL     1       5.131   4.738  16.924  0.00  0.00    +0.000 N 
ENDROOT
BRANCH   2   3
ATOM      3  C   UNL     1       4.096   4.064  17.621  0.00  0.00    +0.000 A 
ATOM      4  C   UNL     1       3.805   2.715  17.330  0.00  0.00    +0.000 A 
ATOM      5  C   UNL     1       2.756   2.034  17.941  0.00  0.00    +0.000 A 
ATOM      6  C   UNL     1       1.964   2.682  18.873  0.00  0.00    +0.000 A 
ATOM      7  C   UNL     1       2.211   4.014  19.220  0.00  0.00    +0.000 A 
ATOM      8  C   UNL     1       1.381   4.631  20.171  0.00  0.00    +0.000 A 
ATOM      9  C   UNL     1       1.571   5.959  20.541  0.00  0.00    +0.000 A 
ATOM     10  C   UNL     1       2.589   6.688  19.951  0.00  0.00    +0.000 A 
ATOM     11  C   UNL     1       3.413   6.086  18.994  0.00  0.00    +0.000 A 
ATOM     12  C   UNL     1       3.275   4.731  18.602  0.00  0.00    +0.000 A 
ENDBRANCH   2   3
BRANCH   2  13
ATOM     13  C   UNL     1       6.052   3.889  16.149  0.00  0.00    +0.000 C 
BRANCH  13  14
ATOM     14  C   UNL     1       6.696   4.453  14.919  0.00  0.00    +0.000 A 
ATOM     15  N   UNL     1       7.680   5.339  14.947  0.00  0.00    +0.000 NA
ATOM     16  N   UNL     1       8.015   5.603  13.649  0.00  0.00    +0.000 NA
ATOM     17  N   UNL     1       7.271   4.897  12.816  0.00  0.00    +0.000 NA
ATOM     18  N   UNL     1       6.427   4.187  13.592  0.00  0.00    +0.000 N 
BRANCH  18  19
ATOM     19  C   UNL     1       5.432   3.308  13.010  0.00  0.00    +0.000 C 
ATOM     20  C   UNL     1       4.775   3.596  11.670  0.00  0.00    +0.000 C 
ATOM     21  C   UNL     1       5.757   2.481  11.775  0.00  0.00    +0.000 C 
ENDBRANCH  18  19
ENDBRANCH  13  14
ENDBRANCH   2  13
TORSDOF 4
ENDMDL
MODEL 8
REMARK VINA RESULT:      -7.5      1.698      3.963
REMARK  Name = 
REMARK  5 active torsions:
REMARK  status: ('A' for Active; 'I' for Inactive)
REMARK    1  A    between atoms: C_1  and  N_2
REMARK    2  A    between atoms: N_2  and  C_3
REMARK    3  A    between atoms: N_2  and  C_12
REMARK    4  A    between atoms: C_3  and  C_4
REMARK    5  A    between atoms: N_8  and  C_9
REMARK                            x       y       z     vdW  Elec       q    Type
REMARK                         _______ _______ _______ _____ _____    ______ ____
ROOT
ATOM      1  C   UNL     1       3.614   4.397  17.390  0.00  0.00    +0.000 C 
ATOM      2  N   UNL     1       3.616   5.843  17.640  0.00  0.00    +0.000 N 
ENDROOT
BRANCH   2   3
ATOM      3  C   UNL     1       2.885   6.314  18.760  0.00  0.00    +0.000 A 
ATOM      4  C   UNL     1       2.649   5.465  19.861  0.00  0.00    +0.000 A 
ATOM      5  C   UNL     1       1.881   5.861  20.952  0.00  0.00    +0.000 A 
ATOM      6  C   UNL     1       1.327   7.130  20.981  0.00  0.00    +0.000 A 
ATOM      7  C   UNL     1       1.540   8.027  19.930  0.00  0.00    +0.000 A 
ATOM      8  C   UNL     1       0.959   9.305  20.001  0.00  0.00    +0.000 A 
ATOM      9  C   UNL     1       1.123  10.230  18.975  0.00  0.00    +0.000 A 
ATOM     10  C   UNL     1       1.863   9.881  17.859  0.00  0.00    +0.000 A 
ATOM     11  C   UNL     1       2.436   8.608  17.773  0.00  0.00    +0.000 A 
ATOM     12  C   UNL     1       2.317   7.639  18.801  0.00  0.00    +0.000 A 
ENDBRANCH   2   3
BRANCH   2  13
ATOM     13  C   UNL     1       4.907   6.504  17.381  0.00  0.00    +0.000 C 
BRANCH  13  14
ATOM     14  C   UNL     1       6.150   5.669  17.324  0.00  0.00    +0.000 A 
ATOM     15  N   UNL     1       6.862   5.340  18.391  0.00  0.00    +0.000 NA
ATOM     16  N   UNL     1       7.901   4.569  17.953  0.00  0.00    +0.000 NA
ATOM     17  N   UNL     1       7.847   4.403  16.643  0.00  0.00    +0.000 NA
ATOM     18  N   UNL     1       6.769   5.100  16.230  0.00  0.00    +0.000 N 
BRANCH  18  19
ATOM     19  C   UNL     1       6.411   5.168  14.827  0.00  0.00    +0.000 C 
ATOM     20  C   UNL     1       7.281   4.567  13.735  0.00  0.00    +0.000 C 
ATOM     21  C   UNL     1       5.986   3.915  14.076  0.00  0.00    +0.000 C 
ENDBRANCH  18  19
ENDBRANCH  13  14
ENDBRANCH   2  13
TORSDOF 4
ENDMDL
MODEL 9
REMARK VINA RESULT:      -7.4      1.744      3.943
REMARK  Name = 
REMARK  5 active torsions:
REMARK  status: ('A' for Active; 'I' for Inactive)
REMARK    1  A    between atoms: C_1  and  N_2
REMARK    2  A    between atoms: N_2  and  C_3
REMARK    3  A    between atoms: N_2  and  C_12
REMARK    4  A    between atoms: C_3  and  C_4
REMARK    5  A    between atoms: N_8  and  C_9
REMARK                            x       y       z     vdW  Elec       q    Type
REMARK                         _______ _______ _______ _____ _____    ______ ____
ROOT
ATOM      1  C   UNL     1       3.830   2.349  17.860  0.00  0.00    +0.000 C 
ATOM      2  N   UNL     1       4.187   3.746  18.137  0.00  0.00    +0.000 N 
ENDROOT
BRANCH   2   3
ATOM      3  C   UNL     1       3.388   4.452  19.072  0.00  0.00    +0.000 A 
ATOM      4  C   UNL     1       2.891   3.797  20.218  0.00  0.00    +0.000 A 
ATOM      5  C   UNL     1       2.050   4.432  21.128  0.00  0.00    +0.000 A 
ATOM      6  C   UNL     1       1.682   5.750  20.923  0.00  0.00    +0.000 A 
ATOM      7  C   UNL     1       2.156   6.462  19.817  0.00  0.00    +0.000 A 
ATOM      8  C   UNL     1       1.757   7.799  19.649  0.00  0.00    +0.000 A 
ATOM      9  C   UNL     1       2.184   8.548  18.557  0.00  0.00    +0.000 A 
ATOM     10  C   UNL     1       3.008   7.960  17.613  0.00  0.00    +0.000 A 
ATOM     11  C   UNL     1       3.401   6.627  17.764  0.00  0.00    +0.000 A 
ATOM     12  C   UNL     1       3.012   5.830  18.871  0.00  0.00    +0.000 A 
ENDBRANCH   2   3
BRANCH   2  13
ATOM     13  C   UNL     1       5.636   4.004  18.194  0.00  0.00    +0.000 C 
BRANCH  13  14
ATOM     14  C   UNL     1       6.332   4.501  16.964  0.00  0.00    +0.000 A 
ATOM     15  N   UNL     1       6.310   3.868  15.801  0.00  0.00    +0.000 NA
ATOM     16  N   UNL     1       7.034   4.623  14.923  0.00  0.00    +0.000 NA
ATOM     17  N   UNL     1       7.498   5.714  15.508  0.00  0.00    +0.000 NA
ATOM     18  N   UNL     1       7.085   5.645  16.789  0.00  0.00    +0.000 N 
BRANCH  18  19
ATOM     19  C   UNL     1       7.438   6.673  17.748  0.00  0.00    +0.000 C 
ATOM     20  C   UNL     1       8.048   8.001  17.331  0.00  0.00    +0.000 C 
ATOM     21  C   UNL     1       6.642   7.968  17.822  0.00  0.00    +0.000 C 
ENDBRANCH  18  19
ENDBRANCH  13  14
ENDBRANCH   2  13
TORSDOF 4
ENDMDL
