MODEL 1
REMARK VINA RESULT:      -6.6      0.000      0.000
REMARK  Name = 
REMARK  3 active torsions:
REMARK  status: ('A' for Active; 'I' for Inactive)
REMARK    1  A    between atoms: C_1  and  O_2
REMARK    2  A    between atoms: O_2  and  C_3
REMARK    3  A    between atoms: C_4  and  O_5
REMARK                            x       y       z     vdW  Elec       q    Type
REMARK                         _______ _______ _______ _____ _____    ______ ____
ROOT
ATOM      1  C   UNL     1       2.749   6.141  19.668  0.00  0.00    +0.000 A 
ATOM      2  C   UNL     1       1.974   7.264  19.967  0.00  0.00    +0.000 A 
ATOM      3  C   UNL     1       1.840   8.318  19.052  0.00  0.00    +0.000 A 
ATOM      4  C   UNL     1       2.593   8.338  17.885  0.00  0.00    +0.000 A 
ATOM      5  C   UNL     1       3.414   7.257  17.599  0.00  0.00    +0.000 A 
ATOM      6  C   UNL     1       3.377   6.111  18.415  0.00  0.00    +0.000 A 
ATOM      7  C   UNL     1       4.039   4.893  17.818  0.00  0.00    +0.000 C 
ATOM      8  N   UNL     1       5.459   5.113  17.509  0.00  0.00    +0.000 NA
ATOM      9  C   UNL     1       6.221   4.814  18.727  0.00  0.00    +0.000 C 
ATOM     10  C   UNL     1       7.663   5.271  18.714  0.00  0.00    +0.000 C 
ATOM     11  C   UNL     1       7.713   6.745  18.442  0.00  0.00    +0.000 A 
ATOM     12  C   UNL     1       8.692   7.526  19.083  0.00  0.00    +0.000 A 
ATOM     13  C   UNL     1       8.759   8.857  18.766  0.00  0.00    +0.000 A 
ATOM     14  C   UNL     1       7.942   9.403  17.809  0.00  0.00    +0.000 A 
ATOM     15  C   UNL     1       6.984   8.657  17.147  0.00  0.00    +0.000 A 
ATOM     16  C   UNL     1       6.800   7.308  17.508  0.00  0.00    +0.000 A 
ATOM     17  C   UNL     1       5.721   6.432  16.838  0.00  0.00    +0.000 C 
ATOM     18  C   UNL     1       4.392   7.210  16.448  0.00  0.00    +0.000 C 
ATOM     19  O   UNL     1       8.194  10.725  17.610  0.00  0.00    +0.000 OA
ATOM     20  C   UNL     1       9.144  10.969  18.673  0.00  0.00    +0.000 C 
ATOM     21  O   UNL     1       9.608   9.765  19.309  0.00  0.00    +0.000 OA
ENDROOT
BRANCH   1  23
ATOM     22  C   UNL     1       2.147   4.145  20.944  0.00  0.00    +0.000 C 
ATOM     23  O   UNL     1       3.084   5.097  20.478  0.00  0.00    +0.000 OA
ENDBRANCH   1  23
BRANCH   2  24
ATOM     24  O   UNL     1       1.361   7.472  21.169  0.00  0.00    +0.000 OA
ATOM     25  H   UNL     1       0.756   6.716  21.273  0.00  0.00    +0.000 HD
ENDBRANCH   2  24
TORSDOF 2
ENDMDL
MODEL 2
REMARK VINA RESULT:      -6.2      6.888     10.038
REMARK  Name = 
REMARK  3 active torsions:
REMARK  status: ('A' for Active; 'I' for Inactive)
REMARK    1  A    between atoms: C_1  and  O_2
REMARK    2  A    between atoms: O_2  and  C_3
REMARK    3  A    between atoms: C_4  and  O_5
REMARK                            x       y       z     vdW  Elec       q    Type
REMARK                         _______ _______ _______ _____ _____    ______ ____
ROOT
ATOM      1  C   UNL     1       1.782  14.933  19.465  0.00  0.00    +0.000 A 
ATOM      2  C   UNL     1       1.517  16.022  18.630  0.00  0.00    +0.000 A 
ATOM      3  C   UNL     1       0.226  16.560  18.527  0.00  0.00    +0.000 A 
ATOM      4  C   UNL     1      -0.850  15.931  19.141  0.00  0.00    +0.000 A 
ATOM      5  C   UNL     1      -0.615  14.814  19.927  0.00  0.00    +0.000 A 
ATOM      6  C   UNL     1       0.707  14.411  20.197  0.00  0.00    +0.000 A 
ATOM      7  C   UNL     1       0.843  13.416  21.324  0.00  0.00    +0.000 C 
ATOM      8  N   UNL     1       0.093  12.175  21.078  0.00  0.00    +0.000 NA
ATOM      9  C   UNL     1       0.970  11.283  20.310  0.00  0.00    +0.000 C 
ATOM     10  C   UNL     1       0.286  10.083  19.692  0.00  0.00    +0.000 C 
ATOM     11  C   UNL     1      -0.841  10.550  18.820  0.00  0.00    +0.000 A 
ATOM     12  C   UNL     1      -1.119   9.854  17.629  0.00  0.00    +0.000 A 
ATOM     13  C   UNL     1      -2.195  10.260  16.885  0.00  0.00    +0.000 A 
ATOM     14  C   UNL     1      -3.017  11.271  17.314  0.00  0.00    +0.000 A 
ATOM     15  C   UNL     1      -2.782  11.961  18.489  0.00  0.00    +0.000 A 
ATOM     16  C   UNL     1      -1.631  11.656  19.241  0.00  0.00    +0.000 A 
ATOM     17  C   UNL     1      -1.289  12.415  20.540  0.00  0.00    +0.000 C 
ATOM     18  C   UNL     1      -1.698  13.951  20.531  0.00  0.00    +0.000 C 
ATOM     19  O   UNL     1      -4.050  11.492  16.458  0.00  0.00    +0.000 OA
ATOM     20  C   UNL     1      -3.676  10.617  15.369  0.00  0.00    +0.000 C 
ATOM     21  O   UNL     1      -2.587   9.735  15.697  0.00  0.00    +0.000 OA
ENDROOT
BRANCH   1  23
ATOM     22  C   UNL     1       4.096  14.718  20.221  0.00  0.00    +0.000 C 
ATOM     23  O   UNL     1       2.934  14.216  19.589  0.00  0.00    +0.000 OA
ENDBRANCH   1  23
BRANCH   2  24
ATOM     24  O   UNL     1       2.439  16.593  17.802  0.00  0.00    +0.000 OA
ATOM     25  H   UNL     1       3.007  17.122  18.390  0.00  0.00    +0.000 HD
ENDBRANCH   2  24
TORSDOF 2
ENDMDL
MODEL 3
REMARK VINA RESULT:      -6.1      6.239      8.292
REMARK  Name = 
REMARK  3 active torsions:
REMARK  status: ('A' for Active; 'I' for Inactive)
REMARK    1  A    between atoms: C_1  and  O_2
REMARK    2  A    between atoms: O_2  and  C_3
REMARK    3  A    between atoms: C_4  and  O_5
REMARK                            x       y       z     vdW  Elec       q    Type
REMARK                         _______ _______ _______ _____ _____    ______ ____
ROOT
ATOM      1  C   UNL     1       0.089  10.085  21.593  0.00  0.00    +0.000 A 
ATOM      2  C   UNL     1      -0.396  10.247  22.894  0.00  0.00    +0.000 A 
ATOM      3  C   UNL     1      -1.440  11.140  23.174  0.00  0.00    +0.000 A 
ATOM      4  C   UNL     1      -1.919  11.995  22.189  0.00  0.00    +0.000 A 
ATOM      5  C   UNL     1      -1.409  11.889  20.904  0.00  0.00    +0.000 A 
ATOM      6  C   UNL     1      -0.519  10.847  20.585  0.00  0.00    +0.000 A 
ATOM      7  C   UNL     1      -0.310  10.630  19.105  0.00  0.00    +0.000 C 
ATOM      8  N   UNL     1       0.217  11.822  18.425  0.00  0.00    +0.000 NA
ATOM      9  C   UNL     1       1.680  11.779  18.543  0.00  0.00    +0.000 C 
ATOM     10  C   UNL     1       2.393  13.063  18.181  0.00  0.00    +0.000 C 
ATOM     11  C   UNL     1       1.857  14.182  19.023  0.00  0.00    +0.000 A 
ATOM     12  C   UNL     1       2.735  15.189  19.464  0.00  0.00    +0.000 A 
ATOM     13  C   UNL     1       2.207  16.235  20.175  0.00  0.00    +0.000 A 
ATOM     14  C   UNL     1       0.858  16.335  20.398  0.00  0.00    +0.000 A 
ATOM     15  C   UNL     1      -0.034  15.372  19.961  0.00  0.00    +0.000 A 
ATOM     16  C   UNL     1       0.464  14.223  19.316  0.00  0.00    +0.000 A 
ATOM     17  C   UNL     1      -0.471  13.092  18.841  0.00  0.00    +0.000 C 
ATOM     18  C   UNL     1      -1.730  12.844  19.777  0.00  0.00    +0.000 C 
ATOM     19  O   UNL     1       0.531  17.464  21.082  0.00  0.00    +0.000 OA
ATOM     20  C   UNL     1       1.851  17.963  21.401  0.00  0.00    +0.000 C 
ATOM     21  O   UNL     1       2.904  17.269  20.708  0.00  0.00    +0.000 OA
ENDROOT
BRANCH   1  23
ATOM     22  C   UNL     1       1.188   7.950  21.139  0.00  0.00    +0.000 C 
ATOM     23  O   UNL     1       1.164   9.364  21.168  0.00  0.00    +0.000 OA
ENDBRANCH   1  23
BRANCH   2  24
ATOM     24  O   UNL     1       0.137   9.633  23.990  0.00  0.00    +0.000 OA
ATOM     25  H   UNL     1      -0.199   8.720  23.951  0.00  0.00    +0.000 HD
ENDBRANCH   2  24
TORSDOF 2
ENDMDL
MODEL 4
REMARK VINA RESULT:      -6.0      6.657     10.213
REMARK  Name = 
REMARK  3 active torsions:
REMARK  status: ('A' for Active; 'I' for Inactive)
REMARK    1  A    between atoms: C_1  and  O_2
REMARK    2  A    between atoms: O_2  and  C_3
REMARK    3  A    between atoms: C_4  and  O_5
REMARK                            x       y       z     vdW  Elec       q    Type
REMARK                         _______ _______ _______ _____ _____    ______ ____
ROOT
ATOM      1  C   UNL     1       1.949  14.831  18.940  0.00  0.00    +0.000 A 
ATOM      2  C   UNL     1       1.428  16.114  18.750  0.00  0.00    +0.000 A 
ATOM      3  C   UNL     1       0.328  16.568  19.491  0.00  0.00    +0.000 A 
ATOM      4  C   UNL     1      -0.364  15.701  20.328  0.00  0.00    +0.000 A 
ATOM      5  C   UNL     1       0.104  14.405  20.486  0.00  0.00    +0.000 A 
ATOM      6  C   UNL     1       1.329  14.025  19.906  0.00  0.00    +0.000 A 
ATOM      7  C   UNL     1       1.894  12.725  20.426  0.00  0.00    +0.000 C 
ATOM      8  N   UNL     1       0.986  11.588  20.215  0.00  0.00    +0.000 NA
ATOM      9  C   UNL     1       1.257  11.060  18.872  0.00  0.00    +0.000 C 
ATOM     10  C   UNL     1       0.226  10.088  18.341  0.00  0.00    +0.000 C 
ATOM     11  C   UNL     1      -1.125  10.740  18.360  0.00  0.00    +0.000 A 
ATOM     12  C   UNL     1      -2.035  10.460  17.325  0.00  0.00    +0.000 A 
ATOM     13  C   UNL     1      -3.285  11.016  17.400  0.00  0.00    +0.000 A 
ATOM     14  C   UNL     1      -3.663  11.770  18.481  0.00  0.00    +0.000 A 
ATOM     15  C   UNL     1      -2.799  12.048  19.524  0.00  0.00    +0.000 A 
ATOM     16  C   UNL     1      -1.469  11.590  19.449  0.00  0.00    +0.000 A 
ATOM     17  C   UNL     1      -0.443  11.900  20.558  0.00  0.00    +0.000 C 
ATOM     18  C   UNL     1      -0.625  13.321  21.244  0.00  0.00    +0.000 C 
ATOM     19  O   UNL     1      -4.953  12.192  18.387  0.00  0.00    +0.000 OA
ATOM     20  C   UNL     1      -5.272  11.752  17.047  0.00  0.00    +0.000 C 
ATOM     21  O   UNL     1      -4.272  10.886  16.480  0.00  0.00    +0.000 OA
ENDROOT
BRANCH   1  23
ATOM     22  C   UNL     1       4.278  14.588  18.243  0.00  0.00    +0.000 C 
ATOM     23  O   UNL     1       2.920  14.192  18.230  0.00  0.00    +0.000 OA
ENDBRANCH   1  23
BRANCH   2  24
ATOM     24  O   UNL     1       1.874  16.986  17.800  0.00  0.00    +0.000 OA
ATOM     25  H   UNL     1       2.784  17.204  18.071  0.00  0.00    +0.000 HD
ENDBRANCH   2  24
TORSDOF 2
ENDMDL
MODEL 5
REMARK VINA RESULT:      -5.8      5.136      8.201
REMARK  Name = 
REMARK  3 active torsions:
REMARK  status: ('A' for Active; 'I' for Inactive)
REMARK    1  A    between atoms: C_1  and  O_2
REMARK    2  A    between atoms: O_2  and  C_3
REMARK    3  A    between atoms: C_4  and  O_5
REMARK                            x       y       z     vdW  Elec       q    Type
REMARK                         _______ _______ _______ _____ _____    ______ ____
ROOT
ATOM      1  C   UNL     1       2.233  14.501  20.791  0.00  0.00    +0.000 A 
ATOM      2  C   UNL     1       3.390  14.797  20.066  0.00  0.00    +0.000 A 
ATOM      3  C   UNL     1       3.477  14.520  18.694  0.00  0.00    +0.000 A 
ATOM      4  C   UNL     1       2.470  13.809  18.054  0.00  0.00    +0.000 A 
ATOM      5  C   UNL     1       1.338  13.455  18.772  0.00  0.00    +0.000 A 
ATOM      6  C   UNL     1       1.166  13.925  20.088  0.00  0.00    +0.000 A 
ATOM      7  C   UNL     1      -0.234  13.769  20.633  0.00  0.00    +0.000 C 
ATOM      8  N   UNL     1      -0.683  12.369  20.650  0.00  0.00    +0.000 NA
ATOM      9  C   UNL     1      -0.225  11.782  21.915  0.00  0.00    +0.000 C 
ATOM     10  C   UNL     1      -0.316  10.273  21.996  0.00  0.00    +0.000 C 
ATOM     11  C   UNL     1       0.452   9.670  20.858  0.00  0.00    +0.000 A 
ATOM     12  C   UNL     1       1.159   8.472  21.068  0.00  0.00    +0.000 A 
ATOM     13  C   UNL     1       1.797   7.907  19.995  0.00  0.00    +0.000 A 
ATOM     14  C   UNL     1       1.701   8.453  18.741  0.00  0.00    +0.000 A 
ATOM     15  C   UNL     1       0.998   9.619  18.498  0.00  0.00    +0.000 A 
ATOM     16  C   UNL     1       0.410  10.299  19.582  0.00  0.00    +0.000 A 
ATOM     17  C   UNL     1      -0.353  11.626  19.386  0.00  0.00    +0.000 C 
ATOM     18  C   UNL     1       0.238  12.562  18.246  0.00  0.00    +0.000 C 
ATOM     19  O   UNL     1       2.366   7.720  17.808  0.00  0.00    +0.000 OA
ATOM     20  C   UNL     1       3.023   6.753  18.660  0.00  0.00    +0.000 C 
ATOM     21  O   UNL     1       2.552   6.780  20.019  0.00  0.00    +0.000 OA
ENDROOT
BRANCH   1  23
ATOM     22  C   UNL     1       1.797  15.812  22.808  0.00  0.00    +0.000 C 
ATOM     23  O   UNL     1       2.024  14.588  22.135  0.00  0.00    +0.000 OA
ENDBRANCH   1  23
BRANCH   2  24
ATOM     24  O   UNL     1       4.534  15.291  20.621  0.00  0.00    +0.000 OA
ATOM     25  H   UNL     1       4.267  16.133  21.033  0.00  0.00    +0.000 HD
ENDBRANCH   2  24
TORSDOF 2
ENDMDL
MODEL 6
REMARK VINA RESULT:      -5.7      5.977      9.054
REMARK  Name = 
REMARK  3 active torsions:
REMARK  status: ('A' for Active; 'I' for Inactive)
REMARK    1  A    between atoms: C_1  and  O_2
REMARK    2  A    between atoms: O_2  and  C_3
REMARK    3  A    between atoms: C_4  and  O_5
REMARK                            x       y       z     vdW  Elec       q    Type
REMARK                         _______ _______ _______ _____ _____    ______ ____
ROOT
ATOM      1  C   UNL     1       9.255  12.866  20.048  0.00  0.00    +0.000 A 
ATOM      2  C   UNL     1       9.386  11.701  19.287  0.00  0.00    +0.000 A 
ATOM      3  C   UNL     1       8.956  11.653  17.954  0.00  0.00    +0.000 A 
ATOM      4  C   UNL     1       8.253  12.717  17.401  0.00  0.00    +0.000 A 
ATOM      5  C   UNL     1       8.062  13.861  18.161  0.00  0.00    +0.000 A 
ATOM      6  C   UNL     1       8.683  13.981  19.419  0.00  0.00    +0.000 A 
ATOM      7  C   UNL     1       8.688  15.380  19.986  0.00  0.00    +0.000 C 
ATOM      8  N   UNL     1       7.334  15.926  20.160  0.00  0.00    +0.000 NA
ATOM      9  C   UNL     1       6.857  15.493  21.479  0.00  0.00    +0.000 C 
ATOM     10  C   UNL     1       5.377  15.689  21.724  0.00  0.00    +0.000 C 
ATOM     11  C   UNL     1       4.600  14.982  20.654  0.00  0.00    +0.000 A 
ATOM     12  C   UNL     1       3.384  14.359  20.989  0.00  0.00    +0.000 A 
ATOM     13  C   UNL     1       2.661  13.778  19.981  0.00  0.00    +0.000 A 
ATOM     14  C   UNL     1       3.073  13.853  18.675  0.00  0.00    +0.000 A 
ATOM     15  C   UNL     1       4.253  14.475  18.311  0.00  0.00    +0.000 A 
ATOM     16  C   UNL     1       5.088  14.998  19.317  0.00  0.00    +0.000 A 
ATOM     17  C   UNL     1       6.437  15.668  18.983  0.00  0.00    +0.000 C 
ATOM     18  C   UNL     1       7.199  15.028  17.744  0.00  0.00    +0.000 C 
ATOM     19  O   UNL     1       2.197  13.254  17.824  0.00  0.00    +0.000 OA
ATOM     20  C   UNL     1       1.284  12.655  18.772  0.00  0.00    +0.000 C 
ATOM     21  O   UNL     1       1.492  13.104  20.124  0.00  0.00    +0.000 OA
ENDROOT
BRANCH   1  23
ATOM     22  C   UNL     1       8.740  12.437  22.398  0.00  0.00    +0.000 C 
ATOM     23  O   UNL     1       9.502  13.049  21.375  0.00  0.00    +0.000 OA
ENDBRANCH   1  23
BRANCH   2  24
ATOM     24  O   UNL     1       9.854  10.517  19.777  0.00  0.00    +0.000 OA
ATOM     25  H   UNL     1       9.935  10.660  20.738  0.00  0.00    +0.000 HD
ENDBRANCH   2  24
TORSDOF 2
ENDMDL
MODEL 7
REMARK VINA RESULT:      -5.7      6.905     11.025
REMARK  Name = 
REMARK  3 active torsions:
REMARK  status: ('A' for Active; 'I' for Inactive)
REMARK    1  A    between atoms: C_1  and  O_2
REMARK    2  A    between atoms: O_2  and  C_3
REMARK    3  A    between atoms: C_4  and  O_5
REMARK                            x       y       z     vdW  Elec       q    Type
REMARK                         _______ _______ _______ _____ _____    ______ ____
ROOT
ATOM      1  C   UNL     1       0.587  10.497  21.222  0.00  0.00    +0.000 A 
ATOM      2  C   UNL     1       0.576   9.504  20.239  0.00  0.00    +0.000 A 
ATOM      3  C   UNL     1       0.157   9.783  18.930  0.00  0.00    +0.000 A 
ATOM      4  C   UNL     1      -0.396  11.018  18.616  0.00  0.00    +0.000 A 
ATOM      5  C   UNL     1      -0.447  11.999  19.595  0.00  0.00    +0.000 A 
ATOM      6  C   UNL     1       0.170  11.780  20.841  0.00  0.00    +0.000 A 
ATOM      7  C   UNL     1       0.349  13.022  21.680  0.00  0.00    +0.000 C 
ATOM      8  N   UNL     1      -0.926  13.691  21.982  0.00  0.00    +0.000 NA
ATOM      9  C   UNL     1      -1.469  13.064  23.193  0.00  0.00    +0.000 C 
ATOM     10  C   UNL     1      -2.914  13.393  23.496  0.00  0.00    +0.000 C 
ATOM     11  C   UNL     1      -3.764  13.024  22.317  0.00  0.00    +0.000 A 
ATOM     12  C   UNL     1      -5.053  12.506  22.537  0.00  0.00    +0.000 A 
ATOM     13  C   UNL     1      -5.834  12.240  21.443  0.00  0.00    +0.000 A 
ATOM     14  C   UNL     1      -5.401  12.525  20.174  0.00  0.00    +0.000 A 
ATOM     15  C   UNL     1      -4.147  13.052  19.925  0.00  0.00    +0.000 A 
ATOM     16  C   UNL     1      -3.263  13.249  21.004  0.00  0.00    +0.000 A 
ATOM     17  C   UNL     1      -1.836  13.794  20.791  0.00  0.00    +0.000 C 
ATOM     18  C   UNL     1      -1.149  13.327  19.436  0.00  0.00    +0.000 C 
ATOM     19  O   UNL     1      -6.337  12.229  19.233  0.00  0.00    +0.000 OA
ATOM     20  C   UNL     1      -7.330  11.572  20.053  0.00  0.00    +0.000 C 
ATOM     21  O   UNL     1      -7.081  11.706  21.464  0.00  0.00    +0.000 OA
ENDROOT
BRANCH   1  23
ATOM     22  C   UNL     1       0.049   9.589  23.426  0.00  0.00    +0.000 C 
ATOM     23  O   UNL     1       0.841  10.373  22.555  0.00  0.00    +0.000 OA
ENDBRANCH   1  23
BRANCH   2  24
ATOM     24  O   UNL     1       0.882   8.195  20.471  0.00  0.00    +0.000 OA
ATOM     25  H   UNL     1       0.201   7.887  21.095  0.00  0.00    +0.000 HD
ENDBRANCH   2  24
TORSDOF 2
ENDMDL
MODEL 8
REMARK VINA RESULT:      -5.7      6.445     10.597
REMARK  Name = 
REMARK  3 active torsions:
REMARK  status: ('A' for Active; 'I' for Inactive)
REMARK    1  A    between atoms: C_1  and  O_2
REMARK    2  A    between atoms: O_2  and  C_3
REMARK    3  A    between atoms: C_4  and  O_5
REMARK                            x       y       z     vdW  Elec       q    Type
REMARK                         _______ _______ _______ _____ _____    ______ ____
ROOT
ATOM      1  C   UNL     1       0.715  10.278  21.301  0.00  0.00    +0.000 A 
ATOM      2  C   UNL     1       0.906   9.151  20.498  0.00  0.00    +0.000 A 
ATOM      3  C   UNL     1       0.751   9.216  19.106  0.00  0.00    +0.000 A 
ATOM      4  C   UNL     1       0.259  10.368  18.506  0.00  0.00    +0.000 A 
ATOM      5  C   UNL     1       0.008  11.480  19.294  0.00  0.00    +0.000 A 
ATOM      6  C   UNL     1       0.370  11.474  20.654  0.00  0.00    +0.000 A 
ATOM      7  C   UNL     1       0.369  12.833  21.312  0.00  0.00    +0.000 C 
ATOM      8  N   UNL     1      -0.946  13.489  21.255  0.00  0.00    +0.000 NA
ATOM      9  C   UNL     1      -1.711  13.028  22.420  0.00  0.00    +0.000 C 
ATOM     10  C   UNL     1      -3.191  13.343  22.384  0.00  0.00    +0.000 C 
ATOM     11  C   UNL     1      -3.789  12.770  21.134  0.00  0.00    +0.000 A 
ATOM     12  C   UNL     1      -5.092  12.242  21.178  0.00  0.00    +0.000 A 
ATOM     13  C   UNL     1      -5.639  11.785  20.008  0.00  0.00    +0.000 A 
ATOM     14  C   UNL     1      -4.968  11.895  18.818  0.00  0.00    +0.000 A 
ATOM     15  C   UNL     1      -3.694  12.427  18.738  0.00  0.00    +0.000 A 
ATOM     16  C   UNL     1      -3.041  12.816  19.924  0.00  0.00    +0.000 A 
ATOM     17  C   UNL     1      -1.605  13.379  19.910  0.00  0.00    +0.000 C 
ATOM     18  C   UNL     1      -0.661  12.743  18.801  0.00  0.00    +0.000 C 
ATOM     19  O   UNL     1      -5.698  11.426  17.770  0.00  0.00    +0.000 OA
ATOM     20  C   UNL     1      -6.827  10.860  18.475  0.00  0.00    +0.000 C 
ATOM     21  O   UNL     1      -6.861  11.213  19.870  0.00  0.00    +0.000 OA
ENDROOT
BRANCH   1  23
ATOM     22  C   UNL     1      -0.275   9.738  23.469  0.00  0.00    +0.000 C 
ATOM     23  O   UNL     1       0.703  10.364  22.661  0.00  0.00    +0.000 OA
ENDBRANCH   1  23
BRANCH   2  24
ATOM     24  O   UNL     1       1.173   7.903  20.984  0.00  0.00    +0.000 OA
ATOM     25  H   UNL     1       0.819   7.909  21.891  0.00  0.00    +0.000 HD
ENDBRANCH   2  24
TORSDOF 2
ENDMDL
MODEL 9
REMARK VINA RESULT:      -5.7      7.509      9.018
REMARK  Name = 
REMARK  3 active torsions:
REMARK  status: ('A' for Active; 'I' for Inactive)
REMARK    1  A    between atoms: C_1  and  O_2
REMARK    2  A    between atoms: O_2  and  C_3
REMARK    3  A    between atoms: C_4  and  O_5
REMARK                            x       y       z     vdW  Elec       q    Type
REMARK                         _______ _______ _______ _____ _____    ______ ____
ROOT
ATOM      1  C   UNL     1      -2.884  12.284  20.017  0.00  0.00    +0.000 A 
ATOM      2  C   UNL     1      -3.252  11.974  18.705  0.00  0.00    +0.000 A 
ATOM      3  C   UNL     1      -2.361  11.332  17.833  0.00  0.00    +0.000 A 
ATOM      4  C   UNL     1      -1.040  11.121  18.207  0.00  0.00    +0.000 A 
ATOM      5  C   UNL     1      -0.639  11.475  19.486  0.00  0.00    +0.000 A 
ATOM      6  C   UNL     1      -1.592  11.919  20.423  0.00  0.00    +0.000 A 
ATOM      7  C   UNL     1      -1.107  11.940  21.852  0.00  0.00    +0.000 C 
ATOM      8  N   UNL     1       0.067  12.807  22.039  0.00  0.00    +0.000 NA
ATOM      9  C   UNL     1      -0.432  14.165  22.287  0.00  0.00    +0.000 C 
ATOM     10  C   UNL     1       0.609  15.259  22.201  0.00  0.00    +0.000 C 
ATOM     11  C   UNL     1       1.271  15.207  20.856  0.00  0.00    +0.000 A 
ATOM     12  C   UNL     1       1.646  16.410  20.230  0.00  0.00    +0.000 A 
ATOM     13  C   UNL     1       2.309  16.332  19.034  0.00  0.00    +0.000 A 
ATOM     14  C   UNL     1       2.656  15.122  18.491  0.00  0.00    +0.000 A 
ATOM     15  C   UNL     1       2.321  13.922  19.091  0.00  0.00    +0.000 A 
ATOM     16  C   UNL     1       1.548  13.941  20.268  0.00  0.00    +0.000 A 
ATOM     17  C   UNL     1       1.104  12.638  20.966  0.00  0.00    +0.000 C 
ATOM     18  C   UNL     1       0.790  11.436  19.975  0.00  0.00    +0.000 C 
ATOM     19  O   UNL     1       3.347  15.259  17.327  0.00  0.00    +0.000 OA
ATOM     20  C   UNL     1       3.238  16.688  17.129  0.00  0.00    +0.000 C 
ATOM     21  O   UNL     1       2.711  17.382  18.275  0.00  0.00    +0.000 OA
ENDROOT
BRANCH   1  23
ATOM     22  C   UNL     1      -4.805  12.590  21.496  0.00  0.00    +0.000 C 
ATOM     23  O   UNL     1      -3.570  13.007  20.946  0.00  0.00    +0.000 OA
ENDBRANCH   1  23
BRANCH   2  24
ATOM     24  O   UNL     1      -4.443  12.328  18.142  0.00  0.00    +0.000 OA
ATOM     25  H   UNL     1      -4.204  12.741  17.292  0.00  0.00    +0.000 HD
ENDBRANCH   2  24
TORSDOF 2
ENDMDL
