MODEL 1
REMARK VINA RESULT:      -6.4      0.000      0.000
REMARK  Name = 
REMARK  5 active torsions:
REMARK  status: ('A' for Active; 'I' for Inactive)
REMARK    1  A    between atoms: C_1  and  O_2
REMARK    2  A    between atoms: O_2  and  C_3
REMARK    3  A    between atoms: C_3  and  C_4
REMARK    4  A    between atoms: C_4  and  N_5
REMARK    5  A    between atoms: C_13  and  C_15
REMARK                            x       y       z     vdW  Elec       q    Type
REMARK                         _______ _______ _______ _____ _____    ______ ____
ROOT
ATOM      1  N   UNL     1       2.150   6.034  19.148  0.00  0.00    +0.000 NA
ATOM      2  C   UNL     1       2.841   6.262  17.877  0.00  0.00    +0.000 C 
ATOM      3  C   UNL     1       4.353   6.363  18.054  0.00  0.00    +0.000 C 
ATOM      4  C   UNL     1       4.954   5.158  18.825  0.00  0.00    +0.000 C 
ATOM      5  C   UNL     1       4.111   4.768  20.042  0.00  0.00    +0.000 C 
ATOM      6  C   UNL     1       2.615   4.771  19.732  0.00  0.00    +0.000 C 
ATOM      7  C   UNL     1       5.081   3.888  17.971  0.00  0.00    +0.000 C 
ATOM      8  N   UNL     1       5.923   4.148  16.827  0.00  0.00    +0.000 N 
ATOM      9  C   UNL     1       5.307   4.121  15.589  0.00  0.00    +0.000 C 
ATOM     10  O   UNL     1       4.092   3.978  15.444  0.00  0.00    +0.000 OA
ATOM     11  C   UNL     1       7.254   4.673  17.193  0.00  0.00    +0.000 C 
ATOM     12  C   UNL     1       7.185   5.808  18.230  0.00  0.00    +0.000 C 
ATOM     13  O   UNL     1       6.278   5.515  19.303  0.00  0.00    +0.000 OA
ENDROOT
BRANCH   9  14
ATOM     14  C   UNL     1       6.110   4.284  14.373  0.00  0.00    +0.000 A 
ATOM     15  C   UNL     1       7.178   5.178  14.332  0.00  0.00    +0.000 A 
ATOM     16  C   UNL     1       7.869   5.371  13.140  0.00  0.00    +0.000 A 
ATOM     17  C   UNL     1       7.544   4.607  12.019  0.00  0.00    +0.000 A 
ATOM     18  C   UNL     1       6.537   3.642  12.087  0.00  0.00    +0.000 A 
ATOM     19  C   UNL     1       5.811   3.477  13.260  0.00  0.00    +0.000 A 
ENDBRANCH   9  14
BRANCH   1  20
ATOM     20  C   UNL     1       2.321   7.187  20.045  0.00  0.00    +0.000 C 
BRANCH  20  21
ATOM     21  C   UNL     1       1.513   8.441  19.694  0.00  0.00    +0.000 C 
BRANCH  21  23
ATOM     22  C   UNL     1      -0.092   8.832  21.404  0.00  0.00    +0.000 C 
ATOM     23  O   UNL     1       1.116   9.257  20.789  0.00  0.00    +0.000 OA
ENDBRANCH  21  23
ENDBRANCH  20  21
ENDBRANCH   1  20
TORSDOF 4
ENDMDL
MODEL 2
REMARK VINA RESULT:      -6.3      0.302      1.056
REMARK  Name = 
REMARK  5 active torsions:
REMARK  status: ('A' for Active; 'I' for Inactive)
REMARK    1  A    between atoms: C_1  and  O_2
REMARK    2  A    between atoms: O_2  and  C_3
REMARK    3  A    between atoms: C_3  and  C_4
REMARK    4  A    between atoms: C_4  and  N_5
REMARK    5  A    between atoms: C_13  and  C_15
REMARK                            x       y       z     vdW  Elec       q    Type
REMARK                         _______ _______ _______ _____ _____    ______ ____
ROOT
ATOM      1  N   UNL     1       2.161   5.844  19.200  0.00  0.00    +0.000 NA
ATOM      2  C   UNL     1       2.813   6.095  17.913  0.00  0.00    +0.000 C 
ATOM      3  C   UNL     1       4.322   6.271  18.058  0.00  0.00    +0.000 C 
ATOM      4  C   UNL     1       4.997   5.105  18.825  0.00  0.00    +0.000 C 
ATOM      5  C   UNL     1       4.200   4.685  20.063  0.00  0.00    +0.000 C 
ATOM      6  C   UNL     1       2.699   4.610  19.784  0.00  0.00    +0.000 C 
ATOM      7  C   UNL     1       5.170   3.836  17.978  0.00  0.00    +0.000 C 
ATOM      8  N   UNL     1       5.974   4.126  16.815  0.00  0.00    +0.000 N 
ATOM      9  C   UNL     1       5.335   4.058  15.591  0.00  0.00    +0.000 C 
ATOM     10  O   UNL     1       4.125   3.854  15.472  0.00  0.00    +0.000 OA
ATOM     11  C   UNL     1       7.284   4.720  17.149  0.00  0.00    +0.000 C 
ATOM     12  C   UNL     1       7.181   5.859  18.178  0.00  0.00    +0.000 C 
ATOM     13  O   UNL     1       6.311   5.531  19.273  0.00  0.00    +0.000 OA
ENDROOT
BRANCH   9  14
ATOM     14  C   UNL     1       6.103   4.250  14.357  0.00  0.00    +0.000 A 
ATOM     15  C   UNL     1       5.822   3.506  13.213  0.00  0.00    +0.000 A 
ATOM     16  C   UNL     1       6.621   3.650  12.084  0.00  0.00    +0.000 A 
ATOM     17  C   UNL     1       7.642   4.601  12.075  0.00  0.00    +0.000 A 
ATOM     18  C   UNL     1       7.863   5.414  13.189  0.00  0.00    +0.000 A 
ATOM     19  C   UNL     1       7.100   5.242  14.336  0.00  0.00    +0.000 A 
ENDBRANCH   9  14
BRANCH   1  20
ATOM     20  C   UNL     1       2.293   7.012  20.085  0.00  0.00    +0.000 C 
BRANCH  20  21
ATOM     21  C   UNL     1       1.791   8.345  19.521  0.00  0.00    +0.000 C 
BRANCH  21  23
ATOM     22  C   UNL     1       1.114   8.710  21.771  0.00  0.00    +0.000 C 
ATOM     23  O   UNL     1       1.122   9.202  20.438  0.00  0.00    +0.000 OA
ENDBRANCH  21  23
ENDBRANCH  20  21
ENDBRANCH   1  20
TORSDOF 4
ENDMDL
MODEL 3
REMARK VINA RESULT:      -6.0      2.200      3.016
REMARK  Name = 
REMARK  5 active torsions:
REMARK  status: ('A' for Active; 'I' for Inactive)
REMARK    1  A    between atoms: C_1  and  O_2
REMARK    2  A    between atoms: O_2  and  C_3
REMARK    3  A    between atoms: C_3  and  C_4
REMARK    4  A    between atoms: C_4  and  N_5
REMARK    5  A    between atoms: C_13  and  C_15
REMARK                            x       y       z     vdW  Elec       q    Type
REMARK                         _______ _______ _______ _____ _____    ______ ____
ROOT
ATOM      1  N   UNL     1       3.145   2.134  19.104  0.00  0.00    +0.000 NA
ATOM      2  C   UNL     1       3.382   2.377  17.679  0.00  0.00    +0.000 C 
ATOM      3  C   UNL     1       3.418   3.866  17.348  0.00  0.00    +0.000 C 
ATOM      4  C   UNL     1       4.410   4.660  18.238  0.00  0.00    +0.000 C 
ATOM      5  C   UNL     1       4.323   4.253  19.711  0.00  0.00    +0.000 C 
ATOM      6  C   UNL     1       4.230   2.738  19.886  0.00  0.00    +0.000 C 
ATOM      7  C   UNL     1       5.878   4.477  17.831  0.00  0.00    +0.000 C 
ATOM      8  N   UNL     1       6.067   4.905  16.465  0.00  0.00    +0.000 N 
ATOM      9  C   UNL     1       6.378   3.919  15.547  0.00  0.00    +0.000 C 
ATOM     10  O   UNL     1       6.409   2.720  15.830  0.00  0.00    +0.000 OA
ATOM     11  C   UNL     1       5.623   6.293  16.225  0.00  0.00    +0.000 C 
ATOM     12  C   UNL     1       4.235   6.589  16.821  0.00  0.00    +0.000 C 
ATOM     13  O   UNL     1       4.091   6.076  18.154  0.00  0.00    +0.000 OA
ENDROOT
BRANCH   9  14
ATOM     14  C   UNL     1       6.675   4.285  14.158  0.00  0.00    +0.000 A 
ATOM     15  C   UNL     1       5.961   3.726  13.100  0.00  0.00    +0.000 A 
ATOM     16  C   UNL     1       6.319   4.029  11.791  0.00  0.00    +0.000 A 
ATOM     17  C   UNL     1       7.333   4.956  11.547  0.00  0.00    +0.000 A 
ATOM     18  C   UNL     1       7.984   5.589  12.609  0.00  0.00    +0.000 A 
ATOM     19  C   UNL     1       7.664   5.256  13.918  0.00  0.00    +0.000 A 
ENDBRANCH   9  14
BRANCH   1  20
ATOM     20  C   UNL     1       1.810   2.612  19.496  0.00  0.00    +0.000 C 
BRANCH  20  21
ATOM     21  C   UNL     1       1.525   2.657  21.001  0.00  0.00    +0.000 C 
BRANCH  21  23
ATOM     22  C   UNL     1       1.309   4.998  20.643  0.00  0.00    +0.000 C 
ATOM     23  O   UNL     1       1.469   3.950  21.590  0.00  0.00    +0.000 OA
ENDBRANCH  21  23
ENDBRANCH  20  21
ENDBRANCH   1  20
TORSDOF 4
ENDMDL
MODEL 4
REMARK VINA RESULT:      -5.9      2.207      2.841
REMARK  Name = 
REMARK  5 active torsions:
REMARK  status: ('A' for Active; 'I' for Inactive)
REMARK    1  A    between atoms: C_1  and  O_2
REMARK    2  A    between atoms: O_2  and  C_3
REMARK    3  A    between atoms: C_3  and  C_4
REMARK    4  A    between atoms: C_4  and  N_5
REMARK    5  A    between atoms: C_13  and  C_15
REMARK                            x       y       z     vdW  Elec       q    Type
REMARK                         _______ _______ _______ _____ _____    ______ ____
ROOT
ATOM      1  N   UNL     1       3.085   2.142  19.008  0.00  0.00    +0.000 NA
ATOM      2  C   UNL     1       3.355   2.411  17.593  0.00  0.00    +0.000 C 
ATOM      3  C   UNL     1       3.429   3.906  17.296  0.00  0.00    +0.000 C 
ATOM      4  C   UNL     1       4.420   4.658  18.222  0.00  0.00    +0.000 C 
ATOM      5  C   UNL     1       4.297   4.221  19.684  0.00  0.00    +0.000 C 
ATOM      6  C   UNL     1       4.168   2.704  19.823  0.00  0.00    +0.000 C 
ATOM      7  C   UNL     1       5.892   4.452  17.838  0.00  0.00    +0.000 C 
ATOM      8  N   UNL     1       6.116   4.905  16.486  0.00  0.00    +0.000 N 
ATOM      9  C   UNL     1       6.423   3.933  15.552  0.00  0.00    +0.000 C 
ATOM     10  O   UNL     1       6.423   2.728  15.808  0.00  0.00    +0.000 OA
ATOM     11  C   UNL     1       5.706   6.308  16.269  0.00  0.00    +0.000 C 
ATOM     12  C   UNL     1       4.314   6.621  16.845  0.00  0.00    +0.000 C 
ATOM     13  O   UNL     1       4.134   6.082  18.164  0.00  0.00    +0.000 OA
ENDROOT
BRANCH   9  14
ATOM     14  C   UNL     1       6.754   4.323  14.177  0.00  0.00    +0.000 A 
ATOM     15  C   UNL     1       7.736   5.275  13.918  0.00  0.00    +0.000 A 
ATOM     16  C   UNL     1       7.970   5.684  12.609  0.00  0.00    +0.000 A 
ATOM     17  C   UNL     1       7.281   5.076  11.559  0.00  0.00    +0.000 A 
ATOM     18  C   UNL     1       6.365   4.053  11.812  0.00  0.00    +0.000 A 
ATOM     19  C   UNL     1       6.092   3.673  13.120  0.00  0.00    +0.000 A 
ENDBRANCH   9  14
BRANCH   1  20
ATOM     20  C   UNL     1       1.754   2.640  19.386  0.00  0.00    +0.000 C 
BRANCH  20  21
ATOM     21  C   UNL     1       1.425   2.619  20.882  0.00  0.00    +0.000 C 
BRANCH  21  23
ATOM     22  C   UNL     1       1.294   4.978  20.612  0.00  0.00    +0.000 C 
ATOM     23  O   UNL     1       1.328   3.886  21.520  0.00  0.00    +0.000 OA
ENDBRANCH  21  23
ENDBRANCH  20  21
ENDBRANCH   1  20
TORSDOF 4
ENDMDL
MODEL 5
REMARK VINA RESULT:      -5.8      9.304     10.937
REMARK  Name = 
REMARK  5 active torsions:
REMARK  status: ('A' for Active; 'I' for Inactive)
REMARK    1  A    between atoms: C_1  and  O_2
REMARK    2  A    between atoms: O_2  and  C_3
REMARK    3  A    between atoms: C_3  and  C_4
REMARK    4  A    between atoms: C_4  and  N_5
REMARK    5  A    between atoms: C_13  and  C_15
REMARK                            x       y       z     vdW  Elec       q    Type
REMARK                         _______ _______ _______ _____ _____    ______ ____
ROOT
ATOM      1  N   UNL     1       4.008  15.753  18.971  0.00  0.00    +0.000 NA
ATOM      2  C   UNL     1       5.064  14.823  18.566  0.00  0.00    +0.000 C 
ATOM      3  C   UNL     1       6.299  15.549  18.039  0.00  0.00    +0.000 C 
ATOM      4  C   UNL     1       6.830  16.629  19.018  0.00  0.00    +0.000 C 
ATOM      5  C   UNL     1       5.703  17.472  19.621  0.00  0.00    +0.000 C 
ATOM      6  C   UNL     1       4.509  16.617  20.046  0.00  0.00    +0.000 C 
ATOM      7  C   UNL     1       7.610  16.047  20.205  0.00  0.00    +0.000 C 
ATOM      8  N   UNL     1       8.740  15.288  19.726  0.00  0.00    +0.000 N 
ATOM      9  C   UNL     1       8.699  13.922  19.936  0.00  0.00    +0.000 C 
ATOM     10  O   UNL     1       7.724  13.343  20.420  0.00  0.00    +0.000 OA
ATOM     11  C   UNL     1       9.630  16.067  18.841  0.00  0.00    +0.000 C 
ATOM     12  C   UNL     1       8.864  16.854  17.764  0.00  0.00    +0.000 C 
ATOM     13  O   UNL     1       7.712  17.529  18.295  0.00  0.00    +0.000 OA
ENDROOT
BRANCH   9  14
ATOM     14  C   UNL     1       9.849  13.092  19.561  0.00  0.00    +0.000 A 
ATOM     15  C   UNL     1      10.866  12.821  20.474  0.00  0.00    +0.000 A 
ATOM     16  C   UNL     1      11.983  12.100  20.065  0.00  0.00    +0.000 A 
ATOM     17  C   UNL     1      12.038  11.582  18.771  0.00  0.00    +0.000 A 
ATOM     18  C   UNL     1      10.975  11.773  17.885  0.00  0.00    +0.000 A 
ATOM     19  C   UNL     1       9.878  12.531  18.272  0.00  0.00    +0.000 A 
ENDBRANCH   9  14
BRANCH   1  20
ATOM     20  C   UNL     1       3.503  16.502  17.810  0.00  0.00    +0.000 C 
BRANCH  20  21
ATOM     21  C   UNL     1       2.142  17.183  17.986  0.00  0.00    +0.000 C 
BRANCH  21  23
ATOM     22  C   UNL     1       0.537  18.628  16.989  0.00  0.00    +0.000 C 
ATOM     23  O   UNL     1       1.914  18.343  17.195  0.00  0.00    +0.000 OA
ENDBRANCH  21  23
ENDBRANCH  20  21
ENDBRANCH   1  20
TORSDOF 4
ENDMDL
MODEL 6
REMARK VINA RESULT:      -5.8      5.550     12.379
REMARK  Name = 
REMARK  5 active torsions:
REMARK  status: ('A' for Active; 'I' for Inactive)
REMARK    1  A    between atoms: C_1  and  O_2
REMARK    2  A    between atoms: O_2  and  C_3
REMARK    3  A    between atoms: C_3  and  C_4
REMARK    4  A    between atoms: C_4  and  N_5
REMARK    5  A    between atoms: C_13  and  C_15
REMARK                            x       y       z     vdW  Elec       q    Type
REMARK                         _______ _______ _______ _____ _____    ______ ____
ROOT
ATOM      1  N   UNL     1       0.319  11.872  18.685  0.00  0.00    +0.000 NA
ATOM      2  C   UNL     1      -1.048  11.475  19.027  0.00  0.00    +0.000 C 
ATOM      3  C   UNL     1      -1.195  11.134  20.507  0.00  0.00    +0.000 C 
ATOM      4  C   UNL     1      -0.674  12.257  21.441  0.00  0.00    +0.000 C 
ATOM      5  C   UNL     1       0.661  12.837  20.966  0.00  0.00    +0.000 C 
ATOM      6  C   UNL     1       0.683  13.068  19.455  0.00  0.00    +0.000 C 
ATOM      7  C   UNL     1      -1.636  13.447  21.562  0.00  0.00    +0.000 C 
ATOM      8  N   UNL     1      -2.910  12.999  22.074  0.00  0.00    +0.000 N 
ATOM      9  C   UNL     1      -3.983  13.070  21.205  0.00  0.00    +0.000 C 
ATOM     10  O   UNL     1      -3.873  13.405  20.024  0.00  0.00    +0.000 OA
ATOM     11  C   UNL     1      -2.798  12.279  23.358  0.00  0.00    +0.000 C 
ATOM     12  C   UNL     1      -1.682  11.220  23.356  0.00  0.00    +0.000 C 
ATOM     13  O   UNL     1      -0.465  11.708  22.770  0.00  0.00    +0.000 OA
ENDROOT
BRANCH   9  14
ATOM     14  C   UNL     1      -5.327  12.720  21.677  0.00  0.00    +0.000 A 
ATOM     15  C   UNL     1      -5.770  13.116  22.937  0.00  0.00    +0.000 A 
ATOM     16  C   UNL     1      -7.018  12.700  23.390  0.00  0.00    +0.000 A 
ATOM     17  C   UNL     1      -7.850  11.962  22.547  0.00  0.00    +0.000 A 
ATOM     18  C   UNL     1      -7.443  11.646  21.249  0.00  0.00    +0.000 A 
ATOM     19  C   UNL     1      -6.180  12.018  20.808  0.00  0.00    +0.000 A 
ENDBRANCH   9  14
BRANCH   1  20
ATOM     20  C   UNL     1       1.250  10.750  18.879  0.00  0.00    +0.000 C 
BRANCH  20  21
ATOM     21  C   UNL     1       1.072   9.556  17.936  0.00  0.00    +0.000 C 
BRANCH  21  23
ATOM     22  C   UNL     1       2.649   7.776  17.920  0.00  0.00    +0.000 C 
ATOM     23  O   UNL     1       2.262   9.025  17.365  0.00  0.00    +0.000 OA
ENDBRANCH  21  23
ENDBRANCH  20  21
ENDBRANCH   1  20
TORSDOF 4
ENDMDL
MODEL 7
REMARK VINA RESULT:      -5.7      4.998     11.783
REMARK  Name = 
REMARK  5 active torsions:
REMARK  status: ('A' for Active; 'I' for Inactive)
REMARK    1  A    between atoms: C_1  and  O_2
REMARK    2  A    between atoms: O_2  and  C_3
REMARK    3  A    between atoms: C_3  and  C_4
REMARK    4  A    between atoms: C_4  and  N_5
REMARK    5  A    between atoms: C_13  and  C_15
REMARK                            x       y       z     vdW  Elec       q    Type
REMARK                         _______ _______ _______ _____ _____    ______ ____
ROOT
ATOM      1  N   UNL     1       0.701  10.594  18.523  0.00  0.00    +0.000 NA
ATOM      2  C   UNL     1      -0.703  10.451  18.914  0.00  0.00    +0.000 C 
ATOM      3  C   UNL     1      -0.871  10.349  20.427  0.00  0.00    +0.000 C 
ATOM      4  C   UNL     1      -0.178  11.506  21.193  0.00  0.00    +0.000 C 
ATOM      5  C   UNL     1       1.217  11.813  20.644  0.00  0.00    +0.000 C 
ATOM      6  C   UNL     1       1.247  11.821  19.116  0.00  0.00    +0.000 C 
ATOM      7  C   UNL     1      -0.957  12.828  21.139  0.00  0.00    +0.000 C 
ATOM      8  N   UNL     1      -2.273  12.646  21.705  0.00  0.00    +0.000 N 
ATOM      9  C   UNL     1      -3.340  12.748  20.831  0.00  0.00    +0.000 C 
ATOM     10  O   UNL     1      -3.203  12.892  19.615  0.00  0.00    +0.000 OA
ATOM     11  C   UNL     1      -2.245  12.107  23.079  0.00  0.00    +0.000 C 
ATOM     12  C   UNL     1      -1.292  10.908  23.232  0.00  0.00    +0.000 C 
ATOM     13  O   UNL     1      -0.028  11.127  22.587  0.00  0.00    +0.000 OA
ENDROOT
BRANCH   9  14
ATOM     14  C   UNL     1      -4.712  12.667  21.343  0.00  0.00    +0.000 A 
ATOM     15  C   UNL     1      -5.060  13.256  22.557  0.00  0.00    +0.000 A 
ATOM     16  C   UNL     1      -6.348  13.092  23.057  0.00  0.00    +0.000 A 
ATOM     17  C   UNL     1      -7.304  12.414  22.300  0.00  0.00    +0.000 A 
ATOM     18  C   UNL     1      -6.980  11.906  21.040  0.00  0.00    +0.000 A 
ATOM     19  C   UNL     1      -5.684  12.025  20.556  0.00  0.00    +0.000 A 
ENDBRANCH   9  14
BRANCH   1  20
ATOM     20  C   UNL     1       1.464   9.388  18.879  0.00  0.00    +0.000 C 
BRANCH  20  21
ATOM     21  C   UNL     1       2.022   8.573  17.708  0.00  0.00    +0.000 C 
BRANCH  21  23
ATOM     22  C   UNL     1       2.869   6.396  18.156  0.00  0.00    +0.000 C 
ATOM     23  O   UNL     1       3.166   7.775  17.988  0.00  0.00    +0.000 OA
ENDBRANCH  21  23
ENDBRANCH  20  21
ENDBRANCH   1  20
TORSDOF 4
ENDMDL
MODEL 8
REMARK VINA RESULT:      -5.7      4.371      7.688
REMARK  Name = 
REMARK  5 active torsions:
REMARK  status: ('A' for Active; 'I' for Inactive)
REMARK    1  A    between atoms: C_1  and  O_2
REMARK    2  A    between atoms: O_2  and  C_3
REMARK    3  A    between atoms: C_3  and  C_4
REMARK    4  A    between atoms: C_4  and  N_5
REMARK    5  A    between atoms: C_13  and  C_15
REMARK                            x       y       z     vdW  Elec       q    Type
REMARK                         _______ _______ _______ _____ _____    ______ ____
ROOT
ATOM      1  N   UNL     1       0.896  13.884  18.492  0.00  0.00    +0.000 NA
ATOM      2  C   UNL     1       1.879  12.801  18.565  0.00  0.00    +0.000 C 
ATOM      3  C   UNL     1       1.722  11.966  19.832  0.00  0.00    +0.000 C 
ATOM      4  C   UNL     1       0.276  11.442  20.035  0.00  0.00    +0.000 C 
ATOM      5  C   UNL     1      -0.777  12.514  19.746  0.00  0.00    +0.000 C 
ATOM      6  C   UNL     1      -0.455  13.312  18.482  0.00  0.00    +0.000 C 
ATOM      7  C   UNL     1      -0.073  10.247  19.136  0.00  0.00    +0.000 C 
ATOM      8  N   UNL     1       0.835   9.156  19.394  0.00  0.00    +0.000 N 
ATOM      9  C   UNL     1       1.706   8.823  18.372  0.00  0.00    +0.000 C 
ATOM     10  O   UNL     1       1.789   9.463  17.322  0.00  0.00    +0.000 OA
ATOM     11  C   UNL     1       0.871   8.753  20.814  0.00  0.00    +0.000 C 
ATOM     12  C   UNL     1       0.994   9.950  21.773  0.00  0.00    +0.000 C 
ATOM     13  O   UNL     1       0.114  11.028  21.418  0.00  0.00    +0.000 OA
ENDROOT
BRANCH   9  14
ATOM     14  C   UNL     1       2.597   7.667  18.522  0.00  0.00    +0.000 A 
ATOM     15  C   UNL     1       2.409   6.745  19.548  0.00  0.00    +0.000 A 
ATOM     16  C   UNL     1       3.318   5.705  19.715  0.00  0.00    +0.000 A 
ATOM     17  C   UNL     1       4.361   5.544  18.801  0.00  0.00    +0.000 A 
ATOM     18  C   UNL     1       4.493   6.413  17.716  0.00  0.00    +0.000 A 
ATOM     19  C   UNL     1       3.616   7.481  17.571  0.00  0.00    +0.000 A 
ENDBRANCH   9  14
BRANCH   1  20
ATOM     20  C   UNL     1       1.109  14.853  19.579  0.00  0.00    +0.000 C 
BRANCH  20  21
ATOM     21  C   UNL     1       2.384  15.698  19.488  0.00  0.00    +0.000 C 
BRANCH  21  23
ATOM     22  C   UNL     1       1.397  17.568  18.400  0.00  0.00    +0.000 C 
ATOM     23  O   UNL     1       2.452  16.616  18.404  0.00  0.00    +0.000 OA
ENDBRANCH  21  23
ENDBRANCH  20  21
ENDBRANCH   1  20
TORSDOF 4
ENDMDL
MODEL 9
REMARK VINA RESULT:      -5.7      4.953      8.406
REMARK  Name = 
REMARK  5 active torsions:
REMARK  status: ('A' for Active; 'I' for Inactive)
REMARK    1  A    between atoms: C_1  and  O_2
REMARK    2  A    between atoms: O_2  and  C_3
REMARK    3  A    between atoms: C_3  and  C_4
REMARK    4  A    between atoms: C_4  and  N_5
REMARK    5  A    between atoms: C_13  and  C_15
REMARK                            x       y       z     vdW  Elec       q    Type
REMARK                         _______ _______ _______ _____ _____    ______ ____
ROOT
ATOM      1  N   UNL     1      -1.429  12.146  23.169  0.00  0.00    +0.000 NA
ATOM      2  C   UNL     1      -1.171  10.762  22.766  0.00  0.00    +0.000 C 
ATOM      3  C   UNL     1      -1.395  10.546  21.273  0.00  0.00    +0.000 C 
ATOM      4  C   UNL     1      -0.613  11.555  20.391  0.00  0.00    +0.000 C 
ATOM      5  C   UNL     1      -0.695  12.985  20.932  0.00  0.00    +0.000 C 
ATOM      6  C   UNL     1      -0.514  13.039  22.449  0.00  0.00    +0.000 C 
ATOM      7  C   UNL     1       0.883  11.229  20.271  0.00  0.00    +0.000 C 
ATOM      8  N   UNL     1       1.055   9.915  19.701  0.00  0.00    +0.000 N 
ATOM      9  C   UNL     1       1.588   8.947  20.532  0.00  0.00    +0.000 C 
ATOM     10  O   UNL     1       1.827   9.141  21.726  0.00  0.00    +0.000 OA
ATOM     11  C   UNL     1       0.374   9.751  18.401  0.00  0.00    +0.000 C 
ATOM     12  C   UNL     1      -1.072  10.278  18.412  0.00  0.00    +0.000 C 
ATOM     13  O   UNL     1      -1.184  11.557  19.055  0.00  0.00    +0.000 OA
ENDROOT
BRANCH   9  14
ATOM     14  C   UNL     1       1.880   7.611  20.002  0.00  0.00    +0.000 A 
ATOM     15  C   UNL     1       1.567   6.466  20.730  0.00  0.00    +0.000 A 
ATOM     16  C   UNL     1       1.930   5.216  20.238  0.00  0.00    +0.000 A 
ATOM     17  C   UNL     1       2.527   5.113  18.980  0.00  0.00    +0.000 A 
ATOM     18  C   UNL     1       2.754   6.255  18.209  0.00  0.00    +0.000 A 
ATOM     19  C   UNL     1       2.437   7.509  18.714  0.00  0.00    +0.000 A 
ENDBRANCH   9  14
BRANCH   1  20
ATOM     20  C   UNL     1      -2.847  12.487  22.976  0.00  0.00    +0.000 C 
BRANCH  20  21
ATOM     21  C   UNL     1      -3.617  12.906  24.232  0.00  0.00    +0.000 C 
BRANCH  21  23
ATOM     22  C   UNL     1      -5.980  12.940  23.964  0.00  0.00    +0.000 C 
ATOM     23  O   UNL     1      -4.850  12.237  24.464  0.00  0.00    +0.000 OA
ENDBRANCH  21  23
ENDBRANCH  20  21
ENDBRANCH   1  20
TORSDOF 4
ENDMDL
