MODEL 1
REMARK VINA RESULT:      -7.7      0.000      0.000
REMARK  Name = 
REMARK  12 active torsions:
REMARK  status: ('A' for Active; 'I' for Inactive)
REMARK    1  A    between atoms: C_1  and  C_2
REMARK    2  A    between atoms: C_2  and  C_3
REMARK    3  A    between atoms: C_2  and  C_4
REMARK    4  A    between atoms: C_4  and  O_5
REMARK    5  A    between atoms: O_5  and  C_6
REMARK    6  A    between atoms: C_8  and  N_9
REMARK    7  A    between atoms: C_12  and  O_13
REMARK    8  A    between atoms: O_13  and  C_14
REMARK    9  A    between atoms: C_17  and  C_18
REMARK   10  A    between atoms: C_18  and  C_19
REMARK   11  A    between atoms: C_18  and  N_20
REMARK   12  A    between atoms: C_21  and  C_23
REMARK                            x       y       z     vdW  Elec       q    Type
REMARK                         _______ _______ _______ _____ _____    ______ ____
ROOT
ATOM      1  N   UNL     1       4.600   6.160  18.546  0.00  0.00    +0.000 N 
ATOM      2  C   UNL     1       3.710   5.297  19.339  0.00  0.00    +0.000 C 
ATOM      3  C   UNL     1       2.320   5.534  18.762  0.00  0.00    +0.000 C 
ATOM      4  C   UNL     1       2.354   7.030  18.473  0.00  0.00    +0.000 C 
ATOM      5  C   UNL     1       3.780   7.228  17.921  0.00  0.00    +0.000 C 
ENDROOT
BRANCH   1   8
ATOM      6  C   UNL     1       5.983   4.725  15.452  0.00  0.00    +0.000 A 
ATOM      7  C   UNL     1       5.094   5.330  16.331  0.00  0.00    +0.000 A 
ATOM      8  C   UNL     1       5.503   5.584  17.643  0.00  0.00    +0.000 A 
ATOM      9  C   UNL     1       6.804   5.214  18.000  0.00  0.00    +0.000 A 
ATOM     10  C   UNL     1       7.624   4.635  17.048  0.00  0.00    +0.000 A 
ATOM     11  N   UNL     1       7.244   4.379  15.787  0.00  0.00    +0.000 NA
BRANCH   6  12
ATOM     12  O   UNL     1       5.544   4.481  14.163  0.00  0.00    +0.000 OA
BRANCH  12  13
ATOM     13  C   UNL     1       6.383   3.528  13.503  0.00  0.00    +0.000 C 
BRANCH  13  15
ATOM     14  C   UNL     1       6.748   2.226  11.396  0.00  0.00    +0.000 C 
ATOM     15  C   UNL     1       6.034   3.430  12.011  0.00  0.00    +0.000 C 
ATOM     16  C   UNL     1       4.527   3.329  11.776  0.00  0.00    +0.000 C 
ENDBRANCH  13  15
ENDBRANCH  12  13
ENDBRANCH   6  12
ENDBRANCH   1   8
BRANCH   4  17
ATOM     17  O   UNL     1       2.185   7.779  19.686  0.00  0.00    +0.000 OA
BRANCH  17  18
ATOM     18  C   UNL     1       1.289   8.812  19.645  0.00  0.00    +0.000 A 
ATOM     19  C   UNL     1       1.126   9.442  18.409  0.00  0.00    +0.000 A 
ATOM     20  C   UNL     1       0.198  10.481  18.255  0.00  0.00    +0.000 A 
ATOM     21  C   UNL     1      -0.585  10.901  19.340  0.00  0.00    +0.000 A 
ATOM     22  C   UNL     1      -0.376  10.287  20.585  0.00  0.00    +0.000 A 
ATOM     23  C   UNL     1       0.525   9.235  20.727  0.00  0.00    +0.000 A 
BRANCH  21  24
ATOM     24  C   UNL     1      -1.625  11.998  19.173  0.00  0.00    +0.000 C 
ATOM     25  C   UNL     1      -2.775  11.502  18.296  0.00  0.00    +0.000 C 
BRANCH  24  26
ATOM     26  N   UNL     1      -1.017  13.205  18.628  0.00  0.00    +0.000 N 
ATOM     27  C   UNL     1      -0.558  14.232  19.403  0.00  0.00    +0.000 C 
ATOM     28  O   UNL     1      -0.616  14.250  20.626  0.00  0.00    +0.000 OA
ATOM     29  H   UNL     1      -0.861  13.269  17.636  0.00  0.00    +0.000 HD
BRANCH  27  30
ATOM     30  C   UNL     1       0.055  15.385  18.679  0.00  0.00    +0.000 C 
ATOM     31  C   UNL     1      -0.642  16.726  18.593  0.00  0.00    +0.000 C 
ATOM     32  C   UNL     1       0.635  16.597  19.375  0.00  0.00    +0.000 C 
ENDBRANCH  27  30
ENDBRANCH  24  26
ENDBRANCH  21  24
ENDBRANCH  17  18
ENDBRANCH   4  17
TORSDOF 9
ENDMDL
MODEL 2
REMARK VINA RESULT:      -7.6      1.756      2.417
REMARK  Name = 
REMARK  12 active torsions:
REMARK  status: ('A' for Active; 'I' for Inactive)
REMARK    1  A    between atoms: C_1  and  C_2
REMARK    2  A    between atoms: C_2  and  C_3
REMARK    3  A    between atoms: C_2  and  C_4
REMARK    4  A    between atoms: C_4  and  O_5
REMARK    5  A    between atoms: O_5  and  C_6
REMARK    6  A    between atoms: C_8  and  N_9
REMARK    7  A    between atoms: C_12  and  O_13
REMARK    8  A    between atoms: O_13  and  C_14
REMARK    9  A    between atoms: C_17  and  C_18
REMARK   10  A    between atoms: C_18  and  C_19
REMARK   11  A    between atoms: C_18  and  N_20
REMARK   12  A    between atoms: C_21  and  C_23
REMARK                            x       y       z     vdW  Elec       q    Type
REMARK                         _______ _______ _______ _____ _____    ______ ____
ROOT
ATOM      1  N   UNL     1       4.683   6.046  18.717  0.00  0.00    +0.000 N 
ATOM      2  C   UNL     1       3.621   5.149  19.200  0.00  0.00    +0.000 C 
ATOM      3  C   UNL     1       2.377   5.564  18.426  0.00  0.00    +0.000 C 
ATOM      4  C   UNL     1       2.533   7.079  18.375  0.00  0.00    +0.000 C 
ATOM      5  C   UNL     1       4.045   7.248  18.123  0.00  0.00    +0.000 C 
ENDROOT
BRANCH   1   8
ATOM      6  C   UNL     1       6.559   4.968  15.739  0.00  0.00    +0.000 A 
ATOM      7  C   UNL     1       5.550   5.509  16.527  0.00  0.00    +0.000 A 
ATOM      8  C   UNL     1       5.712   5.536  17.915  0.00  0.00    +0.000 A 
ATOM      9  C   UNL     1       6.900   5.016  18.439  0.00  0.00    +0.000 A 
ATOM     10  C   UNL     1       7.856   4.517  17.573  0.00  0.00    +0.000 A 
ATOM     11  N   UNL     1       7.712   4.478  16.239  0.00  0.00    +0.000 NA
BRANCH   6  12
ATOM     12  O   UNL     1       6.363   4.949  14.370  0.00  0.00    +0.000 OA
BRANCH  12  13
ATOM     13  C   UNL     1       5.547   3.840  13.980  0.00  0.00    +0.000 C 
BRANCH  13  15
ATOM     14  C   UNL     1       4.702   3.362  11.672  0.00  0.00    +0.000 C 
ATOM     15  C   UNL     1       5.932   3.341  12.580  0.00  0.00    +0.000 C 
ATOM     16  C   UNL     1       7.061   4.166  11.964  0.00  0.00    +0.000 C 
ENDBRANCH  13  15
ENDBRANCH  12  13
ENDBRANCH   6  12
ENDBRANCH   1   8
BRANCH   4  17
ATOM     17  O   UNL     1       2.175   7.663  19.637  0.00  0.00    +0.000 OA
BRANCH  17  18
ATOM     18  C   UNL     1       1.324   8.734  19.593  0.00  0.00    +0.000 A 
ATOM     19  C   UNL     1       1.240   9.410  18.374  0.00  0.00    +0.000 A 
ATOM     20  C   UNL     1       0.362  10.491  18.217  0.00  0.00    +0.000 A 
ATOM     21  C   UNL     1      -0.450  10.907  19.282  0.00  0.00    +0.000 A 
ATOM     22  C   UNL     1      -0.320  10.245  20.512  0.00  0.00    +0.000 A 
ATOM     23  C   UNL     1       0.530   9.152  20.656  0.00  0.00    +0.000 A 
BRANCH  21  24
ATOM     24  C   UNL     1      -1.438  12.052  19.109  0.00  0.00    +0.000 C 
ATOM     25  C   UNL     1      -0.726  13.275  18.531  0.00  0.00    +0.000 C 
BRANCH  24  26
ATOM     26  N   UNL     1      -2.093  12.361  20.373  0.00  0.00    +0.000 N 
ATOM     27  C   UNL     1      -3.439  12.560  20.494  0.00  0.00    +0.000 C 
ATOM     28  O   UNL     1      -4.229  12.510  19.559  0.00  0.00    +0.000 OA
ATOM     29  H   UNL     1      -1.548  12.364  21.219  0.00  0.00    +0.000 HD
BRANCH  27  30
ATOM     30  C   UNL     1      -3.946  12.849  21.869  0.00  0.00    +0.000 C 
ATOM     31  C   UNL     1      -4.340  14.249  22.289  0.00  0.00    +0.000 C 
ATOM     32  C   UNL     1      -5.389  13.179  22.176  0.00  0.00    +0.000 C 
ENDBRANCH  27  30
ENDBRANCH  24  26
ENDBRANCH  21  24
ENDBRANCH  17  18
ENDBRANCH   4  17
TORSDOF 9
ENDMDL
MODEL 3
REMARK VINA RESULT:      -7.5      2.090      2.872
REMARK  Name = 
REMARK  12 active torsions:
REMARK  status: ('A' for Active; 'I' for Inactive)
REMARK    1  A    between atoms: C_1  and  C_2
REMARK    2  A    between atoms: C_2  and  C_3
REMARK    3  A    between atoms: C_2  and  C_4
REMARK    4  A    between atoms: C_4  and  O_5
REMARK    5  A    between atoms: O_5  and  C_6
REMARK    6  A    between atoms: C_8  and  N_9
REMARK    7  A    between atoms: C_12  and  O_13
REMARK    8  A    between atoms: O_13  and  C_14
REMARK    9  A    between atoms: C_17  and  C_18
REMARK   10  A    between atoms: C_18  and  C_19
REMARK   11  A    between atoms: C_18  and  N_20
REMARK   12  A    between atoms: C_21  and  C_23
REMARK                            x       y       z     vdW  Elec       q    Type
REMARK                         _______ _______ _______ _____ _____    ______ ____
ROOT
ATOM      1  N   UNL     1       4.513   5.666  18.642  0.00  0.00    +0.000 N 
ATOM      2  C   UNL     1       3.371   4.752  18.806  0.00  0.00    +0.000 C 
ATOM      3  C   UNL     1       2.222   5.427  18.069  0.00  0.00    +0.000 C 
ATOM      4  C   UNL     1       2.454   6.895  18.406  0.00  0.00    +0.000 C 
ATOM      5  C   UNL     1       3.989   7.016  18.318  0.00  0.00    +0.000 C 
ENDROOT
BRANCH   1   8
ATOM      6  C   UNL     1       6.489   4.964  15.617  0.00  0.00    +0.000 A 
ATOM      7  C   UNL     1       5.436   5.366  16.429  0.00  0.00    +0.000 A 
ATOM      8  C   UNL     1       5.584   5.297  17.817  0.00  0.00    +0.000 A 
ATOM      9  C   UNL     1       6.803   4.826  18.317  0.00  0.00    +0.000 A 
ATOM     10  C   UNL     1       7.801   4.468  17.428  0.00  0.00    +0.000 A 
ATOM     11  N   UNL     1       7.672   4.523  16.094  0.00  0.00    +0.000 NA
BRANCH   6  12
ATOM     12  O   UNL     1       6.307   5.038  14.248  0.00  0.00    +0.000 OA
BRANCH  12  13
ATOM     13  C   UNL     1       5.552   3.921  13.766  0.00  0.00    +0.000 C 
BRANCH  13  15
ATOM     14  C   UNL     1       6.908   3.045  11.852  0.00  0.00    +0.000 C 
ATOM     15  C   UNL     1       5.644   3.815  12.237  0.00  0.00    +0.000 C 
ATOM     16  C   UNL     1       4.410   3.147  11.631  0.00  0.00    +0.000 C 
ENDBRANCH  13  15
ENDBRANCH  12  13
ENDBRANCH   6  12
ENDBRANCH   1   8
BRANCH   4  17
ATOM     17  O   UNL     1       2.013   7.178  19.743  0.00  0.00    +0.000 OA
BRANCH  17  18
ATOM     18  C   UNL     1       1.422   8.396  19.945  0.00  0.00    +0.000 A 
ATOM     19  C   UNL     1       1.002   8.672  21.248  0.00  0.00    +0.000 A 
ATOM     20  C   UNL     1       0.427   9.910  21.564  0.00  0.00    +0.000 A 
ATOM     21  C   UNL     1       0.269  10.893  20.577  0.00  0.00    +0.000 A 
ATOM     22  C   UNL     1       0.655  10.582  19.265  0.00  0.00    +0.000 A 
ATOM     23  C   UNL     1       1.254   9.363  18.960  0.00  0.00    +0.000 A 
BRANCH  21  24
ATOM     24  C   UNL     1      -0.315  12.256  20.919  0.00  0.00    +0.000 C 
ATOM     25  C   UNL     1       0.806  13.289  21.047  0.00  0.00    +0.000 C 
BRANCH  24  26
ATOM     26  N   UNL     1      -1.116  12.182  22.134  0.00  0.00    +0.000 N 
ATOM     27  C   UNL     1      -2.454  12.460  22.171  0.00  0.00    +0.000 C 
ATOM     28  O   UNL     1      -3.111  12.807  21.198  0.00  0.00    +0.000 OA
ATOM     29  H   UNL     1      -0.690  11.846  22.982  0.00  0.00    +0.000 HD
BRANCH  27  30
ATOM     30  C   UNL     1      -3.124  12.315  23.498  0.00  0.00    +0.000 C 
ATOM     31  C   UNL     1      -3.415  13.515  24.373  0.00  0.00    +0.000 C 
ATOM     32  C   UNL     1      -4.550  12.742  23.765  0.00  0.00    +0.000 C 
ENDBRANCH  27  30
ENDBRANCH  24  26
ENDBRANCH  21  24
ENDBRANCH  17  18
ENDBRANCH   4  17
TORSDOF 9
ENDMDL
MODEL 4
REMARK VINA RESULT:      -7.5      1.600      2.478
REMARK  Name = 
REMARK  12 active torsions:
REMARK  status: ('A' for Active; 'I' for Inactive)
REMARK    1  A    between atoms: C_1  and  C_2
REMARK    2  A    between atoms: C_2  and  C_3
REMARK    3  A    between atoms: C_2  and  C_4
REMARK    4  A    between atoms: C_4  and  O_5
REMARK    5  A    between atoms: O_5  and  C_6
REMARK    6  A    between atoms: C_8  and  N_9
REMARK    7  A    between atoms: C_12  and  O_13
REMARK    8  A    between atoms: O_13  and  C_14
REMARK    9  A    between atoms: C_17  and  C_18
REMARK   10  A    between atoms: C_18  and  C_19
REMARK   11  A    between atoms: C_18  and  N_20
REMARK   12  A    between atoms: C_21  and  C_23
REMARK                            x       y       z     vdW  Elec       q    Type
REMARK                         _______ _______ _______ _____ _____    ______ ____
ROOT
ATOM      1  N   UNL     1       4.738   5.840  18.830  0.00  0.00    +0.000 N 
ATOM      2  C   UNL     1       3.983   4.840  19.601  0.00  0.00    +0.000 C 
ATOM      3  C   UNL     1       2.597   4.825  18.969  0.00  0.00    +0.000 C 
ATOM      4  C   UNL     1       2.379   6.302  18.660  0.00  0.00    +0.000 C 
ATOM      5  C   UNL     1       3.769   6.743  18.160  0.00  0.00    +0.000 C 
ENDROOT
BRANCH   1   8
ATOM      6  C   UNL     1       6.553   4.979  15.746  0.00  0.00    +0.000 A 
ATOM      7  C   UNL     1       5.545   5.427  16.590  0.00  0.00    +0.000 A 
ATOM      8  C   UNL     1       5.764   5.425  17.971  0.00  0.00    +0.000 A 
ATOM      9  C   UNL     1       7.005   4.971  18.430  0.00  0.00    +0.000 A 
ATOM     10  C   UNL     1       7.955   4.564  17.509  0.00  0.00    +0.000 A 
ATOM     11  N   UNL     1       7.757   4.554  16.183  0.00  0.00    +0.000 NA
BRANCH   6  12
ATOM     12  O   UNL     1       6.300   4.987  14.386  0.00  0.00    +0.000 OA
BRANCH  12  13
ATOM     13  C   UNL     1       5.553   3.832  13.992  0.00  0.00    +0.000 C 
BRANCH  13  15
ATOM     14  C   UNL     1       4.772   3.342  11.664  0.00  0.00    +0.000 C 
ATOM     15  C   UNL     1       5.982   3.348  12.600  0.00  0.00    +0.000 C 
ATOM     16  C   UNL     1       7.103   4.205  12.012  0.00  0.00    +0.000 C 
ENDBRANCH  13  15
ENDBRANCH  12  13
ENDBRANCH   6  12
ENDBRANCH   1   8
BRANCH   4  17
ATOM     17  O   UNL     1       2.035   7.019  19.855  0.00  0.00    +0.000 OA
BRANCH  17  18
ATOM     18  C   UNL     1       1.566   8.293  19.688  0.00  0.00    +0.000 A 
ATOM     19  C   UNL     1       1.022   8.907  20.818  0.00  0.00    +0.000 A 
ATOM     20  C   UNL     1       0.557  10.227  20.759  0.00  0.00    +0.000 A 
ATOM     21  C   UNL     1       0.635  10.955  19.563  0.00  0.00    +0.000 A 
ATOM     22  C   UNL     1       1.143  10.308  18.426  0.00  0.00    +0.000 A 
ATOM     23  C   UNL     1       1.632   9.006  18.496  0.00  0.00    +0.000 A 
BRANCH  21  24
ATOM     24  C   UNL     1       0.173  12.403  19.498  0.00  0.00    +0.000 C 
ATOM     25  C   UNL     1       1.373  13.328  19.291  0.00  0.00    +0.000 C 
BRANCH  24  26
ATOM     26  N   UNL     1      -0.576  12.757  20.697  0.00  0.00    +0.000 N 
ATOM     27  C   UNL     1      -1.941  12.813  20.742  0.00  0.00    +0.000 C 
ATOM     28  O   UNL     1      -2.671  12.582  19.786  0.00  0.00    +0.000 OA
ATOM     29  H   UNL     1      -0.079  12.906  21.559  0.00  0.00    +0.000 HD
BRANCH  27  30
ATOM     30  C   UNL     1      -2.546  13.175  22.059  0.00  0.00    +0.000 C 
ATOM     31  C   UNL     1      -2.588  12.190  23.207  0.00  0.00    +0.000 C 
ATOM     32  C   UNL     1      -1.735  13.422  23.311  0.00  0.00    +0.000 C 
ENDBRANCH  27  30
ENDBRANCH  24  26
ENDBRANCH  21  24
ENDBRANCH  17  18
ENDBRANCH   4  17
TORSDOF 9
ENDMDL
MODEL 5
REMARK VINA RESULT:      -7.4      1.271      1.562
REMARK  Name = 
REMARK  12 active torsions:
REMARK  status: ('A' for Active; 'I' for Inactive)
REMARK    1  A    between atoms: C_1  and  C_2
REMARK    2  A    between atoms: C_2  and  C_3
REMARK    3  A    between atoms: C_2  and  C_4
REMARK    4  A    between atoms: C_4  and  O_5
REMARK    5  A    between atoms: O_5  and  C_6
REMARK    6  A    between atoms: C_8  and  N_9
REMARK    7  A    between atoms: C_12  and  O_13
REMARK    8  A    between atoms: O_13  and  C_14
REMARK    9  A    between atoms: C_17  and  C_18
REMARK   10  A    between atoms: C_18  and  C_19
REMARK   11  A    between atoms: C_18  and  N_20
REMARK   12  A    between atoms: C_21  and  C_23
REMARK                            x       y       z     vdW  Elec       q    Type
REMARK                         _______ _______ _______ _____ _____    ______ ____
ROOT
ATOM      1  N   UNL     1       4.602   5.788  18.626  0.00  0.00    +0.000 N 
ATOM      2  C   UNL     1       3.617   4.816  19.126  0.00  0.00    +0.000 C 
ATOM      3  C   UNL     1       2.337   5.129  18.362  0.00  0.00    +0.000 C 
ATOM      4  C   UNL     1       2.377   6.651  18.298  0.00  0.00    +0.000 C 
ATOM      5  C   UNL     1       3.869   6.932  18.029  0.00  0.00    +0.000 C 
ENDROOT
BRANCH   1   8
ATOM      6  C   UNL     1       6.556   4.915  15.631  0.00  0.00    +0.000 A 
ATOM      7  C   UNL     1       5.519   5.385  16.426  0.00  0.00    +0.000 A 
ATOM      8  C   UNL     1       5.660   5.351  17.817  0.00  0.00    +0.000 A 
ATOM      9  C   UNL     1       6.857   4.845  18.335  0.00  0.00    +0.000 A 
ATOM     10  C   UNL     1       7.842   4.420  17.461  0.00  0.00    +0.000 A 
ATOM     11  N   UNL     1       7.718   4.441  16.126  0.00  0.00    +0.000 NA
BRANCH   6  12
ATOM     12  O   UNL     1       6.381   4.956  14.260  0.00  0.00    +0.000 OA
BRANCH  12  13
ATOM     13  C   UNL     1       5.382   4.021  13.838  0.00  0.00    +0.000 C 
BRANCH  13  15
ATOM     14  C   UNL     1       4.632   3.243  11.580  0.00  0.00    +0.000 C 
ATOM     15  C   UNL     1       5.811   3.301  12.552  0.00  0.00    +0.000 C 
ATOM     16  C   UNL     1       7.013   3.973  11.889  0.00  0.00    +0.000 C 
ENDBRANCH  13  15
ENDBRANCH  12  13
ENDBRANCH   6  12
ENDBRANCH   1   8
BRANCH   4  17
ATOM     17  O   UNL     1       1.987   7.216  19.558  0.00  0.00    +0.000 OA
BRANCH  17  18
ATOM     18  C   UNL     1       1.541   8.510  19.535  0.00  0.00    +0.000 A 
ATOM     19  C   UNL     1       1.530   9.139  18.288  0.00  0.00    +0.000 A 
ATOM     20  C   UNL     1       1.048  10.447  18.153  0.00  0.00    +0.000 A 
ATOM     21  C   UNL     1       0.564  11.144  19.270  0.00  0.00    +0.000 A 
ATOM     22  C   UNL     1       0.624  10.514  20.522  0.00  0.00    +0.000 A 
ATOM     23  C   UNL     1       1.075   9.202  20.647  0.00  0.00    +0.000 A 
BRANCH  21  24
ATOM     24  C   UNL     1      -0.002  12.550  19.127  0.00  0.00    +0.000 C 
ATOM     25  C   UNL     1      -1.188  12.542  18.162  0.00  0.00    +0.000 C 
BRANCH  24  26
ATOM     26  N   UNL     1       1.034  13.480  18.697  0.00  0.00    +0.000 N 
ATOM     27  C   UNL     1       1.090  14.784  19.101  0.00  0.00    +0.000 C 
ATOM     28  O   UNL     1       0.278  15.306  19.855  0.00  0.00    +0.000 OA
ATOM     29  H   UNL     1       1.790  13.140  18.126  0.00  0.00    +0.000 HD
BRANCH  27  30
ATOM     30  C   UNL     1       2.232  15.591  18.578  0.00  0.00    +0.000 C 
ATOM     31  C   UNL     1       3.626  15.456  19.152  0.00  0.00    +0.000 C 
ATOM     32  C   UNL     1       3.353  15.012  17.744  0.00  0.00    +0.000 C 
ENDBRANCH  27  30
ENDBRANCH  24  26
ENDBRANCH  21  24
ENDBRANCH  17  18
ENDBRANCH   4  17
TORSDOF 9
ENDMDL
MODEL 6
REMARK VINA RESULT:      -7.4      1.892      2.555
REMARK  Name = 
REMARK  12 active torsions:
REMARK  status: ('A' for Active; 'I' for Inactive)
REMARK    1  A    between atoms: C_1  and  C_2
REMARK    2  A    between atoms: C_2  and  C_3
REMARK    3  A    between atoms: C_2  and  C_4
REMARK    4  A    between atoms: C_4  and  O_5
REMARK    5  A    between atoms: O_5  and  C_6
REMARK    6  A    between atoms: C_8  and  N_9
REMARK    7  A    between atoms: C_12  and  O_13
REMARK    8  A    between atoms: O_13  and  C_14
REMARK    9  A    between atoms: C_17  and  C_18
REMARK   10  A    between atoms: C_18  and  C_19
REMARK   11  A    between atoms: C_18  and  N_20
REMARK   12  A    between atoms: C_21  and  C_23
REMARK                            x       y       z     vdW  Elec       q    Type
REMARK                         _______ _______ _______ _____ _____    ______ ____
ROOT
ATOM      1  N   UNL     1       4.701   5.602  18.899  0.00  0.00    +0.000 N 
ATOM      2  C   UNL     1       3.756   4.578  19.372  0.00  0.00    +0.000 C 
ATOM      3  C   UNL     1       2.419   4.963  18.753  0.00  0.00    +0.000 C 
ATOM      4  C   UNL     1       2.459   6.484  18.848  0.00  0.00    +0.000 C 
ATOM      5  C   UNL     1       3.925   6.800  18.490  0.00  0.00    +0.000 C 
ENDROOT
BRANCH   1   8
ATOM      6  C   UNL     1       6.379   5.005  15.678  0.00  0.00    +0.000 A 
ATOM      7  C   UNL     1       5.410   5.382  16.600  0.00  0.00    +0.000 A 
ATOM      8  C   UNL     1       5.687   5.259  17.964  0.00  0.00    +0.000 A 
ATOM      9  C   UNL     1       6.943   4.763  18.329  0.00  0.00    +0.000 A 
ATOM     10  C   UNL     1       7.850   4.434  17.338  0.00  0.00    +0.000 A 
ATOM     11  N   UNL     1       7.597   4.540  16.025  0.00  0.00    +0.000 NA
BRANCH   6  12
ATOM     12  O   UNL     1       6.070   5.132  14.336  0.00  0.00    +0.000 OA
BRANCH  12  13
ATOM     13  C   UNL     1       5.492   3.928  13.822  0.00  0.00    +0.000 C 
BRANCH  13  15
ATOM     14  C   UNL     1       6.932   3.158  11.924  0.00  0.00    +0.000 C 
ATOM     15  C   UNL     1       5.626   3.862  12.294  0.00  0.00    +0.000 C 
ATOM     16  C   UNL     1       4.439   3.156  11.641  0.00  0.00    +0.000 C 
ENDBRANCH  13  15
ENDBRANCH  12  13
ENDBRANCH   6  12
ENDBRANCH   1   8
BRANCH   4  17
ATOM     17  O   UNL     1       2.176   6.910  20.190  0.00  0.00    +0.000 OA
BRANCH  17  18
ATOM     18  C   UNL     1       1.435   8.053  20.323  0.00  0.00    +0.000 A 
ATOM     19  C   UNL     1       1.449   8.931  19.237  0.00  0.00    +0.000 A 
ATOM     20  C   UNL     1       0.686  10.105  19.260  0.00  0.00    +0.000 A 
ATOM     21  C   UNL     1      -0.108  10.415  20.373  0.00  0.00    +0.000 A 
ATOM     22  C   UNL     1      -0.076   9.545  21.473  0.00  0.00    +0.000 A 
ATOM     23  C   UNL     1       0.660   8.363  21.435  0.00  0.00    +0.000 A 
BRANCH  21  24
ATOM     24  C   UNL     1      -0.974  11.666  20.390  0.00  0.00    +0.000 C 
ATOM     25  C   UNL     1      -1.370  12.010  21.827  0.00  0.00    +0.000 C 
BRANCH  24  26
ATOM     26  N   UNL     1      -2.144  11.494  19.538  0.00  0.00    +0.000 N 
ATOM     27  C   UNL     1      -2.202  11.927  18.244  0.00  0.00    +0.000 C 
ATOM     28  O   UNL     1      -1.289  12.509  17.671  0.00  0.00    +0.000 OA
ATOM     29  H   UNL     1      -2.931  10.972  19.887  0.00  0.00    +0.000 HD
BRANCH  27  30
ATOM     30  C   UNL     1      -3.473  11.650  17.509  0.00  0.00    +0.000 C 
ATOM     31  C   UNL     1      -3.903  10.237  17.178  0.00  0.00    +0.000 C 
ATOM     32  C   UNL     1      -4.700  11.051  18.158  0.00  0.00    +0.000 C 
ENDBRANCH  27  30
ENDBRANCH  24  26
ENDBRANCH  21  24
ENDBRANCH  17  18
ENDBRANCH   4  17
TORSDOF 9
ENDMDL
MODEL 7
REMARK VINA RESULT:      -7.3      3.404     11.825
REMARK  Name = 
REMARK  12 active torsions:
REMARK  status: ('A' for Active; 'I' for Inactive)
REMARK    1  A    between atoms: C_1  and  C_2
REMARK    2  A    between atoms: C_2  and  C_3
REMARK    3  A    between atoms: C_2  and  C_4
REMARK    4  A    between atoms: C_4  and  O_5
REMARK    5  A    between atoms: O_5  and  C_6
REMARK    6  A    between atoms: C_8  and  N_9
REMARK    7  A    between atoms: C_12  and  O_13
REMARK    8  A    between atoms: O_13  and  C_14
REMARK    9  A    between atoms: C_17  and  C_18
REMARK   10  A    between atoms: C_18  and  C_19
REMARK   11  A    between atoms: C_18  and  N_20
REMARK   12  A    between atoms: C_21  and  C_23
REMARK                            x       y       z     vdW  Elec       q    Type
REMARK                         _______ _______ _______ _____ _____    ______ ____
ROOT
ATOM      1  N   UNL     1      -1.577  11.839  20.855  0.00  0.00    +0.000 N 
ATOM      2  C   UNL     1      -0.430  12.737  21.065  0.00  0.00    +0.000 C 
ATOM      3  C   UNL     1       0.364  12.665  19.767  0.00  0.00    +0.000 C 
ATOM      4  C   UNL     1       0.232  11.192  19.401  0.00  0.00    +0.000 C 
ATOM      5  C   UNL     1      -1.235  10.890  19.766  0.00  0.00    +0.000 C 
ENDROOT
BRANCH   1   8
ATOM      6  C   UNL     1      -4.790  13.433  21.681  0.00  0.00    +0.000 A 
ATOM      7  C   UNL     1      -3.501  12.935  21.822  0.00  0.00    +0.000 A 
ATOM      8  C   UNL     1      -2.863  12.377  20.711  0.00  0.00    +0.000 A 
ATOM      9  C   UNL     1      -3.565  12.358  19.501  0.00  0.00    +0.000 A 
ATOM     10  C   UNL     1      -4.838  12.897  19.454  0.00  0.00    +0.000 A 
ATOM     11  N   UNL     1      -5.466  13.430  20.513  0.00  0.00    +0.000 NA
BRANCH   6  12
ATOM     12  O   UNL     1      -5.396  13.971  22.802  0.00  0.00    +0.000 OA
BRANCH  12  13
ATOM     13  C   UNL     1      -5.652  12.962  23.785  0.00  0.00    +0.000 C 
BRANCH  13  15
ATOM     14  C   UNL     1      -7.742  14.309  24.079  0.00  0.00    +0.000 C 
ATOM     15  C   UNL     1      -7.146  12.902  24.134  0.00  0.00    +0.000 C 
ATOM     16  C   UNL     1      -7.916  11.962  23.207  0.00  0.00    +0.000 C 
ENDBRANCH  13  15
ENDBRANCH  12  13
ENDBRANCH   6  12
ENDBRANCH   1   8
BRANCH   4  17
ATOM     17  O   UNL     1       1.114  10.395  20.207  0.00  0.00    +0.000 OA
BRANCH  17  18
ATOM     18  C   UNL     1       1.594   9.248  19.634  0.00  0.00    +0.000 A 
ATOM     19  C   UNL     1       1.862   9.305  18.264  0.00  0.00    +0.000 A 
ATOM     20  C   UNL     1       2.399   8.197  17.596  0.00  0.00    +0.000 A 
ATOM     21  C   UNL     1       2.680   7.014  18.294  0.00  0.00    +0.000 A 
ATOM     22  C   UNL     1       2.362   6.959  19.660  0.00  0.00    +0.000 A 
ATOM     23  C   UNL     1       1.858   8.072  20.327  0.00  0.00    +0.000 A 
BRANCH  21  24
ATOM     24  C   UNL     1       3.302   5.819  17.587  0.00  0.00    +0.000 C 
ATOM     25  C   UNL     1       2.725   4.519  18.147  0.00  0.00    +0.000 C 
BRANCH  24  26
ATOM     26  N   UNL     1       4.754   5.854  17.700  0.00  0.00    +0.000 N 
ATOM     27  C   UNL     1       5.575   6.319  16.712  0.00  0.00    +0.000 C 
ATOM     28  O   UNL     1       5.181   6.743  15.633  0.00  0.00    +0.000 OA
ATOM     29  H   UNL     1       5.184   5.587  18.571  0.00  0.00    +0.000 HD
BRANCH  27  30
ATOM     30  C   UNL     1       7.040   6.300  17.004  0.00  0.00    +0.000 C 
ATOM     31  C   UNL     1       7.692   7.375  17.848  0.00  0.00    +0.000 C 
ATOM     32  C   UNL     1       7.618   5.965  18.361  0.00  0.00    +0.000 C 
ENDBRANCH  27  30
ENDBRANCH  24  26
ENDBRANCH  21  24
ENDBRANCH  17  18
ENDBRANCH   4  17
TORSDOF 9
ENDMDL
MODEL 8
REMARK VINA RESULT:      -7.3      2.791     10.383
REMARK  Name = 
REMARK  12 active torsions:
REMARK  status: ('A' for Active; 'I' for Inactive)
REMARK    1  A    between atoms: C_1  and  C_2
REMARK    2  A    between atoms: C_2  and  C_3
REMARK    3  A    between atoms: C_2  and  C_4
REMARK    4  A    between atoms: C_4  and  O_5
REMARK    5  A    between atoms: O_5  and  C_6
REMARK    6  A    between atoms: C_8  and  N_9
REMARK    7  A    between atoms: C_12  and  O_13
REMARK    8  A    between atoms: O_13  and  C_14
REMARK    9  A    between atoms: C_17  and  C_18
REMARK   10  A    between atoms: C_18  and  C_19
REMARK   11  A    between atoms: C_18  and  N_20
REMARK   12  A    between atoms: C_21  and  C_23
REMARK                            x       y       z     vdW  Elec       q    Type
REMARK                         _______ _______ _______ _____ _____    ______ ____
ROOT
ATOM      1  N   UNL     1      -0.644  10.026  21.543  0.00  0.00    +0.000 N 
ATOM      2  C   UNL     1      -0.069   9.470  22.778  0.00  0.00    +0.000 C 
ATOM      3  C   UNL     1       1.368   9.116  22.415  0.00  0.00    +0.000 C 
ATOM      4  C   UNL     1       1.208   8.585  20.996  0.00  0.00    +0.000 C 
ATOM      5  C   UNL     1       0.170   9.554  20.395  0.00  0.00    +0.000 C 
ENDROOT
BRANCH   1   8
ATOM      6  C   UNL     1      -0.699  13.504  20.339  0.00  0.00    +0.000 A 
ATOM      7  C   UNL     1      -0.440  12.140  20.391  0.00  0.00    +0.000 A 
ATOM      8  C   UNL     1      -0.933  11.395  21.466  0.00  0.00    +0.000 A 
ATOM      9  C   UNL     1      -1.675  12.073  22.439  0.00  0.00    +0.000 A 
ATOM     10  C   UNL     1      -1.898  13.430  22.290  0.00  0.00    +0.000 A 
ATOM     11  N   UNL     1      -1.426  14.160  21.268  0.00  0.00    +0.000 NA
BRANCH   6  12
ATOM     12  O   UNL     1      -0.191  14.213  19.266  0.00  0.00    +0.000 OA
BRANCH  12  13
ATOM     13  C   UNL     1       0.948  14.989  19.653  0.00  0.00    +0.000 C 
BRANCH  13  15
ATOM     14  C   UNL     1       2.913  15.094  18.105  0.00  0.00    +0.000 C 
ATOM     15  C   UNL     1       2.253  14.298  19.232  0.00  0.00    +0.000 C 
ATOM     16  C   UNL     1       3.221  14.133  20.402  0.00  0.00    +0.000 C 
ENDBRANCH  13  15
ENDBRANCH  12  13
ENDBRANCH   6  12
ENDBRANCH   1   8
BRANCH   4  17
ATOM     17  O   UNL     1       0.683   7.249  21.016  0.00  0.00    +0.000 OA
BRANCH  17  18
ATOM     18  C   UNL     1       1.503   6.264  20.535  0.00  0.00    +0.000 A 
ATOM     19  C   UNL     1       2.588   6.684  19.762  0.00  0.00    +0.000 A 
ATOM     20  C   UNL     1       3.510   5.754  19.263  0.00  0.00    +0.000 A 
ATOM     21  C   UNL     1       3.360   4.387  19.538  0.00  0.00    +0.000 A 
ATOM     22  C   UNL     1       2.240   3.979  20.279  0.00  0.00    +0.000 A 
ATOM     23  C   UNL     1       1.343   4.908  20.799  0.00  0.00    +0.000 A 
BRANCH  21  24
ATOM     24  C   UNL     1       4.379   3.374  19.037  0.00  0.00    +0.000 C 
ATOM     25  C   UNL     1       4.395   2.150  19.954  0.00  0.00    +0.000 C 
BRANCH  24  26
ATOM     26  N   UNL     1       5.699   3.982  18.931  0.00  0.00    +0.000 N 
ATOM     27  C   UNL     1       6.197   4.501  17.769  0.00  0.00    +0.000 C 
ATOM     28  O   UNL     1       5.595   4.502  16.703  0.00  0.00    +0.000 OA
ATOM     29  H   UNL     1       6.255   4.092  19.762  0.00  0.00    +0.000 HD
BRANCH  27  30
ATOM     30  C   UNL     1       7.561   5.104  17.845  0.00  0.00    +0.000 C 
ATOM     31  C   UNL     1       7.761   6.603  17.909  0.00  0.00    +0.000 C 
ATOM     32  C   UNL     1       8.122   5.750  19.092  0.00  0.00    +0.000 C 
ENDBRANCH  27  30
ENDBRANCH  24  26
ENDBRANCH  21  24
ENDBRANCH  17  18
ENDBRANCH   4  17
TORSDOF 9
ENDMDL
MODEL 9
REMARK VINA RESULT:      -7.2      2.860      9.942
REMARK  Name = 
REMARK  12 active torsions:
REMARK  status: ('A' for Active; 'I' for Inactive)
REMARK    1  A    between atoms: C_1  and  C_2
REMARK    2  A    between atoms: C_2  and  C_3
REMARK    3  A    between atoms: C_2  and  C_4
REMARK    4  A    between atoms: C_4  and  O_5
REMARK    5  A    between atoms: O_5  and  C_6
REMARK    6  A    between atoms: C_8  and  N_9
REMARK    7  A    between atoms: C_12  and  O_13
REMARK    8  A    between atoms: O_13  and  C_14
REMARK    9  A    between atoms: C_17  and  C_18
REMARK   10  A    between atoms: C_18  and  C_19
REMARK   11  A    between atoms: C_18  and  N_20
REMARK   12  A    between atoms: C_21  and  C_23
REMARK                            x       y       z     vdW  Elec       q    Type
REMARK                         _______ _______ _______ _____ _____    ______ ____
ROOT
ATOM      1  N   UNL     1      -0.278  10.133  20.424  0.00  0.00    +0.000 N 
ATOM      2  C   UNL     1      -0.617   9.724  21.796  0.00  0.00    +0.000 C 
ATOM      3  C   UNL     1       0.695   9.227  22.391  0.00  0.00    +0.000 C 
ATOM      4  C   UNL     1       1.324   8.511  21.203  0.00  0.00    +0.000 C 
ATOM      5  C   UNL     1       0.979   9.449  20.029  0.00  0.00    +0.000 C 
ENDROOT
BRANCH   1   8
ATOM      6  C   UNL     1       0.675  13.321  18.850  0.00  0.00    +0.000 A 
ATOM      7  C   UNL     1       0.653  11.966  19.153  0.00  0.00    +0.000 A 
ATOM      8  C   UNL     1      -0.275  11.493  20.086  0.00  0.00    +0.000 A 
ATOM      9  C   UNL     1      -1.144  12.424  20.664  0.00  0.00    +0.000 A 
ATOM     10  C   UNL     1      -1.060  13.751  20.282  0.00  0.00    +0.000 A 
ATOM     11  N   UNL     1      -0.171  14.220  19.394  0.00  0.00    +0.000 NA
BRANCH   6  12
ATOM     12  O   UNL     1       1.611  13.757  17.929  0.00  0.00    +0.000 OA
BRANCH  12  13
ATOM     13  C   UNL     1       2.943  13.554  18.410  0.00  0.00    +0.000 C 
BRANCH  13  15
ATOM     14  C   UNL     1       5.166  14.635  18.013  0.00  0.00    +0.000 C 
ATOM     15  C   UNL     1       3.721  14.877  18.449  0.00  0.00    +0.000 C 
ATOM     16  C   UNL     1       3.075  15.951  17.574  0.00  0.00    +0.000 C 
ENDBRANCH  13  15
ENDBRANCH  12  13
ENDBRANCH   6  12
ENDBRANCH   1   8
BRANCH   4  17
ATOM     17  O   UNL     1       0.709   7.229  21.007  0.00  0.00    +0.000 OA
BRANCH  17  18
ATOM     18  C   UNL     1       1.515   6.232  20.528  0.00  0.00    +0.000 A 
ATOM     19  C   UNL     1       2.687   6.638  19.885  0.00  0.00    +0.000 A 
ATOM     20  C   UNL     1       3.599   5.691  19.401  0.00  0.00    +0.000 A 
ATOM     21  C   UNL     1       3.351   4.320  19.559  0.00  0.00    +0.000 A 
ATOM     22  C   UNL     1       2.148   3.930  20.167  0.00  0.00    +0.000 A 
ATOM     23  C   UNL     1       1.258   4.873  20.674  0.00  0.00    +0.000 A 
BRANCH  21  24
ATOM     24  C   UNL     1       4.355   3.284  19.075  0.00  0.00    +0.000 C 
ATOM     25  C   UNL     1       4.380   2.091  20.031  0.00  0.00    +0.000 C 
BRANCH  24  26
ATOM     26  N   UNL     1       5.677   3.880  18.927  0.00  0.00    +0.000 N 
ATOM     27  C   UNL     1       6.131   4.422  17.758  0.00  0.00    +0.000 C 
ATOM     28  O   UNL     1       5.485   4.456  16.718  0.00  0.00    +0.000 OA
ATOM     29  H   UNL     1       6.270   3.963  19.736  0.00  0.00    +0.000 HD
BRANCH  27  30
ATOM     30  C   UNL     1       7.505   5.007  17.789  0.00  0.00    +0.000 C 
ATOM     31  C   UNL     1       7.726   6.505  17.815  0.00  0.00    +0.000 C 
ATOM     32  C   UNL     1       8.102   5.673  19.008  0.00  0.00    +0.000 C 
ENDBRANCH  27  30
ENDBRANCH  24  26
ENDBRANCH  21  24
ENDBRANCH  17  18
ENDBRANCH   4  17
TORSDOF 9
ENDMDL
