MODEL 1
REMARK VINA RESULT:      -9.0      0.000      0.000
REMARK  Name = 
REMARK  8 active torsions:
REMARK  status: ('A' for Active; 'I' for Inactive)
REMARK    1  A    between atoms: C_1  and  C_2
REMARK    2  A    between atoms: C_2  and  C_3
REMARK    3  A    between atoms: C_6  and  O_7
REMARK    4  A    between atoms: O_7  and  C_8
REMARK    5  A    between atoms: N_16  and  C_17
REMARK    6  A    between atoms: C_17  and  C_18
REMARK    7  A    between atoms: C_30  and  C_31
REMARK    8  A    between atoms: C_30  and  C_32
REMARK                            x       y       z     vdW  Elec       q    Type
REMARK                         _______ _______ _______ _____ _____    ______ ____
ROOT
ATOM      1  C   UNL     1      -0.467   9.625  17.830  0.00  0.00    +0.000 C 
ATOM      2  C   UNL     1       0.778   9.855  18.696  0.00  0.00    +0.000 C 
ATOM      3  N   UNL     1       0.527   9.382  20.042  0.00  0.00    +0.000 N 
ATOM      4  C   UNL     1       1.341   8.337  20.406  0.00  0.00    +0.000 C 
ATOM      5  O   UNL     1       1.285   7.779  21.486  0.00  0.00    +0.000 OA
ATOM      6  N   UNL     1       2.150   8.037  19.365  0.00  0.00    +0.000 N 
ATOM      7  C   UNL     1       1.900   8.861  18.301  0.00  0.00    +0.000 C 
ATOM      8  O   UNL     1       2.452   8.800  17.205  0.00  0.00    +0.000 OA
ATOM      9  H   UNL     1      -0.155   9.757  20.683  0.00  0.00    +0.000 HD
ENDROOT
BRANCH   2  10
ATOM     10  C   UNL     1       1.230  11.315  18.660  0.00  0.00    +0.000 A 
ATOM     11  C   UNL     1       0.436  12.357  19.167  0.00  0.00    +0.000 A 
ATOM     12  C   UNL     1       0.860  13.687  19.091  0.00  0.00    +0.000 A 
ATOM     13  C   UNL     1       2.091  14.010  18.526  0.00  0.00    +0.000 A 
ATOM     14  C   UNL     1       2.886  12.995  17.999  0.00  0.00    +0.000 A 
ATOM     15  C   UNL     1       2.462  11.662  18.076  0.00  0.00    +0.000 A 
BRANCH  13  16
ATOM     16  O   UNL     1       2.395  15.341  18.518  0.00  0.00    +0.000 OA
BRANCH  16  17
ATOM     17  C   UNL     1       3.597  15.681  17.849  0.00  0.00    +0.000 C 
ATOM     18  F   UNL     1       3.298  16.082  16.588  0.00  0.00    +0.000 F 
ATOM     19  F   UNL     1       4.120  16.761  18.485  0.00  0.00    +0.000 F 
ENDBRANCH  16  17
ENDBRANCH  13  16
ENDBRANCH   2  10
BRANCH   6  20
ATOM     20  C   UNL     1       3.140   6.978  19.399  0.00  0.00    +0.000 C 
BRANCH  20  21
ATOM     21  C   UNL     1       2.764   5.828  18.431  0.00  0.00    +0.000 C 
ATOM     22  O   UNL     1       1.640   5.322  18.486  0.00  0.00    +0.000 OA
ATOM     23  N   UNL     1       3.799   5.323  17.568  0.00  0.00    +0.000 N 
ATOM     24  C   UNL     1       5.102   5.850  17.764  0.00  0.00    +0.000 A 
ATOM     25  C   UNL     1       5.640   6.792  16.896  0.00  0.00    +0.000 A 
ATOM     26  C   UNL     1       6.939   7.236  17.129  0.00  0.00    +0.000 A 
ATOM     27  C   UNL     1       7.648   6.784  18.252  0.00  0.00    +0.000 A 
ATOM     28  C   UNL     1       7.098   5.829  19.118  0.00  0.00    +0.000 A 
ATOM     29  C   UNL     1       5.849   5.306  18.822  0.00  0.00    +0.000 A 
ATOM     30  N   UNL     1       5.306   4.202  19.513  0.00  0.00    +0.000 N 
ATOM     31  C   UNL     1       4.273   3.425  18.970  0.00  0.00    +0.000 C 
ATOM     32  O   UNL     1       3.889   2.413  19.552  0.00  0.00    +0.000 OA
ATOM     33  C   UNL     1       3.848   3.819  17.510  0.00  0.00    +0.000 C 
ATOM     34  C   UNL     1       4.983   3.258  16.588  0.00  0.00    +0.000 C 
ATOM     35  C   UNL     1       2.548   3.179  16.980  0.00  0.00    +0.000 C 
ATOM     36  H   UNL     1       5.711   3.873  20.380  0.00  0.00    +0.000 HD
ENDBRANCH  20  21
ENDBRANCH   6  20
TORSDOF 5
ENDMDL
MODEL 2
REMARK VINA RESULT:      -8.9      0.768      1.089
REMARK  Name = 
REMARK  8 active torsions:
REMARK  status: ('A' for Active; 'I' for Inactive)
REMARK    1  A    between atoms: C_1  and  C_2
REMARK    2  A    between atoms: C_2  and  C_3
REMARK    3  A    between atoms: C_6  and  O_7
REMARK    4  A    between atoms: O_7  and  C_8
REMARK    5  A    between atoms: N_16  and  C_17
REMARK    6  A    between atoms: C_17  and  C_18
REMARK    7  A    between atoms: C_30  and  C_31
REMARK    8  A    between atoms: C_30  and  C_32
REMARK                            x       y       z     vdW  Elec       q    Type
REMARK                         _______ _______ _______ _____ _____    ______ ____
ROOT
ATOM      1  C   UNL     1      -0.217   9.731  17.925  0.00  0.00    +0.000 C 
ATOM      2  C   UNL     1       0.970   9.838  18.891  0.00  0.00    +0.000 C 
ATOM      3  N   UNL     1       0.604   9.267  20.172  0.00  0.00    +0.000 N 
ATOM      4  C   UNL     1       1.352   8.164  20.502  0.00  0.00    +0.000 C 
ATOM      5  O   UNL     1       1.197   7.522  21.525  0.00  0.00    +0.000 OA
ATOM      6  N   UNL     1       2.223   7.915  19.498  0.00  0.00    +0.000 N 
ATOM      7  C   UNL     1       2.081   8.834  18.493  0.00  0.00    +0.000 C 
ATOM      8  O   UNL     1       2.709   8.838  17.437  0.00  0.00    +0.000 OA
ATOM      9  H   UNL     1      -0.108   9.617  20.794  0.00  0.00    +0.000 HD
ENDROOT
BRANCH   2  10
ATOM     10  C   UNL     1       1.475  11.276  19.010  0.00  0.00    +0.000 A 
ATOM     11  C   UNL     1       2.244  11.885  18.003  0.00  0.00    +0.000 A 
ATOM     12  C   UNL     1       2.722  13.190  18.153  0.00  0.00    +0.000 A 
ATOM     13  C   UNL     1       2.430  13.926  19.298  0.00  0.00    +0.000 A 
ATOM     14  C   UNL     1       1.685  13.336  20.317  0.00  0.00    +0.000 A 
ATOM     15  C   UNL     1       1.206  12.029  20.167  0.00  0.00    +0.000 A 
BRANCH  13  16
ATOM     16  O   UNL     1       2.946  15.191  19.323  0.00  0.00    +0.000 OA
BRANCH  16  17
ATOM     17  C   UNL     1       2.192  16.163  18.620  0.00  0.00    +0.000 C 
ATOM     18  F   UNL     1       2.707  16.297  17.372  0.00  0.00    +0.000 F 
ATOM     19  F   UNL     1       0.937  15.668  18.469  0.00  0.00    +0.000 F 
ENDBRANCH  16  17
ENDBRANCH  13  16
ENDBRANCH   2  10
BRANCH   6  20
ATOM     20  C   UNL     1       3.169   6.817  19.512  0.00  0.00    +0.000 C 
BRANCH  20  21
ATOM     21  C   UNL     1       2.791   5.739  18.465  0.00  0.00    +0.000 C 
ATOM     22  O   UNL     1       1.668   5.230  18.486  0.00  0.00    +0.000 OA
ATOM     23  N   UNL     1       3.824   5.299  17.564  0.00  0.00    +0.000 N 
ATOM     24  C   UNL     1       5.128   5.812  17.795  0.00  0.00    +0.000 A 
ATOM     25  C   UNL     1       5.662   6.814  16.996  0.00  0.00    +0.000 A 
ATOM     26  C   UNL     1       6.962   7.242  17.257  0.00  0.00    +0.000 A 
ATOM     27  C   UNL     1       7.674   6.711  18.343  0.00  0.00    +0.000 A 
ATOM     28  C   UNL     1       7.127   5.695  19.139  0.00  0.00    +0.000 A 
ATOM     29  C   UNL     1       5.878   5.194  18.809  0.00  0.00    +0.000 A 
ATOM     30  N   UNL     1       5.337   4.042  19.420  0.00  0.00    +0.000 N 
ATOM     31  C   UNL     1       4.304   3.305  18.825  0.00  0.00    +0.000 C 
ATOM     32  O   UNL     1       3.922   2.254  19.334  0.00  0.00    +0.000 OA
ATOM     33  C   UNL     1       3.875   3.803  17.398  0.00  0.00    +0.000 C 
ATOM     34  C   UNL     1       5.008   3.311  16.436  0.00  0.00    +0.000 C 
ATOM     35  C   UNL     1       2.574   3.202  16.826  0.00  0.00    +0.000 C 
ATOM     36  H   UNL     1       5.745   3.652  20.260  0.00  0.00    +0.000 HD
ENDBRANCH  20  21
ENDBRANCH   6  20
TORSDOF 5
ENDMDL
MODEL 3
REMARK VINA RESULT:      -8.7      0.874      1.273
REMARK  Name = 
REMARK  8 active torsions:
REMARK  status: ('A' for Active; 'I' for Inactive)
REMARK    1  A    between atoms: C_1  and  C_2
REMARK    2  A    between atoms: C_2  and  C_3
REMARK    3  A    between atoms: C_6  and  O_7
REMARK    4  A    between atoms: O_7  and  C_8
REMARK    5  A    between atoms: N_16  and  C_17
REMARK    6  A    between atoms: C_17  and  C_18
REMARK    7  A    between atoms: C_30  and  C_31
REMARK    8  A    between atoms: C_30  and  C_32
REMARK                            x       y       z     vdW  Elec       q    Type
REMARK                         _______ _______ _______ _____ _____    ______ ____
ROOT
ATOM      1  C   UNL     1      -0.241   9.671  17.906  0.00  0.00    +0.000 C 
ATOM      2  C   UNL     1       0.943   9.790  18.874  0.00  0.00    +0.000 C 
ATOM      3  N   UNL     1       0.583   9.212  20.153  0.00  0.00    +0.000 N 
ATOM      4  C   UNL     1       1.344   8.117  20.481  0.00  0.00    +0.000 C 
ATOM      5  O   UNL     1       1.197   7.471  21.503  0.00  0.00    +0.000 OA
ATOM      6  N   UNL     1       2.220   7.882  19.478  0.00  0.00    +0.000 N 
ATOM      7  C   UNL     1       2.067   8.801  18.475  0.00  0.00    +0.000 C 
ATOM      8  O   UNL     1       2.696   8.816  17.420  0.00  0.00    +0.000 OA
ATOM      9  H   UNL     1      -0.134   9.552  20.774  0.00  0.00    +0.000 HD
ENDROOT
BRANCH   2  10
ATOM     10  C   UNL     1       1.431  11.234  18.996  0.00  0.00    +0.000 A 
ATOM     11  C   UNL     1       2.240  11.837  18.018  0.00  0.00    +0.000 A 
ATOM     12  C   UNL     1       2.699  13.148  18.172  0.00  0.00    +0.000 A 
ATOM     13  C   UNL     1       2.349  13.896  19.293  0.00  0.00    +0.000 A 
ATOM     14  C   UNL     1       1.563  13.313  20.284  0.00  0.00    +0.000 A 
ATOM     15  C   UNL     1       1.102  11.999  20.129  0.00  0.00    +0.000 A 
BRANCH  13  16
ATOM     16  O   UNL     1       2.853  15.165  19.324  0.00  0.00    +0.000 OA
BRANCH  16  17
ATOM     17  C   UNL     1       4.151  15.285  19.878  0.00  0.00    +0.000 C 
ATOM     18  F   UNL     1       4.362  14.249  20.727  0.00  0.00    +0.000 F 
ATOM     19  F   UNL     1       5.038  15.139  18.860  0.00  0.00    +0.000 F 
ENDBRANCH  16  17
ENDBRANCH  13  16
ENDBRANCH   2  10
BRANCH   6  20
ATOM     20  C   UNL     1       3.180   6.795  19.491  0.00  0.00    +0.000 C 
BRANCH  20  21
ATOM     21  C   UNL     1       2.814   5.713  18.444  0.00  0.00    +0.000 C 
ATOM     22  O   UNL     1       1.696   5.191  18.465  0.00  0.00    +0.000 OA
ATOM     23  N   UNL     1       3.851   5.285  17.543  0.00  0.00    +0.000 N 
ATOM     24  C   UNL     1       5.149   5.812  17.773  0.00  0.00    +0.000 A 
ATOM     25  C   UNL     1       5.672   6.820  16.973  0.00  0.00    +0.000 A 
ATOM     26  C   UNL     1       6.967   7.262  17.234  0.00  0.00    +0.000 A 
ATOM     27  C   UNL     1       7.685   6.740  18.320  0.00  0.00    +0.000 A 
ATOM     28  C   UNL     1       7.150   5.719  19.116  0.00  0.00    +0.000 A 
ATOM     29  C   UNL     1       5.906   5.203  18.788  0.00  0.00    +0.000 A 
ATOM     30  N   UNL     1       5.379   4.045  19.399  0.00  0.00    +0.000 N 
ATOM     31  C   UNL     1       4.354   3.297  18.804  0.00  0.00    +0.000 C 
ATOM     32  O   UNL     1       3.985   2.241  19.314  0.00  0.00    +0.000 OA
ATOM     33  C   UNL     1       3.919   3.789  17.378  0.00  0.00    +0.000 C 
ATOM     34  C   UNL     1       5.057   3.310  16.415  0.00  0.00    +0.000 C 
ATOM     35  C   UNL     1       2.625   3.173  16.806  0.00  0.00    +0.000 C 
ATOM     36  H   UNL     1       5.792   3.660  20.239  0.00  0.00    +0.000 HD
ENDBRANCH  20  21
ENDBRANCH   6  20
TORSDOF 5
ENDMDL
MODEL 4
REMARK VINA RESULT:      -8.3      1.035      1.329
REMARK  Name = 
REMARK  8 active torsions:
REMARK  status: ('A' for Active; 'I' for Inactive)
REMARK    1  A    between atoms: C_1  and  C_2
REMARK    2  A    between atoms: C_2  and  C_3
REMARK    3  A    between atoms: C_6  and  O_7
REMARK    4  A    between atoms: O_7  and  C_8
REMARK    5  A    between atoms: N_16  and  C_17
REMARK    6  A    between atoms: C_17  and  C_18
REMARK    7  A    between atoms: C_30  and  C_31
REMARK    8  A    between atoms: C_30  and  C_32
REMARK                            x       y       z     vdW  Elec       q    Type
REMARK                         _______ _______ _______ _____ _____    ______ ____
ROOT
ATOM      1  C   UNL     1      -0.635   9.721  17.894  0.00  0.00    +0.000 C 
ATOM      2  C   UNL     1       0.623   9.963  18.737  0.00  0.00    +0.000 C 
ATOM      3  N   UNL     1       0.384   9.531  20.100  0.00  0.00    +0.000 N 
ATOM      4  C   UNL     1       1.191   8.489  20.483  0.00  0.00    +0.000 C 
ATOM      5  O   UNL     1       1.143   7.962  21.580  0.00  0.00    +0.000 OA
ATOM      6  N   UNL     1       1.984   8.149  19.442  0.00  0.00    +0.000 N 
ATOM      7  C   UNL     1       1.729   8.945  18.358  0.00  0.00    +0.000 C 
ATOM      8  O   UNL     1       2.267   8.846  17.258  0.00  0.00    +0.000 OA
ATOM      9  H   UNL     1      -0.286   9.932  20.738  0.00  0.00    +0.000 HD
ENDROOT
BRANCH   2  10
ATOM     10  C   UNL     1       1.090  11.416  18.653  0.00  0.00    +0.000 A 
ATOM     11  C   UNL     1       2.376  11.764  18.206  0.00  0.00    +0.000 A 
ATOM     12  C   UNL     1       2.789  13.099  18.171  0.00  0.00    +0.000 A 
ATOM     13  C   UNL     1       1.926  14.120  18.562  0.00  0.00    +0.000 A 
ATOM     14  C   UNL     1       0.653  13.797  19.026  0.00  0.00    +0.000 A 
ATOM     15  C   UNL     1       0.240  12.459  19.060  0.00  0.00    +0.000 A 
BRANCH  13  16
ATOM     16  O   UNL     1       2.442  15.382  18.475  0.00  0.00    +0.000 OA
BRANCH  16  17
ATOM     17  C   UNL     1       2.792  15.976  19.712  0.00  0.00    +0.000 C 
ATOM     18  F   UNL     1       1.694  16.574  20.237  0.00  0.00    +0.000 F 
ATOM     19  F   UNL     1       3.129  14.971  20.562  0.00  0.00    +0.000 F 
ENDBRANCH  16  17
ENDBRANCH  13  16
ENDBRANCH   2  10
BRANCH   6  20
ATOM     20  C   UNL     1       2.963   7.081  19.495  0.00  0.00    +0.000 C 
BRANCH  20  21
ATOM     21  C   UNL     1       2.428   5.797  18.812  0.00  0.00    +0.000 C 
ATOM     22  O   UNL     1       1.349   5.316  19.169  0.00  0.00    +0.000 OA
ATOM     23  N   UNL     1       3.281   5.156  17.847  0.00  0.00    +0.000 N 
ATOM     24  C   UNL     1       4.585   5.696  17.693  0.00  0.00    +0.000 A 
ATOM     25  C   UNL     1       4.916   6.486  16.600  0.00  0.00    +0.000 A 
ATOM     26  C   UNL     1       6.225   6.950  16.496  0.00  0.00    +0.000 A 
ATOM     27  C   UNL     1       7.154   6.674  17.510  0.00  0.00    +0.000 A 
ATOM     28  C   UNL     1       6.811   5.870  18.605  0.00  0.00    +0.000 A 
ATOM     29  C   UNL     1       5.540   5.318  18.651  0.00  0.00    +0.000 A 
ATOM     30  N   UNL     1       5.172   4.339  19.599  0.00  0.00    +0.000 N 
ATOM     31  C   UNL     1       4.071   3.496  19.401  0.00  0.00    +0.000 C 
ATOM     32  O   UNL     1       3.834   2.591  20.198  0.00  0.00    +0.000 OA
ATOM     33  C   UNL     1       3.353   3.661  18.014  0.00  0.00    +0.000 C 
ATOM     34  C   UNL     1       4.294   2.953  16.981  0.00  0.00    +0.000 C 
ATOM     35  C   UNL     1       1.989   2.956  17.860  0.00  0.00    +0.000 C 
ATOM     36  H   UNL     1       5.750   4.147  20.407  0.00  0.00    +0.000 HD
ENDBRANCH  20  21
ENDBRANCH   6  20
TORSDOF 5
ENDMDL
MODEL 5
REMARK VINA RESULT:      -8.3      3.388      4.516
REMARK  Name = 
REMARK  8 active torsions:
REMARK  status: ('A' for Active; 'I' for Inactive)
REMARK    1  A    between atoms: C_1  and  C_2
REMARK    2  A    between atoms: C_2  and  C_3
REMARK    3  A    between atoms: C_6  and  O_7
REMARK    4  A    between atoms: O_7  and  C_8
REMARK    5  A    between atoms: N_16  and  C_17
REMARK    6  A    between atoms: C_17  and  C_18
REMARK    7  A    between atoms: C_30  and  C_31
REMARK    8  A    between atoms: C_30  and  C_32
REMARK                            x       y       z     vdW  Elec       q    Type
REMARK                         _______ _______ _______ _____ _____    ______ ____
ROOT
ATOM      1  C   UNL     1       1.518  11.479  19.409  0.00  0.00    +0.000 C 
ATOM      2  C   UNL     1       1.019  10.171  18.782  0.00  0.00    +0.000 C 
ATOM      3  N   UNL     1       1.852   9.829  17.646  0.00  0.00    +0.000 N 
ATOM      4  C   UNL     1       2.540   8.654  17.817  0.00  0.00    +0.000 C 
ATOM      5  O   UNL     1       3.310   8.192  16.993  0.00  0.00    +0.000 OA
ATOM      6  N   UNL     1       2.245   8.153  19.038  0.00  0.00    +0.000 N 
ATOM      7  C   UNL     1       1.365   8.969  19.698  0.00  0.00    +0.000 C 
ATOM      8  O   UNL     1       0.947   8.792  20.839  0.00  0.00    +0.000 OA
ATOM      9  H   UNL     1       1.938  10.363  16.795  0.00  0.00    +0.000 HD
ENDROOT
BRANCH   2  10
ATOM     10  C   UNL     1      -0.465  10.244  18.424  0.00  0.00    +0.000 A 
ATOM     11  C   UNL     1      -1.008   9.537  17.337  0.00  0.00    +0.000 A 
ATOM     12  C   UNL     1      -2.363   9.649  17.012  0.00  0.00    +0.000 A 
ATOM     13  C   UNL     1      -3.212  10.451  17.770  0.00  0.00    +0.000 A 
ATOM     14  C   UNL     1      -2.691  11.175  18.839  0.00  0.00    +0.000 A 
ATOM     15  C   UNL     1      -1.334  11.063  19.166  0.00  0.00    +0.000 A 
BRANCH  13  16
ATOM     16  O   UNL     1      -4.514  10.471  17.357  0.00  0.00    +0.000 OA
BRANCH  16  17
ATOM     17  C   UNL     1      -5.420  11.096  18.249  0.00  0.00    +0.000 C 
ATOM     18  F   UNL     1      -6.274  11.869  17.534  0.00  0.00    +0.000 F 
ATOM     19  F   UNL     1      -6.168  10.115  18.817  0.00  0.00    +0.000 F 
ENDBRANCH  16  17
ENDBRANCH  13  16
ENDBRANCH   2  10
BRANCH   6  20
ATOM     20  C   UNL     1       2.800   6.917  19.553  0.00  0.00    +0.000 C 
BRANCH  20  21
ATOM     21  C   UNL     1       1.940   5.699  19.130  0.00  0.00    +0.000 C 
ATOM     22  O   UNL     1       0.814   5.546  19.611  0.00  0.00    +0.000 OA
ATOM     23  N   UNL     1       2.547   4.728  18.259  0.00  0.00    +0.000 N 
ATOM     24  C   UNL     1       3.922   4.917  17.958  0.00  0.00    +0.000 A 
ATOM     25  C   UNL     1       4.330   5.420  16.730  0.00  0.00    +0.000 A 
ATOM     26  C   UNL     1       5.697   5.544  16.491  0.00  0.00    +0.000 A 
ATOM     27  C   UNL     1       6.621   5.227  17.498  0.00  0.00    +0.000 A 
ATOM     28  C   UNL     1       6.197   4.715  18.732  0.00  0.00    +0.000 A 
ATOM     29  C   UNL     1       4.844   4.488  18.927  0.00  0.00    +0.000 A 
ATOM     30  N   UNL     1       4.345   3.790  20.048  0.00  0.00    +0.000 N 
ATOM     31  C   UNL     1       3.072   3.205  20.048  0.00  0.00    +0.000 C 
ATOM     32  O   UNL     1       2.706   2.522  21.002  0.00  0.00    +0.000 OA
ATOM     33  C   UNL     1       2.299   3.305  18.684  0.00  0.00    +0.000 C 
ATOM     34  C   UNL     1       2.972   2.240  17.755  0.00  0.00    +0.000 C 
ATOM     35  C   UNL     1       0.804   2.922  18.715  0.00  0.00    +0.000 C 
ATOM     36  H   UNL     1       4.930   3.602  20.852  0.00  0.00    +0.000 HD
ENDBRANCH  20  21
ENDBRANCH   6  20
TORSDOF 5
ENDMDL
MODEL 6
REMARK VINA RESULT:      -8.2      1.334      1.382
REMARK  Name = 
REMARK  8 active torsions:
REMARK  status: ('A' for Active; 'I' for Inactive)
REMARK    1  A    between atoms: C_1  and  C_2
REMARK    2  A    between atoms: C_2  and  C_3
REMARK    3  A    between atoms: C_6  and  O_7
REMARK    4  A    between atoms: O_7  and  C_8
REMARK    5  A    between atoms: N_16  and  C_17
REMARK    6  A    between atoms: C_17  and  C_18
REMARK    7  A    between atoms: C_30  and  C_31
REMARK    8  A    between atoms: C_30  and  C_32
REMARK                            x       y       z     vdW  Elec       q    Type
REMARK                         _______ _______ _______ _____ _____    ______ ____
ROOT
ATOM      1  C   UNL     1      -0.391   9.742  18.203  0.00  0.00    +0.000 C 
ATOM      2  C   UNL     1       0.924   9.789  18.993  0.00  0.00    +0.000 C 
ATOM      3  N   UNL     1       0.742   9.141  20.276  0.00  0.00    +0.000 N 
ATOM      4  C   UNL     1       1.520   8.019  20.427  0.00  0.00    +0.000 C 
ATOM      5  O   UNL     1       1.509   7.316  21.421  0.00  0.00    +0.000 OA
ATOM      6  N   UNL     1       2.235   7.833  19.294  0.00  0.00    +0.000 N 
ATOM      7  C   UNL     1       1.957   8.811  18.378  0.00  0.00    +0.000 C 
ATOM      8  O   UNL     1       2.426   8.880  17.245  0.00  0.00    +0.000 OA
ATOM      9  H   UNL     1       0.130   9.452  21.014  0.00  0.00    +0.000 HD
ENDROOT
BRANCH   2  10
ATOM     10  C   UNL     1       1.454  11.217  19.124  0.00  0.00    +0.000 A 
ATOM     11  C   UNL     1       1.229  11.997  20.272  0.00  0.00    +0.000 A 
ATOM     12  C   UNL     1       1.697  13.311  20.351  0.00  0.00    +0.000 A 
ATOM     13  C   UNL     1       2.415  13.875  19.300  0.00  0.00    +0.000 A 
ATOM     14  C   UNL     1       2.634  13.127  18.146  0.00  0.00    +0.000 A 
ATOM     15  C   UNL     1       2.166  11.809  18.066  0.00  0.00    +0.000 A 
BRANCH  13  16
ATOM     16  O   UNL     1       2.825  15.162  19.501  0.00  0.00    +0.000 OA
BRANCH  16  17
ATOM     17  C   UNL     1       1.861  16.156  19.199  0.00  0.00    +0.000 C 
ATOM     18  F   UNL     1       0.884  15.600  18.440  0.00  0.00    +0.000 F 
ATOM     19  F   UNL     1       1.280  16.523  20.370  0.00  0.00    +0.000 F 
ENDBRANCH  16  17
ENDBRANCH  13  16
ENDBRANCH   2  10
BRANCH   6  20
ATOM     20  C   UNL     1       3.163   6.736  19.105  0.00  0.00    +0.000 C 
BRANCH  20  21
ATOM     21  C   UNL     1       2.416   5.425  18.748  0.00  0.00    +0.000 C 
ATOM     22  O   UNL     1       1.326   5.179  19.269  0.00  0.00    +0.000 OA
ATOM     23  N   UNL     1       3.092   4.491  17.887  0.00  0.00    +0.000 N 
ATOM     24  C   UNL     1       4.432   4.805  17.536  0.00  0.00    +0.000 A 
ATOM     25  C   UNL     1       4.752   5.304  16.281  0.00  0.00    +0.000 A 
ATOM     26  C   UNL     1       6.092   5.554  15.994  0.00  0.00    +0.000 A 
ATOM     27  C   UNL     1       7.071   5.364  16.979  0.00  0.00    +0.000 A 
ATOM     28  C   UNL     1       6.738   4.853  18.241  0.00  0.00    +0.000 A 
ATOM     29  C   UNL     1       5.420   4.501  18.487  0.00  0.00    +0.000 A 
ATOM     30  N   UNL     1       5.026   3.794  19.644  0.00  0.00    +0.000 N 
ATOM     31  C   UNL     1       3.818   3.088  19.703  0.00  0.00    +0.000 C 
ATOM     32  O   UNL     1       3.550   2.404  20.688  0.00  0.00    +0.000 OA
ATOM     33  C   UNL     1       2.999   3.065  18.363  0.00  0.00    +0.000 C 
ATOM     34  C   UNL     1       3.748   2.041  17.444  0.00  0.00    +0.000 C 
ATOM     35  C   UNL     1       1.551   2.538  18.454  0.00  0.00    +0.000 C 
ATOM     36  H   UNL     1       5.650   3.693  20.434  0.00  0.00    +0.000 HD
ENDBRANCH  20  21
ENDBRANCH   6  20
TORSDOF 5
ENDMDL
MODEL 7
REMARK VINA RESULT:      -7.9      3.191      4.258
REMARK  Name = 
REMARK  8 active torsions:
REMARK  status: ('A' for Active; 'I' for Inactive)
REMARK    1  A    between atoms: C_1  and  C_2
REMARK    2  A    between atoms: C_2  and  C_3
REMARK    3  A    between atoms: C_6  and  O_7
REMARK    4  A    between atoms: O_7  and  C_8
REMARK    5  A    between atoms: N_16  and  C_17
REMARK    6  A    between atoms: C_17  and  C_18
REMARK    7  A    between atoms: C_30  and  C_31
REMARK    8  A    between atoms: C_30  and  C_32
REMARK                            x       y       z     vdW  Elec       q    Type
REMARK                         _______ _______ _______ _____ _____    ______ ____
ROOT
ATOM      1  C   UNL     1       1.279  11.620  19.638  0.00  0.00    +0.000 C 
ATOM      2  C   UNL     1       0.861  10.362  18.867  0.00  0.00    +0.000 C 
ATOM      3  N   UNL     1       1.739  10.177  17.729  0.00  0.00    +0.000 N 
ATOM      4  C   UNL     1       2.479   9.022  17.802  0.00  0.00    +0.000 C 
ATOM      5  O   UNL     1       3.291   8.683  16.960  0.00  0.00    +0.000 OA
ATOM      6  N   UNL     1       2.175   8.386  18.956  0.00  0.00    +0.000 N 
ATOM      7  C   UNL     1       1.240   9.089  19.667  0.00  0.00    +0.000 C 
ATOM      8  O   UNL     1       0.800   8.777  20.770  0.00  0.00    +0.000 OA
ATOM      9  H   UNL     1       1.822  10.798  16.939  0.00  0.00    +0.000 HD
ENDROOT
BRANCH   2  10
ATOM     10  C   UNL     1      -0.615  10.404  18.471  0.00  0.00    +0.000 A 
ATOM     11  C   UNL     1      -1.559  11.166  19.181  0.00  0.00    +0.000 A 
ATOM     12  C   UNL     1      -2.908  11.160  18.817  0.00  0.00    +0.000 A 
ATOM     13  C   UNL     1      -3.347  10.412  17.728  0.00  0.00    +0.000 A 
ATOM     14  C   UNL     1      -2.432   9.635  17.021  0.00  0.00    +0.000 A 
ATOM     15  C   UNL     1      -1.080   9.642  17.385  0.00  0.00    +0.000 A 
BRANCH  13  16
ATOM     16  O   UNL     1      -4.685  10.495  17.468  0.00  0.00    +0.000 OA
BRANCH  16  17
ATOM     17  C   UNL     1      -5.371  11.523  18.161  0.00  0.00    +0.000 C 
ATOM     18  F   UNL     1      -5.428  12.622  17.369  0.00  0.00    +0.000 F 
ATOM     19  F   UNL     1      -6.652  11.106  18.336  0.00  0.00    +0.000 F 
ENDBRANCH  16  17
ENDBRANCH  13  16
ENDBRANCH   2  10
BRANCH   6  20
ATOM     20  C   UNL     1       2.775   7.129  19.360  0.00  0.00    +0.000 C 
BRANCH  20  21
ATOM     21  C   UNL     1       2.328   5.972  18.431  0.00  0.00    +0.000 C 
ATOM     22  O   UNL     1       1.153   5.596  18.440  0.00  0.00    +0.000 OA
ATOM     23  N   UNL     1       3.348   5.308  17.662  0.00  0.00    +0.000 N 
ATOM     24  C   UNL     1       4.689   5.701  17.913  0.00  0.00    +0.000 A 
ATOM     25  C   UNL     1       5.377   6.526  17.033  0.00  0.00    +0.000 A 
ATOM     26  C   UNL     1       6.703   6.839  17.325  0.00  0.00    +0.000 A 
ATOM     27  C   UNL     1       7.291   6.380  18.513  0.00  0.00    +0.000 A 
ATOM     28  C   UNL     1       6.589   5.543  19.390  0.00  0.00    +0.000 A 
ATOM     29  C   UNL     1       5.308   5.142  19.044  0.00  0.00    +0.000 A 
ATOM     30  N   UNL     1       4.606   4.145  19.755  0.00  0.00    +0.000 N 
ATOM     31  C   UNL     1       3.526   3.455  19.189  0.00  0.00    +0.000 C 
ATOM     32  O   UNL     1       2.998   2.527  19.797  0.00  0.00    +0.000 OA
ATOM     33  C   UNL     1       3.232   3.807  17.686  0.00  0.00    +0.000 C 
ATOM     34  C   UNL     1       4.348   3.073  16.869  0.00  0.00    +0.000 C 
ATOM     35  C   UNL     1       1.901   3.282  17.108  0.00  0.00    +0.000 C 
ATOM     36  H   UNL     1       4.922   3.827  20.662  0.00  0.00    +0.000 HD
ENDBRANCH  20  21
ENDBRANCH   6  20
TORSDOF 5
ENDMDL
MODEL 8
REMARK VINA RESULT:      -7.9      4.304      9.670
REMARK  Name = 
REMARK  8 active torsions:
REMARK  status: ('A' for Active; 'I' for Inactive)
REMARK    1  A    between atoms: C_1  and  C_2
REMARK    2  A    between atoms: C_2  and  C_3
REMARK    3  A    between atoms: C_6  and  O_7
REMARK    4  A    between atoms: O_7  and  C_8
REMARK    5  A    between atoms: N_16  and  C_17
REMARK    6  A    between atoms: C_17  and  C_18
REMARK    7  A    between atoms: C_30  and  C_31
REMARK    8  A    between atoms: C_30  and  C_32
REMARK                            x       y       z     vdW  Elec       q    Type
REMARK                         _______ _______ _______ _____ _____    ______ ____
ROOT
ATOM      1  C   UNL     1      -0.291  10.061  21.531  0.00  0.00    +0.000 C 
ATOM      2  C   UNL     1       0.109  10.316  20.072  0.00  0.00    +0.000 C 
ATOM      3  N   UNL     1      -1.083  10.479  19.264  0.00  0.00    +0.000 N 
ATOM      4  C   UNL     1      -1.189  11.730  18.708  0.00  0.00    +0.000 C 
ATOM      5  O   UNL     1      -2.121  12.084  18.009  0.00  0.00    +0.000 OA
ATOM      6  N   UNL     1      -0.128  12.470  19.103  0.00  0.00    +0.000 N 
ATOM      7  C   UNL     1       0.697  11.742  19.916  0.00  0.00    +0.000 C 
ATOM      8  O   UNL     1       1.717  12.161  20.457  0.00  0.00    +0.000 OA
ATOM      9  H   UNL     1      -1.781   9.773  19.092  0.00  0.00    +0.000 HD
ENDROOT
BRANCH   2  10
ATOM     10  C   UNL     1       1.036   9.223  19.540  0.00  0.00    +0.000 A 
ATOM     11  C   UNL     1       1.474   9.197  18.205  0.00  0.00    +0.000 A 
ATOM     12  C   UNL     1       2.295   8.167  17.737  0.00  0.00    +0.000 A 
ATOM     13  C   UNL     1       2.715   7.150  18.590  0.00  0.00    +0.000 A 
ATOM     14  C   UNL     1       2.278   7.145  19.913  0.00  0.00    +0.000 A 
ATOM     15  C   UNL     1       1.456   8.178  20.382  0.00  0.00    +0.000 A 
BRANCH  13  16
ATOM     16  O   UNL     1       3.519   6.207  18.017  0.00  0.00    +0.000 OA
BRANCH  16  17
ATOM     17  C   UNL     1       2.951   4.913  17.910  0.00  0.00    +0.000 C 
ATOM     18  F   UNL     1       1.667   5.033  17.492  0.00  0.00    +0.000 F 
ATOM     19  F   UNL     1       3.620   4.259  16.926  0.00  0.00    +0.000 F 
ENDBRANCH  16  17
ENDBRANCH  13  16
ENDBRANCH   2  10
BRANCH   6  20
ATOM     20  C   UNL     1       0.080  13.848  18.702  0.00  0.00    +0.000 C 
BRANCH  20  21
ATOM     21  C   UNL     1      -0.293  14.826  19.845  0.00  0.00    +0.000 C 
ATOM     22  O   UNL     1      -1.449  14.854  20.276  0.00  0.00    +0.000 OA
ATOM     23  N   UNL     1       0.721  15.747  20.287  0.00  0.00    +0.000 N 
ATOM     24  C   UNL     1       1.937  15.752  19.554  0.00  0.00    +0.000 A 
ATOM     25  C   UNL     1       3.084  15.151  20.054  0.00  0.00    +0.000 A 
ATOM     26  C   UNL     1       4.251  15.227  19.297  0.00  0.00    +0.000 A 
ATOM     27  C   UNL     1       4.234  15.841  18.036  0.00  0.00    +0.000 A 
ATOM     28  C   UNL     1       3.072  16.450  17.544  0.00  0.00    +0.000 A 
ATOM     29  C   UNL     1       1.942  16.470  18.346  0.00  0.00    +0.000 A 
ATOM     30  N   UNL     1       0.797  17.231  18.027  0.00  0.00    +0.000 N 
ATOM     31  C   UNL     1      -0.151  17.583  18.997  0.00  0.00    +0.000 C 
ATOM     32  O   UNL     1      -1.085  18.327  18.707  0.00  0.00    +0.000 OA
ATOM     33  C   UNL     1       0.214  17.154  20.463  0.00  0.00    +0.000 C 
ATOM     34  C   UNL     1       1.313  18.169  20.925  0.00  0.00    +0.000 C 
ATOM     35  C   UNL     1      -0.911  17.277  21.512  0.00  0.00    +0.000 C 
ATOM     36  H   UNL     1       0.673  17.631  17.106  0.00  0.00    +0.000 HD
ENDBRANCH  20  21
ENDBRANCH   6  20
TORSDOF 5
ENDMDL
MODEL 9
REMARK VINA RESULT:      -7.8      5.929     10.729
REMARK  Name = 
REMARK  8 active torsions:
REMARK  status: ('A' for Active; 'I' for Inactive)
REMARK    1  A    between atoms: C_1  and  C_2
REMARK    2  A    between atoms: C_2  and  C_3
REMARK    3  A    between atoms: C_6  and  O_7
REMARK    4  A    between atoms: O_7  and  C_8
REMARK    5  A    between atoms: N_16  and  C_17
REMARK    6  A    between atoms: C_17  and  C_18
REMARK    7  A    between atoms: C_30  and  C_31
REMARK    8  A    between atoms: C_30  and  C_32
REMARK                            x       y       z     vdW  Elec       q    Type
REMARK                         _______ _______ _______ _____ _____    ______ ____
ROOT
ATOM      1  C   UNL     1       0.740  12.615  19.068  0.00  0.00    +0.000 C 
ATOM      2  C   UNL     1       0.127  11.650  20.091  0.00  0.00    +0.000 C 
ATOM      3  N   UNL     1       0.240  12.215  21.420  0.00  0.00    +0.000 N 
ATOM      4  C   UNL     1      -0.977  12.476  21.999  0.00  0.00    +0.000 C 
ATOM      5  O   UNL     1      -1.110  12.968  23.106  0.00  0.00    +0.000 OA
ATOM      6  N   UNL     1      -1.953  12.135  21.128  0.00  0.00    +0.000 N 
ATOM      7  C   UNL     1      -1.419  11.645  19.967  0.00  0.00    +0.000 C 
ATOM      8  O   UNL     1      -2.059  11.291  18.980  0.00  0.00    +0.000 OA
ATOM      9  H   UNL     1       1.100  12.403  21.911  0.00  0.00    +0.000 HD
ENDROOT
BRANCH   2  10
ATOM     10  C   UNL     1       0.741  10.253  19.990  0.00  0.00    +0.000 A 
ATOM     11  C   UNL     1       0.864   9.408  21.106  0.00  0.00    +0.000 A 
ATOM     12  C   UNL     1       1.460   8.149  20.992  0.00  0.00    +0.000 A 
ATOM     13  C   UNL     1       1.931   7.694  19.763  0.00  0.00    +0.000 A 
ATOM     14  C   UNL     1       1.836   8.523  18.648  0.00  0.00    +0.000 A 
ATOM     15  C   UNL     1       1.237   9.784  18.761  0.00  0.00    +0.000 A 
BRANCH  13  16
ATOM     16  O   UNL     1       2.484   6.445  19.779  0.00  0.00    +0.000 OA
BRANCH  16  17
ATOM     17  C   UNL     1       1.719   5.455  20.443  0.00  0.00    +0.000 C 
ATOM     18  F   UNL     1       1.216   4.599  19.519  0.00  0.00    +0.000 F 
ATOM     19  F   UNL     1       2.573   4.734  21.214  0.00  0.00    +0.000 F 
ENDBRANCH  16  17
ENDBRANCH  13  16
ENDBRANCH   2  10
BRANCH   6  20
ATOM     20  C   UNL     1      -3.368  12.279  21.413  0.00  0.00    +0.000 C 
BRANCH  20  21
ATOM     21  C   UNL     1      -3.876  13.689  21.019  0.00  0.00    +0.000 C 
ATOM     22  O   UNL     1      -3.387  14.689  21.552  0.00  0.00    +0.000 OA
ATOM     23  N   UNL     1      -4.989  13.763  20.110  0.00  0.00    +0.000 N 
ATOM     24  C   UNL     1      -5.593  12.531  19.745  0.00  0.00    +0.000 A 
ATOM     25  C   UNL     1      -5.363  11.952  18.504  0.00  0.00    +0.000 A 
ATOM     26  C   UNL     1      -6.019  10.762  18.201  0.00  0.00    +0.000 A 
ATOM     27  C   UNL     1      -6.835  10.142  19.159  0.00  0.00    +0.000 A 
ATOM     28  C   UNL     1      -7.066  10.739  20.406  0.00  0.00    +0.000 A 
ATOM     29  C   UNL     1      -6.500  11.978  20.664  0.00  0.00    +0.000 A 
ATOM     30  N   UNL     1      -6.838  12.745  21.800  0.00  0.00    +0.000 N 
ATOM     31  C   UNL     1      -6.606  14.125  21.855  0.00  0.00    +0.000 C 
ATOM     32  O   UNL     1      -7.000  14.780  22.818  0.00  0.00    +0.000 OA
ATOM     33  C   UNL     1      -6.041  14.754  20.532  0.00  0.00    +0.000 C 
ATOM     34  C   UNL     1      -7.267  14.828  19.559  0.00  0.00    +0.000 C 
ATOM     35  C   UNL     1      -5.519  16.203  20.630  0.00  0.00    +0.000 C 
ATOM     36  H   UNL     1      -7.350  12.340  22.573  0.00  0.00    +0.000 HD
ENDBRANCH  20  21
ENDBRANCH   6  20
TORSDOF 5
ENDMDL
