MODEL 1
REMARK VINA RESULT:      -6.0      0.000      0.000
REMARK  Name = 
REMARK  9 active torsions:
REMARK  status: ('A' for Active; 'I' for Inactive)
REMARK    1  A    between atoms: C_1  and  O_2
REMARK    2  A    between atoms: O_2  and  C_3
REMARK    3  A    between atoms: C_7  and  C_8
REMARK    4  A    between atoms: C_9  and  C_10
REMARK    5  A    between atoms: C_12  and  N_13
REMARK    6  A    between atoms: C_18  and  C_19
REMARK    7  A    between atoms: C_19  and  O_20
REMARK    8  A    between atoms: C_24  and  O_25
REMARK    9  A    between atoms: O_25  and  C_26
REMARK                            x       y       z     vdW  Elec       q    Type
REMARK                         _______ _______ _______ _____ _____    ______ ____
ROOT
ATOM      1  C   UNL     1       3.335   5.628  18.344  0.00  0.00    +0.000 C 
ATOM      2  C   UNL     1       2.709   6.860  18.946  0.00  0.00    +0.000 C 
ATOM      3  C   UNL     1       1.996   6.817  20.089  0.00  0.00    +0.000 C 
ATOM      4  O   UNL     1       1.840   5.623  20.795  0.00  0.00    +0.000 OA
ATOM      5  C   UNL     1       2.314   4.438  20.259  0.00  0.00    +0.000 A 
ATOM      6  C   UNL     1       2.987   4.371  19.101  0.00  0.00    +0.000 A 
ATOM      7  O   UNL     1       3.453   3.200  18.539  0.00  0.00    +0.000 OA
ATOM      8  C   UNL     1       3.332   2.018  19.251  0.00  0.00    +0.000 A 
ATOM      9  C   UNL     1       2.705   1.952  20.433  0.00  0.00    +0.000 A 
ATOM     10  C   UNL     1       2.116   3.178  21.016  0.00  0.00    +0.000 A 
ATOM     11  O   UNL     1       1.521   3.132  22.086  0.00  0.00    +0.000 OA
ENDROOT
BRANCH   1  16
ATOM     12  C   UNL     1       6.874   5.867  16.912  0.00  0.00    +0.000 A 
ATOM     13  C   UNL     1       7.640   5.788  18.090  0.00  0.00    +0.000 A 
ATOM     14  C   UNL     1       7.027   5.638  19.330  0.00  0.00    +0.000 A 
ATOM     15  C   UNL     1       5.643   5.596  19.408  0.00  0.00    +0.000 A 
ATOM     16  C   UNL     1       4.857   5.746  18.245  0.00  0.00    +0.000 A 
ATOM     17  C   UNL     1       5.476   5.903  16.986  0.00  0.00    +0.000 A 
BRANCH  12  19
ATOM     18  C   UNL     1       7.279   4.713  14.902  0.00  0.00    +0.000 C 
ATOM     19  O   UNL     1       7.493   5.888  15.689  0.00  0.00    +0.000 OA
ENDBRANCH  12  19
BRANCH  17  20
ATOM     20  O   UNL     1       4.587   5.985  15.949  0.00  0.00    +0.000 OA
ATOM     21  C   UNL     1       4.614   7.091  15.062  0.00  0.00    +0.000 C 
ENDBRANCH  17  20
ENDBRANCH   1  16
BRANCH   3  22
ATOM     22  N   UNL     1       1.363   7.883  20.679  0.00  0.00    +0.000 N 
ATOM     23  H   UNL     1       1.096   7.771  21.653  0.00  0.00    +0.000 HD
ATOM     24  H   UNL     1       0.630   8.279  20.094  0.00  0.00    +0.000 HD
ENDBRANCH   3  22
BRANCH   2  25
ATOM     25  C   UNL     1       2.870   8.152  18.161  0.00  0.00    +0.000 C 
ATOM     26  N   UNL     1       3.002   9.223  17.509  0.00  0.00    +0.000 NA
ENDBRANCH   2  25
BRANCH   8  27
ATOM     27  C   UNL     1       3.963   0.833  18.581  0.00  0.00    +0.000 C 
BRANCH  27  28
ATOM     28  O   UNL     1       4.985   0.293  19.411  0.00  0.00    +0.000 OA
ATOM     29  H   UNL     1       5.747   0.897  19.349  0.00  0.00    +0.000 HD
ENDBRANCH  27  28
ENDBRANCH   8  27
TORSDOF 7
ENDMDL
MODEL 2
REMARK VINA RESULT:      -6.0      2.636      6.185
REMARK  Name = 
REMARK  9 active torsions:
REMARK  status: ('A' for Active; 'I' for Inactive)
REMARK    1  A    between atoms: C_1  and  O_2
REMARK    2  A    between atoms: O_2  and  C_3
REMARK    3  A    between atoms: C_7  and  C_8
REMARK    4  A    between atoms: C_9  and  C_10
REMARK    5  A    between atoms: C_12  and  N_13
REMARK    6  A    between atoms: C_18  and  C_19
REMARK    7  A    between atoms: C_19  and  O_20
REMARK    8  A    between atoms: C_24  and  O_25
REMARK    9  A    between atoms: O_25  and  C_26
REMARK                            x       y       z     vdW  Elec       q    Type
REMARK                         _______ _______ _______ _____ _____    ______ ____
ROOT
ATOM      1  C   UNL     1       4.275   5.788  17.609  0.00  0.00    +0.000 C 
ATOM      2  C   UNL     1       3.852   4.415  18.066  0.00  0.00    +0.000 C 
ATOM      3  C   UNL     1       4.661   3.621  18.795  0.00  0.00    +0.000 C 
ATOM      4  O   UNL     1       5.924   4.057  19.199  0.00  0.00    +0.000 OA
ATOM      5  C   UNL     1       6.413   5.271  18.745  0.00  0.00    +0.000 A 
ATOM      6  C   UNL     1       5.705   6.106  17.970  0.00  0.00    +0.000 A 
ATOM      7  O   UNL     1       6.177   7.311  17.491  0.00  0.00    +0.000 OA
ATOM      8  C   UNL     1       7.414   7.764  17.916  0.00  0.00    +0.000 A 
ATOM      9  C   UNL     1       8.211   7.039  18.713  0.00  0.00    +0.000 A 
ATOM     10  C   UNL     1       7.767   5.702  19.168  0.00  0.00    +0.000 A 
ATOM     11  O   UNL     1       8.491   5.017  19.879  0.00  0.00    +0.000 OA
ENDROOT
BRANCH   1  16
ATOM     12  C   UNL     1       1.901   7.724  19.900  0.00  0.00    +0.000 A 
ATOM     13  C   UNL     1       1.575   8.818  19.076  0.00  0.00    +0.000 A 
ATOM     14  C   UNL     1       2.096   8.921  17.791  0.00  0.00    +0.000 A 
ATOM     15  C   UNL     1       2.970   7.950  17.326  0.00  0.00    +0.000 A 
ATOM     16  C   UNL     1       3.365   6.885  18.163  0.00  0.00    +0.000 A 
ATOM     17  C   UNL     1       2.842   6.779  19.471  0.00  0.00    +0.000 A 
BRANCH  12  19
ATOM     18  C   UNL     1       1.064   8.792  21.822  0.00  0.00    +0.000 C 
ATOM     19  O   UNL     1       1.284   7.569  21.114  0.00  0.00    +0.000 OA
ENDBRANCH  12  19
BRANCH  17  20
ATOM     20  O   UNL     1       3.276   5.669  20.143  0.00  0.00    +0.000 OA
ATOM     21  C   UNL     1       2.399   4.953  20.995  0.00  0.00    +0.000 C 
ENDBRANCH  17  20
ENDBRANCH   1  16
BRANCH   3  22
ATOM     22  N   UNL     1       4.367   2.348  19.216  0.00  0.00    +0.000 N 
ATOM     23  H   UNL     1       4.784   2.051  20.094  0.00  0.00    +0.000 HD
ATOM     24  H   UNL     1       4.444   1.659  18.470  0.00  0.00    +0.000 HD
ENDBRANCH   3  22
BRANCH   2  25
ATOM     25  C   UNL     1       2.482   3.943  17.607  0.00  0.00    +0.000 C 
ATOM     26  N   UNL     1       1.346   3.551  17.226  0.00  0.00    +0.000 NA
ENDBRANCH   2  25
BRANCH   8  27
ATOM     27  C   UNL     1       7.774   9.129  17.406  0.00  0.00    +0.000 C 
BRANCH  27  28
ATOM     28  O   UNL     1       8.644   9.777  18.327  0.00  0.00    +0.000 OA
ATOM     29  H   UNL     1       9.502   9.887  17.876  0.00  0.00    +0.000 HD
ENDBRANCH  27  28
ENDBRANCH   8  27
TORSDOF 7
ENDMDL
MODEL 3
REMARK VINA RESULT:      -5.9      7.500     10.952
REMARK  Name = 
REMARK  9 active torsions:
REMARK  status: ('A' for Active; 'I' for Inactive)
REMARK    1  A    between atoms: C_1  and  O_2
REMARK    2  A    between atoms: O_2  and  C_3
REMARK    3  A    between atoms: C_7  and  C_8
REMARK    4  A    between atoms: C_9  and  C_10
REMARK    5  A    between atoms: C_12  and  N_13
REMARK    6  A    between atoms: C_18  and  C_19
REMARK    7  A    between atoms: C_19  and  O_20
REMARK    8  A    between atoms: C_24  and  O_25
REMARK    9  A    between atoms: O_25  and  C_26
REMARK                            x       y       z     vdW  Elec       q    Type
REMARK                         _______ _______ _______ _____ _____    ______ ____
ROOT
ATOM      1  C   UNL     1      -1.680  11.330  19.629  0.00  0.00    +0.000 C 
ATOM      2  C   UNL     1      -0.366  10.598  19.536  0.00  0.00    +0.000 C 
ATOM      3  C   UNL     1       0.008   9.934  18.424  0.00  0.00    +0.000 C 
ATOM      4  O   UNL     1      -0.797   9.931  17.284  0.00  0.00    +0.000 OA
ATOM      5  C   UNL     1      -2.054  10.509  17.324  0.00  0.00    +0.000 A 
ATOM      6  C   UNL     1      -2.537  11.144  18.402  0.00  0.00    +0.000 A 
ATOM      7  O   UNL     1      -3.793  11.712  18.472  0.00  0.00    +0.000 OA
ATOM      8  C   UNL     1      -4.581  11.743  17.334  0.00  0.00    +0.000 A 
ATOM      9  C   UNL     1      -4.205  11.168  16.183  0.00  0.00    +0.000 A 
ATOM     10  C   UNL     1      -2.900  10.472  16.107  0.00  0.00    +0.000 A 
ATOM     11  O   UNL     1      -2.550   9.924  15.070  0.00  0.00    +0.000 OA
ENDROOT
BRANCH   1  16
ATOM     12  C   UNL     1      -2.100  14.856  21.052  0.00  0.00    +0.000 A 
ATOM     13  C   UNL     1      -1.242  15.584  20.206  0.00  0.00    +0.000 A 
ATOM     14  C   UNL     1      -0.552  14.953  19.177  0.00  0.00    +0.000 A 
ATOM     15  C   UNL     1      -0.689  13.584  19.000  0.00  0.00    +0.000 A 
ATOM     16  C   UNL     1      -1.488  12.826  19.883  0.00  0.00    +0.000 A 
ATOM     17  C   UNL     1      -2.186  13.464  20.932  0.00  0.00    +0.000 A 
BRANCH  12  19
ATOM     18  C   UNL     1      -2.145  16.438  22.793  0.00  0.00    +0.000 C 
ATOM     19  O   UNL     1      -2.869  15.510  21.980  0.00  0.00    +0.000 OA
ENDBRANCH  12  19
BRANCH  17  20
ATOM     20  O   UNL     1      -2.958  12.609  21.671  0.00  0.00    +0.000 OA
ATOM     21  C   UNL     1      -2.573  12.242  22.985  0.00  0.00    +0.000 C 
ENDBRANCH  17  20
ENDBRANCH   1  16
BRANCH   3  22
ATOM     22  N   UNL     1       1.166   9.212  18.273  0.00  0.00    +0.000 N 
ATOM     23  H   UNL     1       1.836   9.262  19.035  0.00  0.00    +0.000 HD
ATOM     24  H   UNL     1       1.582   9.324  17.351  0.00  0.00    +0.000 HD
ENDBRANCH   3  22
BRANCH   2  25
ATOM     25  C   UNL     1       0.495  10.592  20.789  0.00  0.00    +0.000 C 
ATOM     26  N   UNL     1       1.209  10.588  21.829  0.00  0.00    +0.000 NA
ENDBRANCH   2  25
BRANCH   8  27
ATOM     27  C   UNL     1      -5.881  12.472  17.509  0.00  0.00    +0.000 C 
BRANCH  27  28
ATOM     28  O   UNL     1      -6.949  11.539  17.622  0.00  0.00    +0.000 OA
ATOM     29  H   UNL     1      -6.583  10.663  17.401  0.00  0.00    +0.000 HD
ENDBRANCH  27  28
ENDBRANCH   8  27
TORSDOF 7
ENDMDL
MODEL 4
REMARK VINA RESULT:      -5.9      8.322     10.999
REMARK  Name = 
REMARK  9 active torsions:
REMARK  status: ('A' for Active; 'I' for Inactive)
REMARK    1  A    between atoms: C_1  and  O_2
REMARK    2  A    between atoms: O_2  and  C_3
REMARK    3  A    between atoms: C_7  and  C_8
REMARK    4  A    between atoms: C_9  and  C_10
REMARK    5  A    between atoms: C_12  and  N_13
REMARK    6  A    between atoms: C_18  and  C_19
REMARK    7  A    between atoms: C_19  and  O_20
REMARK    8  A    between atoms: C_24  and  O_25
REMARK    9  A    between atoms: O_25  and  C_26
REMARK                            x       y       z     vdW  Elec       q    Type
REMARK                         _______ _______ _______ _____ _____    ______ ____
ROOT
ATOM      1  C   UNL     1      -2.430  13.658  21.960  0.00  0.00    +0.000 C 
ATOM      2  C   UNL     1      -2.545  14.377  23.281  0.00  0.00    +0.000 C 
ATOM      3  C   UNL     1      -3.720  14.503  23.929  0.00  0.00    +0.000 C 
ATOM      4  O   UNL     1      -4.887  13.930  23.420  0.00  0.00    +0.000 OA
ATOM      5  C   UNL     1      -4.874  13.329  22.172  0.00  0.00    +0.000 A 
ATOM      6  C   UNL     1      -3.766  13.205  21.427  0.00  0.00    +0.000 A 
ATOM      7  O   UNL     1      -3.732  12.627  20.174  0.00  0.00    +0.000 OA
ATOM      8  C   UNL     1      -4.877  12.026  19.680  0.00  0.00    +0.000 A 
ATOM      9  C   UNL     1      -6.045  12.056  20.337  0.00  0.00    +0.000 A 
ATOM     10  C   UNL     1      -6.131  12.749  21.642  0.00  0.00    +0.000 A 
ATOM     11  O   UNL     1      -7.195  12.803  22.246  0.00  0.00    +0.000 OA
ENDROOT
BRANCH   1  16
ATOM     12  C   UNL     1       0.280  11.100  21.094  0.00  0.00    +0.000 A 
ATOM     13  C   UNL     1       0.093  10.160  22.125  0.00  0.00    +0.000 A 
ATOM     14  C   UNL     1      -0.907  10.336  23.077  0.00  0.00    +0.000 A 
ATOM     15  C   UNL     1      -1.709  11.466  23.025  0.00  0.00    +0.000 A 
ATOM     16  C   UNL     1      -1.490  12.454  22.042  0.00  0.00    +0.000 A 
ATOM     17  C   UNL     1      -0.473  12.281  21.077  0.00  0.00    +0.000 A 
BRANCH  12  19
ATOM     18  C   UNL     1       0.929   9.653  19.356  0.00  0.00    +0.000 C 
ATOM     19  O   UNL     1       1.182  10.853  20.093  0.00  0.00    +0.000 OA
ENDBRANCH  12  19
BRANCH  17  20
ATOM     20  O   UNL     1      -0.414  13.295  20.160  0.00  0.00    +0.000 OA
ATOM     21  C   UNL     1      -0.699  13.050  18.794  0.00  0.00    +0.000 C 
ENDBRANCH  17  20
ENDBRANCH   1  16
BRANCH   3  22
ATOM     22  N   UNL     1      -3.916  15.173  25.110  0.00  0.00    +0.000 N 
ATOM     23  H   UNL     1      -3.178  15.808  25.401  0.00  0.00    +0.000 HD
ATOM     24  H   UNL     1      -4.255  14.568  25.855  0.00  0.00    +0.000 HD
ENDBRANCH   3  22
BRANCH   2  25
ATOM     25  C   UNL     1      -1.273  15.012  23.817  0.00  0.00    +0.000 C 
ATOM     26  N   UNL     1      -0.217  15.539  24.262  0.00  0.00    +0.000 NA
ENDBRANCH   2  25
BRANCH   8  27
ATOM     27  C   UNL     1      -4.690  11.348  18.355  0.00  0.00    +0.000 C 
BRANCH  27  28
ATOM     28  O   UNL     1      -4.012  12.218  17.456  0.00  0.00    +0.000 OA
ATOM     29  H   UNL     1      -4.489  12.174  16.607  0.00  0.00    +0.000 HD
ENDBRANCH  27  28
ENDBRANCH   8  27
TORSDOF 7
ENDMDL
MODEL 5
REMARK VINA RESULT:      -5.8      6.984      9.481
REMARK  Name = 
REMARK  9 active torsions:
REMARK  status: ('A' for Active; 'I' for Inactive)
REMARK    1  A    between atoms: C_1  and  O_2
REMARK    2  A    between atoms: O_2  and  C_3
REMARK    3  A    between atoms: C_7  and  C_8
REMARK    4  A    between atoms: C_9  and  C_10
REMARK    5  A    between atoms: C_12  and  N_13
REMARK    6  A    between atoms: C_18  and  C_19
REMARK    7  A    between atoms: C_19  and  O_20
REMARK    8  A    between atoms: C_24  and  O_25
REMARK    9  A    between atoms: O_25  and  C_26
REMARK                            x       y       z     vdW  Elec       q    Type
REMARK                         _______ _______ _______ _____ _____    ______ ____
ROOT
ATOM      1  C   UNL     1      -1.068  12.927  20.165  0.00  0.00    +0.000 C 
ATOM      2  C   UNL     1      -0.914  13.638  21.486  0.00  0.00    +0.000 C 
ATOM      3  C   UNL     1      -1.967  13.902  22.285  0.00  0.00    +0.000 C 
ATOM      4  O   UNL     1      -3.254  13.486  21.940  0.00  0.00    +0.000 OA
ATOM      5  C   UNL     1      -3.483  12.905  20.705  0.00  0.00    +0.000 A 
ATOM      6  C   UNL     1      -2.510  12.652  19.818  0.00  0.00    +0.000 A 
ATOM      7  O   UNL     1      -2.717  12.090  18.575  0.00  0.00    +0.000 OA
ATOM      8  C   UNL     1      -3.985  11.644  18.242  0.00  0.00    +0.000 A 
ATOM      9  C   UNL     1      -5.041  11.811  19.050  0.00  0.00    +0.000 A 
ATOM     10  C   UNL     1      -4.863  12.493  20.352  0.00  0.00    +0.000 A 
ATOM     11  O   UNL     1      -5.822  12.672  21.093  0.00  0.00    +0.000 OA
ENDROOT
BRANCH   1  16
ATOM     12  C   UNL     1       1.264  10.123  19.010  0.00  0.00    +0.000 A 
ATOM     13  C   UNL     1       0.999   9.143  19.986  0.00  0.00    +0.000 A 
ATOM     14  C   UNL     1       0.066   9.373  20.991  0.00  0.00    +0.000 A 
ATOM     15  C   UNL     1      -0.590  10.594  21.050  0.00  0.00    +0.000 A 
ATOM     16  C   UNL     1      -0.285  11.614  20.124  0.00  0.00    +0.000 A 
ATOM     17  C   UNL     1       0.666  11.386  19.105  0.00  0.00    +0.000 A 
BRANCH  12  19
ATOM     18  C   UNL     1       2.416   8.451  17.821  0.00  0.00    +0.000 C 
ATOM     19  O   UNL     1       2.091   9.838  17.955  0.00  0.00    +0.000 OA
ENDBRANCH  12  19
BRANCH  17  20
ATOM     20  O   UNL     1       0.817  12.447  18.255  0.00  0.00    +0.000 OA
ATOM     21  C   UNL     1       1.988  13.246  18.299  0.00  0.00    +0.000 C 
ENDBRANCH  17  20
ENDBRANCH   1  16
BRANCH   3  22
ATOM     22  N   UNL     1      -1.916  14.577  23.479  0.00  0.00    +0.000 N 
ATOM     23  H   UNL     1      -2.271  14.086  24.295  0.00  0.00    +0.000 HD
ATOM     24  H   UNL     1      -2.243  15.538  23.403  0.00  0.00    +0.000 HD
ENDBRANCH   3  22
BRANCH   2  25
ATOM     25  C   UNL     1       0.489  14.102  21.843  0.00  0.00    +0.000 C 
ATOM     26  N   UNL     1       1.653  14.487  22.140  0.00  0.00    +0.000 NA
ENDBRANCH   2  25
BRANCH   8  27
ATOM     27  C   UNL     1      -4.063  10.964  16.907  0.00  0.00    +0.000 C 
BRANCH  27  28
ATOM     28  O   UNL     1      -3.220  11.629  15.973  0.00  0.00    +0.000 OA
ATOM     29  H   UNL     1      -2.693  10.940  15.529  0.00  0.00    +0.000 HD
ENDBRANCH  27  28
ENDBRANCH   8  27
TORSDOF 7
ENDMDL
MODEL 6
REMARK VINA RESULT:      -5.7      9.900     12.884
REMARK  Name = 
REMARK  9 active torsions:
REMARK  status: ('A' for Active; 'I' for Inactive)
REMARK    1  A    between atoms: C_1  and  O_2
REMARK    2  A    between atoms: O_2  and  C_3
REMARK    3  A    between atoms: C_7  and  C_8
REMARK    4  A    between atoms: C_9  and  C_10
REMARK    5  A    between atoms: C_12  and  N_13
REMARK    6  A    between atoms: C_18  and  C_19
REMARK    7  A    between atoms: C_19  and  O_20
REMARK    8  A    between atoms: C_24  and  O_25
REMARK    9  A    between atoms: O_25  and  C_26
REMARK                            x       y       z     vdW  Elec       q    Type
REMARK                         _______ _______ _______ _____ _____    ______ ____
ROOT
ATOM      1  C   UNL     1      -4.521  12.723  21.893  0.00  0.00    +0.000 C 
ATOM      2  C   UNL     1      -4.709  13.111  23.338  0.00  0.00    +0.000 C 
ATOM      3  C   UNL     1      -3.678  13.491  24.118  0.00  0.00    +0.000 C 
ATOM      4  O   UNL     1      -2.383  13.583  23.605  0.00  0.00    +0.000 OA
ATOM      5  C   UNL     1      -2.122  13.161  22.312  0.00  0.00    +0.000 A 
ATOM      6  C   UNL     1      -3.071  12.714  21.477  0.00  0.00    +0.000 A 
ATOM      7  O   UNL     1      -2.832  12.272  20.192  0.00  0.00    +0.000 OA
ATOM      8  C   UNL     1      -1.557  12.394  19.666  0.00  0.00    +0.000 A 
ATOM      9  C   UNL     1      -0.523  12.850  20.386  0.00  0.00    +0.000 A 
ATOM     10  C   UNL     1      -0.734  13.246  21.797  0.00  0.00    +0.000 A 
ATOM     11  O   UNL     1       0.204  13.646  22.475  0.00  0.00    +0.000 OA
ENDROOT
BRANCH   1  16
ATOM     12  C   UNL     1      -6.858  13.916  19.110  0.00  0.00    +0.000 A 
ATOM     13  C   UNL     1      -6.596  15.299  19.122  0.00  0.00    +0.000 A 
ATOM     14  C   UNL     1      -5.663  15.839  20.000  0.00  0.00    +0.000 A 
ATOM     15  C   UNL     1      -5.005  15.009  20.895  0.00  0.00    +0.000 A 
ATOM     16  C   UNL     1      -5.307  13.632  20.947  0.00  0.00    +0.000 A 
ATOM     17  C   UNL     1      -6.258  13.080  20.059  0.00  0.00    +0.000 A 
BRANCH  12  19
ATOM     18  C   UNL     1      -7.031  13.060  16.925  0.00  0.00    +0.000 C 
ATOM     19  O   UNL     1      -7.685  13.380  18.156  0.00  0.00    +0.000 OA
ENDBRANCH  12  19
BRANCH  17  20
ATOM     20  O   UNL     1      -6.406  11.727  20.194  0.00  0.00    +0.000 OA
ATOM     21  C   UNL     1      -7.580  11.184  20.775  0.00  0.00    +0.000 C 
ENDBRANCH  17  20
ENDBRANCH   1  16
BRANCH   3  22
ATOM     22  N   UNL     1      -3.758  13.821  25.448  0.00  0.00    +0.000 N 
ATOM     23  H   UNL     1      -3.276  14.667  25.738  0.00  0.00    +0.000 HD
ATOM     24  H   UNL     1      -3.596  13.025  26.062  0.00  0.00    +0.000 HD
ENDBRANCH   3  22
BRANCH   2  25
ATOM     25  C   UNL     1      -6.119  12.990  23.892  0.00  0.00    +0.000 C 
ATOM     26  N   UNL     1      -7.290  12.890  24.351  0.00  0.00    +0.000 NA
ENDBRANCH   2  25
BRANCH   8  27
ATOM     27  C   UNL     1      -1.444  11.972  18.231  0.00  0.00    +0.000 C 
BRANCH  27  28
ATOM     28  O   UNL     1      -0.895  13.031  17.455  0.00  0.00    +0.000 OA
ATOM     29  H   UNL     1       0.033  13.133  17.733  0.00  0.00    +0.000 HD
ENDBRANCH  27  28
ENDBRANCH   8  27
TORSDOF 7
ENDMDL
MODEL 7
REMARK VINA RESULT:      -5.7      8.658     11.331
REMARK  Name = 
REMARK  9 active torsions:
REMARK  status: ('A' for Active; 'I' for Inactive)
REMARK    1  A    between atoms: C_1  and  O_2
REMARK    2  A    between atoms: O_2  and  C_3
REMARK    3  A    between atoms: C_7  and  C_8
REMARK    4  A    between atoms: C_9  and  C_10
REMARK    5  A    between atoms: C_12  and  N_13
REMARK    6  A    between atoms: C_18  and  C_19
REMARK    7  A    between atoms: C_19  and  O_20
REMARK    8  A    between atoms: C_24  and  O_25
REMARK    9  A    between atoms: O_25  and  C_26
REMARK                            x       y       z     vdW  Elec       q    Type
REMARK                         _______ _______ _______ _____ _____    ______ ____
ROOT
ATOM      1  C   UNL     1      -2.876  13.670  22.006  0.00  0.00    +0.000 C 
ATOM      2  C   UNL     1      -2.695  14.433  23.293  0.00  0.00    +0.000 C 
ATOM      3  C   UNL     1      -3.698  14.592  24.179  0.00  0.00    +0.000 C 
ATOM      4  O   UNL     1      -4.951  14.016  23.960  0.00  0.00    +0.000 OA
ATOM      5  C   UNL     1      -5.214  13.375  22.762  0.00  0.00    +0.000 A 
ATOM      6  C   UNL     1      -4.299  13.214  21.795  0.00  0.00    +0.000 A 
ATOM      7  O   UNL     1      -4.543  12.595  20.586  0.00  0.00    +0.000 OA
ATOM      8  C   UNL     1      -5.771  11.990  20.377  0.00  0.00    +0.000 A 
ATOM      9  C   UNL     1      -6.766  12.054  21.274  0.00  0.00    +0.000 A 
ATOM     10  C   UNL     1      -6.560  12.791  22.541  0.00  0.00    +0.000 A 
ATOM     11  O   UNL     1      -7.464  12.876  23.363  0.00  0.00    +0.000 OA
ENDROOT
BRANCH   1  16
ATOM     12  C   UNL     1      -0.540  10.976  20.621  0.00  0.00    +0.000 A 
ATOM     13  C   UNL     1      -0.392  10.150  21.751  0.00  0.00    +0.000 A 
ATOM     14  C   UNL     1      -1.052  10.444  22.939  0.00  0.00    +0.000 A 
ATOM     15  C   UNL     1      -1.843  11.581  23.019  0.00  0.00    +0.000 A 
ATOM     16  C   UNL     1      -1.946  12.459  21.919  0.00  0.00    +0.000 A 
ATOM     17  C   UNL     1      -1.272  12.166  20.713  0.00  0.00    +0.000 A 
BRANCH  12  19
ATOM     18  C   UNL     1       0.979   9.556  19.520  0.00  0.00    +0.000 C 
ATOM     19  O   UNL     1       0.015  10.608  19.422  0.00  0.00    +0.000 OA
ENDBRANCH  12  19
BRANCH  17  20
ATOM     20  O   UNL     1      -1.507  13.080  19.722  0.00  0.00    +0.000 OA
ATOM     21  C   UNL     1      -0.494  13.987  19.323  0.00  0.00    +0.000 C 
ENDBRANCH  17  20
ENDBRANCH   1  16
BRANCH   3  22
ATOM     22  N   UNL     1      -3.627  15.303  25.351  0.00  0.00    +0.000 N 
ATOM     23  H   UNL     1      -4.266  15.027  26.092  0.00  0.00    +0.000 HD
ATOM     24  H   UNL     1      -3.584  16.309  25.199  0.00  0.00    +0.000 HD
ENDBRANCH   3  22
BRANCH   2  25
ATOM     25  C   UNL     1      -1.334  15.071  23.514  0.00  0.00    +0.000 C 
ATOM     26  N   UNL     1      -0.204  15.602  23.697  0.00  0.00    +0.000 NA
ENDBRANCH   2  25
BRANCH   8  27
ATOM     27  C   UNL     1      -5.883  11.267  19.068  0.00  0.00    +0.000 C 
BRANCH  27  28
ATOM     28  O   UNL     1      -7.172  10.677  18.948  0.00  0.00    +0.000 OA
ATOM     29  H   UNL     1      -7.213   9.953  19.599  0.00  0.00    +0.000 HD
ENDBRANCH  27  28
ENDBRANCH   8  27
TORSDOF 7
ENDMDL
MODEL 8
REMARK VINA RESULT:      -5.6      6.348      8.864
REMARK  Name = 
REMARK  9 active torsions:
REMARK  status: ('A' for Active; 'I' for Inactive)
REMARK    1  A    between atoms: C_1  and  O_2
REMARK    2  A    between atoms: O_2  and  C_3
REMARK    3  A    between atoms: C_7  and  C_8
REMARK    4  A    between atoms: C_9  and  C_10
REMARK    5  A    between atoms: C_12  and  N_13
REMARK    6  A    between atoms: C_18  and  C_19
REMARK    7  A    between atoms: C_19  and  O_20
REMARK    8  A    between atoms: C_24  and  O_25
REMARK    9  A    between atoms: O_25  and  C_26
REMARK                            x       y       z     vdW  Elec       q    Type
REMARK                         _______ _______ _______ _____ _____    ______ ____
ROOT
ATOM      1  C   UNL     1      -0.733  12.214  19.701  0.00  0.00    +0.000 C 
ATOM      2  C   UNL     1      -0.840  13.195  20.841  0.00  0.00    +0.000 C 
ATOM      3  C   UNL     1      -2.026  13.677  21.264  0.00  0.00    +0.000 C 
ATOM      4  O   UNL     1      -3.222  13.251  20.685  0.00  0.00    +0.000 OA
ATOM      5  C   UNL     1      -3.196  12.418  19.580  0.00  0.00    +0.000 A 
ATOM      6  C   UNL     1      -2.064  11.931  19.051  0.00  0.00    +0.000 A 
ATOM      7  O   UNL     1      -2.013  11.115  17.939  0.00  0.00    +0.000 OA
ATOM      8  C   UNL     1      -3.197  10.661  17.384  0.00  0.00    +0.000 A 
ATOM      9  C   UNL     1      -4.398  11.051  17.833  0.00  0.00    +0.000 A 
ATOM     10  C   UNL     1      -4.480  11.998  18.968  0.00  0.00    +0.000 A 
ATOM     11  O   UNL     1      -5.569  12.380  19.378  0.00  0.00    +0.000 OA
ENDROOT
BRANCH   1  16
ATOM     12  C   UNL     1       1.364   9.014  19.695  0.00  0.00    +0.000 A 
ATOM     13  C   UNL     1       0.910   8.402  20.879  0.00  0.00    +0.000 A 
ATOM     14  C   UNL     1      -0.073   9.000  21.659  0.00  0.00    +0.000 A 
ATOM     15  C   UNL     1      -0.592  10.229  21.282  0.00  0.00    +0.000 A 
ATOM     16  C   UNL     1      -0.099  10.892  20.138  0.00  0.00    +0.000 A 
ATOM     17  C   UNL     1       0.903  10.290  19.345  0.00  0.00    +0.000 A 
BRANCH  12  19
ATOM     18  C   UNL     1       2.509   7.006  19.258  0.00  0.00    +0.000 C 
ATOM     19  O   UNL     1       2.240   8.356  18.871  0.00  0.00    +0.000 OA
ENDBRANCH  12  19
BRANCH  17  20
ATOM     20  O   UNL     1       1.242  11.027  18.244  0.00  0.00    +0.000 OA
ATOM     21  C   UNL     1       2.364  11.893  18.273  0.00  0.00    +0.000 C 
ENDBRANCH  17  20
ENDBRANCH   1  16
BRANCH   3  22
ATOM     22  N   UNL     1      -2.205  14.599  22.264  0.00  0.00    +0.000 N 
ATOM     23  H   UNL     1      -2.502  15.528  21.979  0.00  0.00    +0.000 HD
ATOM     24  H   UNL     1      -1.443  14.600  22.940  0.00  0.00    +0.000 HD
ENDBRANCH   3  22
BRANCH   2  25
ATOM     25  C   UNL     1       0.470  13.666  21.452  0.00  0.00    +0.000 C 
ATOM     26  N   UNL     1       1.557  14.057  21.958  0.00  0.00    +0.000 NA
ENDBRANCH   2  25
BRANCH   8  27
ATOM     27  C   UNL     1      -3.010   9.704  16.243  0.00  0.00    +0.000 C 
BRANCH  27  28
ATOM     28  O   UNL     1      -2.736  10.423  15.046  0.00  0.00    +0.000 OA
ATOM     29  H   UNL     1      -2.673   9.765  14.330  0.00  0.00    +0.000 HD
ENDBRANCH  27  28
ENDBRANCH   8  27
TORSDOF 7
ENDMDL
MODEL 9
REMARK VINA RESULT:      -5.6      9.407     11.781
REMARK  Name = 
REMARK  9 active torsions:
REMARK  status: ('A' for Active; 'I' for Inactive)
REMARK    1  A    between atoms: C_1  and  O_2
REMARK    2  A    between atoms: O_2  and  C_3
REMARK    3  A    between atoms: C_7  and  C_8
REMARK    4  A    between atoms: C_9  and  C_10
REMARK    5  A    between atoms: C_12  and  N_13
REMARK    6  A    between atoms: C_18  and  C_19
REMARK    7  A    between atoms: C_19  and  O_20
REMARK    8  A    between atoms: C_24  and  O_25
REMARK    9  A    between atoms: O_25  and  C_26
REMARK                            x       y       z     vdW  Elec       q    Type
REMARK                         _______ _______ _______ _____ _____    ______ ____
ROOT
ATOM      1  C   UNL     1      -4.182  13.671  21.808  0.00  0.00    +0.000 C 
ATOM      2  C   UNL     1      -4.898  13.910  23.113  0.00  0.00    +0.000 C 
ATOM      3  C   UNL     1      -6.076  13.324  23.404  0.00  0.00    +0.000 C 
ATOM      4  O   UNL     1      -6.671  12.426  22.515  0.00  0.00    +0.000 OA
ATOM      5  C   UNL     1      -6.115  12.224  21.263  0.00  0.00    +0.000 A 
ATOM      6  C   UNL     1      -4.975  12.805  20.861  0.00  0.00    +0.000 A 
ATOM      7  O   UNL     1      -4.412  12.633  19.613  0.00  0.00    +0.000 OA
ATOM      8  C   UNL     1      -4.978  11.718  18.741  0.00  0.00    +0.000 A 
ATOM      9  C   UNL     1      -6.103  11.050  19.031  0.00  0.00    +0.000 A 
ATOM     10  C   UNL     1      -6.778  11.284  20.327  0.00  0.00    +0.000 A 
ATOM     11  O   UNL     1      -7.818  10.698  20.599  0.00  0.00    +0.000 OA
ENDROOT
BRANCH   1  16
ATOM     12  C   UNL     1      -0.462  12.874  21.413  0.00  0.00    +0.000 A 
ATOM     13  C   UNL     1      -0.333  11.781  22.292  0.00  0.00    +0.000 A 
ATOM     14  C   UNL     1      -1.434  11.293  22.988  0.00  0.00    +0.000 A 
ATOM     15  C   UNL     1      -2.667  11.909  22.836  0.00  0.00    +0.000 A 
ATOM     16  C   UNL     1      -2.800  13.049  22.015  0.00  0.00    +0.000 A 
ATOM     17  C   UNL     1      -1.683  13.551  21.311  0.00  0.00    +0.000 A 
BRANCH  12  19
ATOM     18  C   UNL     1       0.888  12.385  19.549  0.00  0.00    +0.000 C 
ATOM     19  O   UNL     1       0.601  13.264  20.641  0.00  0.00    +0.000 OA
ENDBRANCH  12  19
BRANCH  17  20
ATOM     20  O   UNL     1      -1.978  14.627  20.519  0.00  0.00    +0.000 OA
ATOM     21  C   UNL     1      -1.676  15.943  20.949  0.00  0.00    +0.000 C 
ENDBRANCH  17  20
ENDBRANCH   1  16
BRANCH   3  22
ATOM     22  N   UNL     1      -6.808  13.519  24.548  0.00  0.00    +0.000 N 
ATOM     23  H   UNL     1      -7.255  12.699  24.948  0.00  0.00    +0.000 HD
ATOM     24  H   UNL     1      -7.417  14.333  24.492  0.00  0.00    +0.000 HD
ENDBRANCH   3  22
BRANCH   2  25
ATOM     25  C   UNL     1      -4.251  14.902  24.066  0.00  0.00    +0.000 C 
ATOM     26  N   UNL     1      -3.714  15.725  24.857  0.00  0.00    +0.000 NA
ENDBRANCH   2  25
BRANCH   8  27
ATOM     27  C   UNL     1      -4.221  11.547  17.457  0.00  0.00    +0.000 C 
BRANCH  27  28
ATOM     28  O   UNL     1      -5.115  11.179  16.412  0.00  0.00    +0.000 OA
ATOM     29  H   UNL     1      -5.874  10.736  16.833  0.00  0.00    +0.000 HD
ENDBRANCH  27  28
ENDBRANCH   8  27
TORSDOF 7
ENDMDL
