MODEL 1
REMARK VINA RESULT:      -7.8      0.000      0.000
REMARK  Name = 
REMARK  10 active torsions:
REMARK  status: ('A' for Active; 'I' for Inactive)
REMARK    1  A    between atoms: C_1  and  O_2
REMARK    2  A    between atoms: O_2  and  C_3
REMARK    3  A    between atoms: C_3  and  C_4
REMARK    4  A    between atoms: C_4  and  C_5
REMARK    5  A    between atoms: C_5  and  N_6
REMARK    6  A    between atoms: C_7  and  C_9
REMARK    7  A    between atoms: C_11  and  C_12
REMARK    8  A    between atoms: C_12  and  C_14
REMARK    9  A    between atoms: C_15  and  C_16
REMARK   10  A    between atoms: C_26  and  C_27
REMARK                            x       y       z     vdW  Elec       q    Type
REMARK                         _______ _______ _______ _____ _____    ______ ____
ROOT
ATOM      1  C   UNL     1       6.598   5.351  18.375  0.00  0.00    +0.000 C 
ATOM      2  O   UNL     1       6.829   4.739  19.411  0.00  0.00    +0.000 OA
ENDROOT
BRANCH   1   5
ATOM      3  C   UNL     1       8.255   8.701  18.295  0.00  0.00    +0.000 A 
ATOM      4  C   UNL     1       8.266   7.380  18.708  0.00  0.00    +0.000 A 
ATOM      5  C   UNL     1       7.157   6.694  18.121  0.00  0.00    +0.000 A 
ATOM      6  C   UNL     1       6.686   7.565  17.148  0.00  0.00    +0.000 A 
ATOM      7  N   UNL     1       7.357   8.754  17.251  0.00  0.00    +0.000 N 
ATOM      8  H   UNL     1       7.198   9.582  16.689  0.00  0.00    +0.000 HD
BRANCH   3  10
ATOM      9  N   UNL     1       9.186  10.837  17.790  0.00  0.00    +0.000 N 
ATOM     10  C   UNL     1       8.977   9.873  18.749  0.00  0.00    +0.000 C 
ATOM     11  O   UNL     1       9.417   9.966  19.893  0.00  0.00    +0.000 OA
ATOM     12  H   UNL     1       8.859  10.684  16.844  0.00  0.00    +0.000 HD
BRANCH   9  13
ATOM     13  C   UNL     1       9.932  12.054  18.042  0.00  0.00    +0.000 C 
BRANCH  13  14
ATOM     14  C   UNL     1      11.435  11.911  17.793  0.00  0.00    +0.000 C 
BRANCH  14  15
ATOM     15  C   UNL     1      12.047  13.087  17.040  0.00  0.00    +0.000 C 
BRANCH  15  17
ATOM     16  C   UNL     1      11.540  15.384  17.243  0.00  0.00    +0.000 C 
ATOM     17  O   UNL     1      11.061  14.103  16.851  0.00  0.00    +0.000 OA
ENDBRANCH  15  17
ENDBRANCH  14  15
ENDBRANCH  13  14
ENDBRANCH   9  13
ENDBRANCH   3  10
ENDBRANCH   1   5
BRANCH   1  18
ATOM     18  C   UNL     1       5.713   4.794  17.366  0.00  0.00    +0.000 A 
ATOM     19  C   UNL     1       4.358   4.329  17.543  0.00  0.00    +0.000 A 
ATOM     20  N   UNL     1       3.866   3.941  16.355  0.00  0.00    +0.000 NA
ATOM     21  O   UNL     1       4.893   4.008  15.450  0.00  0.00    +0.000 OA
ATOM     22  C   UNL     1       6.006   4.494  16.049  0.00  0.00    +0.000 A 
ATOM     23  C   UNL     1       7.211   4.532  15.188  0.00  0.00    +0.000 C 
BRANCH  19  24
ATOM     24  C   UNL     1       3.529   4.234  18.762  0.00  0.00    +0.000 A 
ATOM     25  C   UNL     1       2.967   5.374  19.377  0.00  0.00    +0.000 A 
ATOM     26 CL   UNL     1       2.929   6.939  18.631  0.00  0.00    +0.000 Cl
ATOM     27  C   UNL     1       2.296   5.286  20.608  0.00  0.00    +0.000 A 
ATOM     28  C   UNL     1       2.074   4.053  21.207  0.00  0.00    +0.000 A 
ATOM     29  C   UNL     1       2.529   2.903  20.575  0.00  0.00    +0.000 A 
ATOM     30  C   UNL     1       3.268   2.988  19.382  0.00  0.00    +0.000 A 
ATOM     31 CL   UNL     1       3.829   1.464  18.765  0.00  0.00    +0.000 Cl
ENDBRANCH  19  24
ENDBRANCH   1  18
TORSDOF 8
ENDMDL
MODEL 2
REMARK VINA RESULT:      -7.8      1.045      1.998
REMARK  Name = 
REMARK  10 active torsions:
REMARK  status: ('A' for Active; 'I' for Inactive)
REMARK    1  A    between atoms: C_1  and  O_2
REMARK    2  A    between atoms: O_2  and  C_3
REMARK    3  A    between atoms: C_3  and  C_4
REMARK    4  A    between atoms: C_4  and  C_5
REMARK    5  A    between atoms: C_5  and  N_6
REMARK    6  A    between atoms: C_7  and  C_9
REMARK    7  A    between atoms: C_11  and  C_12
REMARK    8  A    between atoms: C_12  and  C_14
REMARK    9  A    between atoms: C_15  and  C_16
REMARK   10  A    between atoms: C_26  and  C_27
REMARK                            x       y       z     vdW  Elec       q    Type
REMARK                         _______ _______ _______ _____ _____    ______ ____
ROOT
ATOM      1  C   UNL     1       6.661   5.419  18.623  0.00  0.00    +0.000 C 
ATOM      2  O   UNL     1       6.937   4.938  19.717  0.00  0.00    +0.000 OA
ENDROOT
BRANCH   1   5
ATOM      3  C   UNL     1       8.126   8.825  18.151  0.00  0.00    +0.000 A 
ATOM      4  C   UNL     1       8.219   7.558  18.701  0.00  0.00    +0.000 A 
ATOM      5  C   UNL     1       7.139   6.755  18.216  0.00  0.00    +0.000 A 
ATOM      6  C   UNL     1       6.603   7.490  17.168  0.00  0.00    +0.000 A 
ATOM      7  N   UNL     1       7.208   8.718  17.129  0.00  0.00    +0.000 N 
ATOM      8  H   UNL     1       6.993   9.472  16.487  0.00  0.00    +0.000 HD
BRANCH   3  10
ATOM      9  N   UNL     1       9.537  10.069  19.616  0.00  0.00    +0.000 N 
ATOM     10  C   UNL     1       8.790  10.076  18.461  0.00  0.00    +0.000 C 
ATOM     11  O   UNL     1       8.645  11.080  17.768  0.00  0.00    +0.000 OA
ATOM     12  H   UNL     1       9.573   9.234  20.187  0.00  0.00    +0.000 HD
BRANCH   9  13
ATOM     13  C   UNL     1      10.231  11.240  20.116  0.00  0.00    +0.000 C 
BRANCH  13  14
ATOM     14  C   UNL     1      11.648  11.393  19.561  0.00  0.00    +0.000 C 
BRANCH  14  15
ATOM     15  C   UNL     1      11.748  12.373  18.396  0.00  0.00    +0.000 C 
BRANCH  15  17
ATOM     16  C   UNL     1      10.405  14.187  17.706  0.00  0.00    +0.000 C 
ATOM     17  O   UNL     1      11.164  13.622  18.767  0.00  0.00    +0.000 OA
ENDBRANCH  15  17
ENDBRANCH  14  15
ENDBRANCH  13  14
ENDBRANCH   9  13
ENDBRANCH   3  10
ENDBRANCH   1   5
BRANCH   1  18
ATOM     18  C   UNL     1       5.800   4.705  17.696  0.00  0.00    +0.000 A 
ATOM     19  C   UNL     1       4.494   4.148  17.957  0.00  0.00    +0.000 A 
ATOM     20  N   UNL     1       4.005   3.619  16.823  0.00  0.00    +0.000 NA
ATOM     21  O   UNL     1       4.998   3.692  15.882  0.00  0.00    +0.000 OA
ATOM     22  C   UNL     1       6.082   4.317  16.400  0.00  0.00    +0.000 A 
ATOM     23  C   UNL     1       7.256   4.379  15.498  0.00  0.00    +0.000 C 
BRANCH  19  24
ATOM     24  C   UNL     1       3.708   4.092  19.207  0.00  0.00    +0.000 A 
ATOM     25  C   UNL     1       3.663   2.934  20.013  0.00  0.00    +0.000 A 
ATOM     26 CL   UNL     1       4.731   1.583  19.803  0.00  0.00    +0.000 Cl
ATOM     27  C   UNL     1       2.807   2.847  21.124  0.00  0.00    +0.000 A 
ATOM     28  C   UNL     1       2.053   3.943  21.523  0.00  0.00    +0.000 A 
ATOM     29  C   UNL     1       2.152   5.128  20.807  0.00  0.00    +0.000 A 
ATOM     30  C   UNL     1       2.948   5.201  19.650  0.00  0.00    +0.000 A 
ATOM     31 CL   UNL     1       2.899   6.731  18.830  0.00  0.00    +0.000 Cl
ENDBRANCH  19  24
ENDBRANCH   1  18
TORSDOF 8
ENDMDL
MODEL 3
REMARK VINA RESULT:      -7.7      1.554      2.453
REMARK  Name = 
REMARK  10 active torsions:
REMARK  status: ('A' for Active; 'I' for Inactive)
REMARK    1  A    between atoms: C_1  and  O_2
REMARK    2  A    between atoms: O_2  and  C_3
REMARK    3  A    between atoms: C_3  and  C_4
REMARK    4  A    between atoms: C_4  and  C_5
REMARK    5  A    between atoms: C_5  and  N_6
REMARK    6  A    between atoms: C_7  and  C_9
REMARK    7  A    between atoms: C_11  and  C_12
REMARK    8  A    between atoms: C_12  and  C_14
REMARK    9  A    between atoms: C_15  and  C_16
REMARK   10  A    between atoms: C_26  and  C_27
REMARK                            x       y       z     vdW  Elec       q    Type
REMARK                         _______ _______ _______ _____ _____    ______ ____
ROOT
ATOM      1  C   UNL     1       6.631   5.415  18.616  0.00  0.00    +0.000 C 
ATOM      2  O   UNL     1       6.859   4.880  19.695  0.00  0.00    +0.000 OA
ENDROOT
BRANCH   1   5
ATOM      3  C   UNL     1       8.323   8.730  18.280  0.00  0.00    +0.000 A 
ATOM      4  C   UNL     1       8.337   7.433  18.764  0.00  0.00    +0.000 A 
ATOM      5  C   UNL     1       7.194   6.734  18.264  0.00  0.00    +0.000 A 
ATOM      6  C   UNL     1       6.691   7.557  17.267  0.00  0.00    +0.000 A 
ATOM      7  N   UNL     1       7.381   8.740  17.275  0.00  0.00    +0.000 N 
ATOM      8  H   UNL     1       7.206   9.539  16.676  0.00  0.00    +0.000 HD
BRANCH   3  10
ATOM      9  N   UNL     1       9.185  10.154  19.987  0.00  0.00    +0.000 N 
ATOM     10  C   UNL     1       9.080   9.914  18.637  0.00  0.00    +0.000 C 
ATOM     11  O   UNL     1       9.541  10.674  17.788  0.00  0.00    +0.000 OA
ATOM     12  H   UNL     1       8.732   9.533  20.645  0.00  0.00    +0.000 HD
BRANCH   9  13
ATOM     13  C   UNL     1       9.859  11.317  20.534  0.00  0.00    +0.000 C 
BRANCH  13  14
ATOM     14  C   UNL     1       9.032  12.064  21.582  0.00  0.00    +0.000 C 
BRANCH  14  15
ATOM     15  C   UNL     1       8.704  13.502  21.195  0.00  0.00    +0.000 C 
BRANCH  15  17
ATOM     16  C   UNL     1       9.436  15.084  19.603  0.00  0.00    +0.000 C 
ATOM     17  O   UNL     1       9.073  13.729  19.833  0.00  0.00    +0.000 OA
ENDBRANCH  15  17
ENDBRANCH  14  15
ENDBRANCH  13  14
ENDBRANCH   9  13
ENDBRANCH   3  10
ENDBRANCH   1   5
BRANCH   1  18
ATOM     18  C   UNL     1       5.744   4.787  17.650  0.00  0.00    +0.000 A 
ATOM     19  C   UNL     1       4.408   4.291  17.874  0.00  0.00    +0.000 A 
ATOM     20  N   UNL     1       3.906   3.837  16.714  0.00  0.00    +0.000 NA
ATOM     21  O   UNL     1       4.914   3.894  15.787  0.00  0.00    +0.000 OA
ATOM     22  C   UNL     1       6.022   4.438  16.342  0.00  0.00    +0.000 A 
ATOM     23  C   UNL     1       7.209   4.473  15.457  0.00  0.00    +0.000 C 
BRANCH  19  24
ATOM     24  C   UNL     1       3.604   4.227  19.112  0.00  0.00    +0.000 A 
ATOM     25  C   UNL     1       3.556   3.067  19.915  0.00  0.00    +0.000 A 
ATOM     26 CL   UNL     1       4.637   1.724  19.718  0.00  0.00    +0.000 Cl
ATOM     27  C   UNL     1       2.685   2.971  21.013  0.00  0.00    +0.000 A 
ATOM     28  C   UNL     1       1.916   4.060  21.404  0.00  0.00    +0.000 A 
ATOM     29  C   UNL     1       2.016   5.248  20.691  0.00  0.00    +0.000 A 
ATOM     30  C   UNL     1       2.829   5.329  19.546  0.00  0.00    +0.000 A 
ATOM     31 CL   UNL     1       2.780   6.860  18.728  0.00  0.00    +0.000 Cl
ENDBRANCH  19  24
ENDBRANCH   1  18
TORSDOF 8
ENDMDL
MODEL 4
REMARK VINA RESULT:      -7.7      0.606      1.779
REMARK  Name = 
REMARK  10 active torsions:
REMARK  status: ('A' for Active; 'I' for Inactive)
REMARK    1  A    between atoms: C_1  and  O_2
REMARK    2  A    between atoms: O_2  and  C_3
REMARK    3  A    between atoms: C_3  and  C_4
REMARK    4  A    between atoms: C_4  and  C_5
REMARK    5  A    between atoms: C_5  and  N_6
REMARK    6  A    between atoms: C_7  and  C_9
REMARK    7  A    between atoms: C_11  and  C_12
REMARK    8  A    between atoms: C_12  and  C_14
REMARK    9  A    between atoms: C_15  and  C_16
REMARK   10  A    between atoms: C_26  and  C_27
REMARK                            x       y       z     vdW  Elec       q    Type
REMARK                         _______ _______ _______ _____ _____    ______ ____
ROOT
ATOM      1  C   UNL     1       6.664   5.396  18.466  0.00  0.00    +0.000 C 
ATOM      2  O   UNL     1       6.944   4.800  19.500  0.00  0.00    +0.000 OA
ENDROOT
BRANCH   1   5
ATOM      3  C   UNL     1       8.247   8.777  18.288  0.00  0.00    +0.000 A 
ATOM      4  C   UNL     1       8.279   7.473  18.753  0.00  0.00    +0.000 A 
ATOM      5  C   UNL     1       7.198   6.741  18.171  0.00  0.00    +0.000 A 
ATOM      6  C   UNL     1       6.728   7.562  17.156  0.00  0.00    +0.000 A 
ATOM      7  N   UNL     1       7.371   8.769  17.225  0.00  0.00    +0.000 N 
ATOM      8  H   UNL     1       7.205   9.571  16.628  0.00  0.00    +0.000 HD
BRANCH   3  10
ATOM      9  N   UNL     1       8.801  11.056  17.861  0.00  0.00    +0.000 N 
ATOM     10  C   UNL     1       8.934   9.982  18.710  0.00  0.00    +0.000 C 
ATOM     11  O   UNL     1       9.628  10.016  19.724  0.00  0.00    +0.000 OA
ATOM     12  H   UNL     1       8.270  10.958  17.005  0.00  0.00    +0.000 HD
BRANCH   9  13
ATOM     13  C   UNL     1       9.457  12.329  18.088  0.00  0.00    +0.000 C 
BRANCH  13  14
ATOM     14  C   UNL     1      10.724  12.520  17.253  0.00  0.00    +0.000 C 
BRANCH  14  15
ATOM     15  C   UNL     1      11.939  12.950  18.069  0.00  0.00    +0.000 C 
BRANCH  15  17
ATOM     16  C   UNL     1      11.940  15.236  18.657  0.00  0.00    +0.000 C 
ATOM     17  O   UNL     1      12.331  14.269  17.689  0.00  0.00    +0.000 OA
ENDBRANCH  15  17
ENDBRANCH  14  15
ENDBRANCH  13  14
ENDBRANCH   9  13
ENDBRANCH   3  10
ENDBRANCH   1   5
BRANCH   1  18
ATOM     18  C   UNL     1       5.743   4.816  17.503  0.00  0.00    +0.000 A 
ATOM     19  C   UNL     1       4.376   4.411  17.725  0.00  0.00    +0.000 A 
ATOM     20  N   UNL     1       3.850   3.976  16.568  0.00  0.00    +0.000 NA
ATOM     21  O   UNL     1       4.865   3.955  15.647  0.00  0.00    +0.000 OA
ATOM     22  C   UNL     1       6.004   4.432  16.202  0.00  0.00    +0.000 A 
ATOM     23  C   UNL     1       7.195   4.378  15.323  0.00  0.00    +0.000 C 
BRANCH  19  24
ATOM     24  C   UNL     1       3.563   4.416  18.959  0.00  0.00    +0.000 A 
ATOM     25  C   UNL     1       3.517   3.306  19.831  0.00  0.00    +0.000 A 
ATOM     26 CL   UNL     1       4.609   1.963  19.723  0.00  0.00    +0.000 Cl
ATOM     27  C   UNL     1       2.638   3.271  20.926  0.00  0.00    +0.000 A 
ATOM     28  C   UNL     1       1.859   4.376  21.244  0.00  0.00    +0.000 A 
ATOM     29  C   UNL     1       1.956   5.518  20.462  0.00  0.00    +0.000 A 
ATOM     30  C   UNL     1       2.776   5.536  19.320  0.00  0.00    +0.000 A 
ATOM     31 CL   UNL     1       2.722   7.015  18.410  0.00  0.00    +0.000 Cl
ENDBRANCH  19  24
ENDBRANCH   1  18
TORSDOF 8
ENDMDL
MODEL 5
REMARK VINA RESULT:      -7.7      1.748      2.564
REMARK  Name = 
REMARK  10 active torsions:
REMARK  status: ('A' for Active; 'I' for Inactive)
REMARK    1  A    between atoms: C_1  and  O_2
REMARK    2  A    between atoms: O_2  and  C_3
REMARK    3  A    between atoms: C_3  and  C_4
REMARK    4  A    between atoms: C_4  and  C_5
REMARK    5  A    between atoms: C_5  and  N_6
REMARK    6  A    between atoms: C_7  and  C_9
REMARK    7  A    between atoms: C_11  and  C_12
REMARK    8  A    between atoms: C_12  and  C_14
REMARK    9  A    between atoms: C_15  and  C_16
REMARK   10  A    between atoms: C_26  and  C_27
REMARK                            x       y       z     vdW  Elec       q    Type
REMARK                         _______ _______ _______ _____ _____    ______ ____
ROOT
ATOM      1  C   UNL     1       6.598   5.465  18.592  0.00  0.00    +0.000 C 
ATOM      2  O   UNL     1       6.779   4.937  19.683  0.00  0.00    +0.000 OA
ENDROOT
BRANCH   1   5
ATOM      3  C   UNL     1       8.335   8.760  18.291  0.00  0.00    +0.000 A 
ATOM      4  C   UNL     1       8.329   7.459  18.765  0.00  0.00    +0.000 A 
ATOM      5  C   UNL     1       7.180   6.778  18.253  0.00  0.00    +0.000 A 
ATOM      6  C   UNL     1       6.693   7.616  17.260  0.00  0.00    +0.000 A 
ATOM      7  N   UNL     1       7.399   8.790  17.281  0.00  0.00    +0.000 N 
ATOM      8  H   UNL     1       7.238   9.595  16.687  0.00  0.00    +0.000 HD
BRANCH   3  10
ATOM      9  N   UNL     1       9.202  10.162  20.014  0.00  0.00    +0.000 N 
ATOM     10  C   UNL     1       9.105   9.931  18.661  0.00  0.00    +0.000 C 
ATOM     11  O   UNL     1       9.584  10.689  17.820  0.00  0.00    +0.000 OA
ATOM     12  H   UNL     1       8.735   9.543  20.664  0.00  0.00    +0.000 HD
BRANCH   9  13
ATOM     13  C   UNL     1       9.887  11.311  20.573  0.00  0.00    +0.000 C 
BRANCH  13  14
ATOM     14  C   UNL     1       9.021  12.572  20.623  0.00  0.00    +0.000 C 
BRANCH  14  15
ATOM     15  C   UNL     1       8.493  12.898  22.016  0.00  0.00    +0.000 C 
BRANCH  15  17
ATOM     16  C   UNL     1       8.042  11.581  23.922  0.00  0.00    +0.000 C 
ATOM     17  O   UNL     1       7.784  11.773  22.537  0.00  0.00    +0.000 OA
ENDBRANCH  15  17
ENDBRANCH  14  15
ENDBRANCH  13  14
ENDBRANCH   9  13
ENDBRANCH   3  10
ENDBRANCH   1   5
BRANCH   1  18
ATOM     18  C   UNL     1       5.749   4.833  17.596  0.00  0.00    +0.000 A 
ATOM     19  C   UNL     1       4.404   4.340  17.769  0.00  0.00    +0.000 A 
ATOM     20  N   UNL     1       3.947   3.879  16.593  0.00  0.00    +0.000 NA
ATOM     21  O   UNL     1       4.991   3.930  15.706  0.00  0.00    +0.000 OA
ATOM     22  C   UNL     1       6.078   4.475  16.302  0.00  0.00    +0.000 A 
ATOM     23  C   UNL     1       7.299   4.504  15.464  0.00  0.00    +0.000 C 
BRANCH  19  24
ATOM     24  C   UNL     1       3.551   4.284  18.975  0.00  0.00    +0.000 A 
ATOM     25  C   UNL     1       2.814   5.401  19.425  0.00  0.00    +0.000 A 
ATOM     26 CL   UNL     1       2.587   6.837  18.480  0.00  0.00    +0.000 Cl
ATOM     27  C   UNL     1       2.117   5.376  20.644  0.00  0.00    +0.000 A 
ATOM     28  C   UNL     1       2.047   4.210  21.396  0.00  0.00    +0.000 A 
ATOM     29  C   UNL     1       2.681   3.066  20.929  0.00  0.00    +0.000 A 
ATOM     30  C   UNL     1       3.444   3.103  19.748  0.00  0.00    +0.000 A 
ATOM     31 CL   UNL     1       4.233   1.608  19.347  0.00  0.00    +0.000 Cl
ENDBRANCH  19  24
ENDBRANCH   1  18
TORSDOF 8
ENDMDL
MODEL 6
REMARK VINA RESULT:      -7.6      1.403      1.558
REMARK  Name = 
REMARK  10 active torsions:
REMARK  status: ('A' for Active; 'I' for Inactive)
REMARK    1  A    between atoms: C_1  and  O_2
REMARK    2  A    between atoms: O_2  and  C_3
REMARK    3  A    between atoms: C_3  and  C_4
REMARK    4  A    between atoms: C_4  and  C_5
REMARK    5  A    between atoms: C_5  and  N_6
REMARK    6  A    between atoms: C_7  and  C_9
REMARK    7  A    between atoms: C_11  and  C_12
REMARK    8  A    between atoms: C_12  and  C_14
REMARK    9  A    between atoms: C_15  and  C_16
REMARK   10  A    between atoms: C_26  and  C_27
REMARK                            x       y       z     vdW  Elec       q    Type
REMARK                         _______ _______ _______ _____ _____    ______ ____
ROOT
ATOM      1  C   UNL     1       6.594   5.374  18.433  0.00  0.00    +0.000 C 
ATOM      2  O   UNL     1       6.840   4.790  19.482  0.00  0.00    +0.000 OA
ENDROOT
BRANCH   1   5
ATOM      3  C   UNL     1       8.267   8.709  18.226  0.00  0.00    +0.000 A 
ATOM      4  C   UNL     1       8.300   7.387  18.636  0.00  0.00    +0.000 A 
ATOM      5  C   UNL     1       7.142   6.712  18.137  0.00  0.00    +0.000 A 
ATOM      6  C   UNL     1       6.604   7.588  17.205  0.00  0.00    +0.000 A 
ATOM      7  N   UNL     1       7.292   8.771  17.255  0.00  0.00    +0.000 N 
ATOM      8  H   UNL     1       7.096   9.601  16.708  0.00  0.00    +0.000 HD
BRANCH   3  10
ATOM      9  N   UNL     1       9.217  10.018  19.978  0.00  0.00    +0.000 N 
ATOM     10  C   UNL     1       9.033   9.874  18.622  0.00  0.00    +0.000 C 
ATOM     11  O   UNL     1       9.437  10.698  17.805  0.00  0.00    +0.000 OA
ATOM     12  H   UNL     1       8.809   9.345  20.615  0.00  0.00    +0.000 HD
BRANCH   9  13
ATOM     13  C   UNL     1       9.911  11.146  20.567  0.00  0.00    +0.000 C 
BRANCH  13  14
ATOM     14  C   UNL     1       8.976  12.273  21.013  0.00  0.00    +0.000 C 
BRANCH  14  15
ATOM     15  C   UNL     1       8.905  13.436  20.030  0.00  0.00    +0.000 C 
BRANCH  15  17
ATOM     16  C   UNL     1      10.918  14.669  20.051  0.00  0.00    +0.000 C 
ATOM     17  O   UNL     1      10.182  13.629  19.420  0.00  0.00    +0.000 OA
ENDBRANCH  15  17
ENDBRANCH  14  15
ENDBRANCH  13  14
ENDBRANCH   9  13
ENDBRANCH   3  10
ENDBRANCH   1   5
BRANCH   1  18
ATOM     18  C   UNL     1       5.699   4.785  17.450  0.00  0.00    +0.000 A 
ATOM     19  C   UNL     1       4.345   4.330  17.652  0.00  0.00    +0.000 A 
ATOM     20  N   UNL     1       3.842   3.904  16.482  0.00  0.00    +0.000 NA
ATOM     21  O   UNL     1       4.863   3.938  15.568  0.00  0.00    +0.000 OA
ATOM     22  C   UNL     1       5.982   4.440  16.142  0.00  0.00    +0.000 A 
ATOM     23  C   UNL     1       7.180   4.446  15.271  0.00  0.00    +0.000 C 
BRANCH  19  24
ATOM     24  C   UNL     1       3.523   4.279  18.880  0.00  0.00    +0.000 A 
ATOM     25  C   UNL     1       2.820   5.406  19.359  0.00  0.00    +0.000 A 
ATOM     26 CL   UNL     1       2.594   6.855  18.432  0.00  0.00    +0.000 Cl
ATOM     27  C   UNL     1       2.155   5.383  20.596  0.00  0.00    +0.000 A 
ATOM     28  C   UNL     1       2.083   4.212  21.340  0.00  0.00    +0.000 A 
ATOM     29  C   UNL     1       2.683   3.061  20.846  0.00  0.00    +0.000 A 
ATOM     30  C   UNL     1       3.414   3.093  19.645  0.00  0.00    +0.000 A 
ATOM     31 CL   UNL     1       4.165   1.588  19.211  0.00  0.00    +0.000 Cl
ENDBRANCH  19  24
ENDBRANCH   1  18
TORSDOF 8
ENDMDL
MODEL 7
REMARK VINA RESULT:      -7.5      1.937      3.093
REMARK  Name = 
REMARK  10 active torsions:
REMARK  status: ('A' for Active; 'I' for Inactive)
REMARK    1  A    between atoms: C_1  and  O_2
REMARK    2  A    between atoms: O_2  and  C_3
REMARK    3  A    between atoms: C_3  and  C_4
REMARK    4  A    between atoms: C_4  and  C_5
REMARK    5  A    between atoms: C_5  and  N_6
REMARK    6  A    between atoms: C_7  and  C_9
REMARK    7  A    between atoms: C_11  and  C_12
REMARK    8  A    between atoms: C_12  and  C_14
REMARK    9  A    between atoms: C_15  and  C_16
REMARK   10  A    between atoms: C_26  and  C_27
REMARK                            x       y       z     vdW  Elec       q    Type
REMARK                         _______ _______ _______ _____ _____    ______ ____
ROOT
ATOM      1  C   UNL     1       6.645   5.392  18.489  0.00  0.00    +0.000 C 
ATOM      2  O   UNL     1       6.917   4.832  19.545  0.00  0.00    +0.000 OA
ENDROOT
BRANCH   1   5
ATOM      3  C   UNL     1       8.237   8.761  18.205  0.00  0.00    +0.000 A 
ATOM      4  C   UNL     1       8.282   7.463  18.683  0.00  0.00    +0.000 A 
ATOM      5  C   UNL     1       7.173   6.730  18.156  0.00  0.00    +0.000 A 
ATOM      6  C   UNL     1       6.665   7.542  17.152  0.00  0.00    +0.000 A 
ATOM      7  N   UNL     1       7.316   8.746  17.180  0.00  0.00    +0.000 N 
ATOM      8  H   UNL     1       7.129   9.542  16.581  0.00  0.00    +0.000 HD
BRANCH   3  10
ATOM      9  N   UNL     1       9.359  10.014  19.895  0.00  0.00    +0.000 N 
ATOM     10  C   UNL     1       8.947   9.967  18.583  0.00  0.00    +0.000 C 
ATOM     11  O   UNL     1       9.115  10.898  17.799  0.00  0.00    +0.000 OA
ATOM     12  H   UNL     1       9.141   9.247  20.518  0.00  0.00    +0.000 HD
BRANCH   9  13
ATOM     13  C   UNL     1      10.038  11.159  20.470  0.00  0.00    +0.000 C 
BRANCH  13  14
ATOM     14  C   UNL     1       9.084  12.221  21.020  0.00  0.00    +0.000 C 
BRANCH  14  15
ATOM     15  C   UNL     1       8.417  11.825  22.333  0.00  0.00    +0.000 C 
BRANCH  15  17
ATOM     16  C   UNL     1       8.226  12.956  24.396  0.00  0.00    +0.000 C 
ATOM     17  O   UNL     1       7.943  12.994  23.003  0.00  0.00    +0.000 OA
ENDBRANCH  15  17
ENDBRANCH  14  15
ENDBRANCH  13  14
ENDBRANCH   9  13
ENDBRANCH   3  10
ENDBRANCH   1   5
BRANCH   1  18
ATOM     18  C   UNL     1       5.739   4.773  17.535  0.00  0.00    +0.000 A 
ATOM     19  C   UNL     1       4.387   4.327  17.767  0.00  0.00    +0.000 A 
ATOM     20  N   UNL     1       3.871   3.864  16.616  0.00  0.00    +0.000 NA
ATOM     21  O   UNL     1       4.882   3.868  15.690  0.00  0.00    +0.000 OA
ATOM     22  C   UNL     1       6.008   4.387  16.236  0.00  0.00    +0.000 A 
ATOM     23  C   UNL     1       7.196   4.363  15.352  0.00  0.00    +0.000 C 
BRANCH  19  24
ATOM     24  C   UNL     1       3.579   4.315  19.004  0.00  0.00    +0.000 A 
ATOM     25  C   UNL     1       3.532   3.193  19.858  0.00  0.00    +0.000 A 
ATOM     26 CL   UNL     1       4.617   1.846  19.725  0.00  0.00    +0.000 Cl
ATOM     27  C   UNL     1       2.658   3.144  20.957  0.00  0.00    +0.000 A 
ATOM     28  C   UNL     1       1.885   4.248  21.296  0.00  0.00    +0.000 A 
ATOM     29  C   UNL     1       1.984   5.402  20.531  0.00  0.00    +0.000 A 
ATOM     30  C   UNL     1       2.800   5.434  19.386  0.00  0.00    +0.000 A 
ATOM     31 CL   UNL     1       2.750   6.927  18.500  0.00  0.00    +0.000 Cl
ENDBRANCH  19  24
ENDBRANCH   1  18
TORSDOF 8
ENDMDL
MODEL 8
REMARK VINA RESULT:      -7.4      1.129      2.153
REMARK  Name = 
REMARK  10 active torsions:
REMARK  status: ('A' for Active; 'I' for Inactive)
REMARK    1  A    between atoms: C_1  and  O_2
REMARK    2  A    between atoms: O_2  and  C_3
REMARK    3  A    between atoms: C_3  and  C_4
REMARK    4  A    between atoms: C_4  and  C_5
REMARK    5  A    between atoms: C_5  and  N_6
REMARK    6  A    between atoms: C_7  and  C_9
REMARK    7  A    between atoms: C_11  and  C_12
REMARK    8  A    between atoms: C_12  and  C_14
REMARK    9  A    between atoms: C_15  and  C_16
REMARK   10  A    between atoms: C_26  and  C_27
REMARK                            x       y       z     vdW  Elec       q    Type
REMARK                         _______ _______ _______ _____ _____    ______ ____
ROOT
ATOM      1  C   UNL     1       6.623   5.400  18.469  0.00  0.00    +0.000 C 
ATOM      2  O   UNL     1       6.870   4.789  19.502  0.00  0.00    +0.000 OA
ENDROOT
BRANCH   1   5
ATOM      3  C   UNL     1       8.320   8.727  18.333  0.00  0.00    +0.000 A 
ATOM      4  C   UNL     1       8.321   7.409  18.757  0.00  0.00    +0.000 A 
ATOM      5  C   UNL     1       7.194   6.733  18.194  0.00  0.00    +0.000 A 
ATOM      6  C   UNL     1       6.718   7.602  17.222  0.00  0.00    +0.000 A 
ATOM      7  N   UNL     1       7.406   8.783  17.304  0.00  0.00    +0.000 N 
ATOM      8  H   UNL     1       7.247   9.608  16.738  0.00  0.00    +0.000 HD
BRANCH   3  10
ATOM      9  N   UNL     1       9.459  10.741  17.755  0.00  0.00    +0.000 N 
ATOM     10  C   UNL     1       9.064   9.893  18.765  0.00  0.00    +0.000 C 
ATOM     11  O   UNL     1       9.366  10.076  19.943  0.00  0.00    +0.000 OA
ATOM     12  H   UNL     1       9.240  10.513  16.794  0.00  0.00    +0.000 HD
BRANCH   9  13
ATOM     13  C   UNL     1      10.255  11.930  17.987  0.00  0.00    +0.000 C 
BRANCH  13  14
ATOM     14  C   UNL     1       9.494  13.042  18.711  0.00  0.00    +0.000 C 
BRANCH  14  15
ATOM     15  C   UNL     1       9.263  14.284  17.858  0.00  0.00    +0.000 C 
BRANCH  15  17
ATOM     16  C   UNL     1       6.913  14.485  17.748  0.00  0.00    +0.000 C 
ATOM     17  O   UNL     1       8.111  14.984  18.330  0.00  0.00    +0.000 OA
ENDBRANCH  15  17
ENDBRANCH  14  15
ENDBRANCH  13  14
ENDBRANCH   9  13
ENDBRANCH   3  10
ENDBRANCH   1   5
BRANCH   1  18
ATOM     18  C   UNL     1       5.705   4.850  17.485  0.00  0.00    +0.000 A 
ATOM     19  C   UNL     1       4.335   4.444  17.688  0.00  0.00    +0.000 A 
ATOM     20  N   UNL     1       3.814   4.043  16.517  0.00  0.00    +0.000 NA
ATOM     21  O   UNL     1       4.834   4.045  15.600  0.00  0.00    +0.000 OA
ATOM     22  C   UNL     1       5.972   4.502  16.174  0.00  0.00    +0.000 A 
ATOM     23  C   UNL     1       7.167   4.468  15.301  0.00  0.00    +0.000 C 
BRANCH  19  24
ATOM     24  C   UNL     1       3.515   4.417  18.918  0.00  0.00    +0.000 A 
ATOM     25  C   UNL     1       3.471   3.288  19.764  0.00  0.00    +0.000 A 
ATOM     26 CL   UNL     1       4.571   1.953  19.633  0.00  0.00    +0.000 Cl
ATOM     27  C   UNL     1       2.587   3.224  20.854  0.00  0.00    +0.000 A 
ATOM     28  C   UNL     1       1.800   4.317  21.192  0.00  0.00    +0.000 A 
ATOM     29  C   UNL     1       1.895   5.478  20.436  0.00  0.00    +0.000 A 
ATOM     30  C   UNL     1       2.722   5.525  19.299  0.00  0.00    +0.000 A 
ATOM     31 CL   UNL     1       2.665   7.023  18.422  0.00  0.00    +0.000 Cl
ENDBRANCH  19  24
ENDBRANCH   1  18
TORSDOF 8
ENDMDL
MODEL 9
REMARK VINA RESULT:      -7.4      5.056      7.334
REMARK  Name = 
REMARK  10 active torsions:
REMARK  status: ('A' for Active; 'I' for Inactive)
REMARK    1  A    between atoms: C_1  and  O_2
REMARK    2  A    between atoms: O_2  and  C_3
REMARK    3  A    between atoms: C_3  and  C_4
REMARK    4  A    between atoms: C_4  and  C_5
REMARK    5  A    between atoms: C_5  and  N_6
REMARK    6  A    between atoms: C_7  and  C_9
REMARK    7  A    between atoms: C_11  and  C_12
REMARK    8  A    between atoms: C_12  and  C_14
REMARK    9  A    between atoms: C_15  and  C_16
REMARK   10  A    between atoms: C_26  and  C_27
REMARK                            x       y       z     vdW  Elec       q    Type
REMARK                         _______ _______ _______ _____ _____    ______ ____
ROOT
ATOM      1  C   UNL     1       2.114   4.925  18.847  0.00  0.00    +0.000 C 
ATOM      2  O   UNL     1       1.458   4.592  17.866  0.00  0.00    +0.000 OA
ENDROOT
BRANCH   1   5
ATOM      3  C   UNL     1       1.617   8.127  20.709  0.00  0.00    +0.000 A 
ATOM      4  C   UNL     1       1.802   6.756  20.733  0.00  0.00    +0.000 A 
ATOM      5  C   UNL     1       2.047   6.292  19.403  0.00  0.00    +0.000 A 
ATOM      6  C   UNL     1       2.282   7.446  18.669  0.00  0.00    +0.000 A 
ATOM      7  N   UNL     1       2.037   8.535  19.462  0.00  0.00    +0.000 N 
ATOM      8  H   UNL     1       2.097   9.507  19.179  0.00  0.00    +0.000 HD
BRANCH   3  10
ATOM      9  N   UNL     1      -0.056   9.697  21.360  0.00  0.00    +0.000 N 
ATOM     10  C   UNL     1       1.118   9.064  21.697  0.00  0.00    +0.000 C 
ATOM     11  O   UNL     1       1.734   9.311  22.731  0.00  0.00    +0.000 OA
ATOM     12  H   UNL     1      -0.492   9.506  20.467  0.00  0.00    +0.000 HD
BRANCH   9  13
ATOM     13  C   UNL     1      -0.681  10.703  22.197  0.00  0.00    +0.000 C 
BRANCH  13  14
ATOM     14  C   UNL     1      -1.333  11.837  21.403  0.00  0.00    +0.000 C 
BRANCH  14  15
ATOM     15  C   UNL     1      -0.358  12.931  20.982  0.00  0.00    +0.000 C 
BRANCH  15  17
ATOM     16  C   UNL     1       1.953  13.003  20.506  0.00  0.00    +0.000 C 
ATOM     17  O   UNL     1       0.955  12.608  21.440  0.00  0.00    +0.000 OA
ENDBRANCH  15  17
ENDBRANCH  14  15
ENDBRANCH  13  14
ENDBRANCH   9  13
ENDBRANCH   3  10
ENDBRANCH   1   5
BRANCH   1  18
ATOM     18  C   UNL     1       3.033   3.992  19.476  0.00  0.00    +0.000 A 
ATOM     19  C   UNL     1       4.379   3.669  19.065  0.00  0.00    +0.000 A 
ATOM     20  N   UNL     1       4.913   2.804  19.943  0.00  0.00    +0.000 NA
ATOM     21  O   UNL     1       3.920   2.454  20.821  0.00  0.00    +0.000 OA
ATOM     22  C   UNL     1       2.787   3.140  20.535  0.00  0.00    +0.000 A 
ATOM     23  C   UNL     1       1.615   2.780  21.367  0.00  0.00    +0.000 C 
BRANCH  19  24
ATOM     24  C   UNL     1       5.163   4.131  17.901  0.00  0.00    +0.000 A 
ATOM     25  C   UNL     1       4.825   3.770  16.579  0.00  0.00    +0.000 A 
ATOM     26 CL   UNL     1       3.323   3.017  16.149  0.00  0.00    +0.000 Cl
ATOM     27  C   UNL     1       5.654   4.102  15.494  0.00  0.00    +0.000 A 
ATOM     28  C   UNL     1       6.783   4.889  15.681  0.00  0.00    +0.000 A 
ATOM     29  C   UNL     1       7.087   5.342  16.958  0.00  0.00    +0.000 A 
ATOM     30  C   UNL     1       6.305   4.952  18.060  0.00  0.00    +0.000 A 
ATOM     31 CL   UNL     1       6.867   5.542  19.594  0.00  0.00    +0.000 Cl
ENDBRANCH  19  24
ENDBRANCH   1  18
TORSDOF 8
ENDMDL
