MODEL 1
REMARK VINA RESULT:      -7.3      0.000      0.000
REMARK  Name = 
REMARK  7 active torsions:
REMARK  status: ('A' for Active; 'I' for Inactive)
REMARK    1  A    between atoms: C_1  and  C_2
REMARK    2  A    between atoms: C_2  and  O_3
REMARK    3  A    between atoms: O_3  and  C_4
REMARK    4  A    between atoms: C_4  and  C_6
REMARK    5  A    between atoms: C_6  and  C_7
REMARK    6  A    between atoms: C_17  and  O_18
REMARK    7  A    between atoms: O_18  and  C_19
REMARK                            x       y       z     vdW  Elec       q    Type
REMARK                         _______ _______ _______ _____ _____    ______ ____
ROOT
ATOM      1  C   UNL     1       6.091   5.429  15.602  0.00  0.00    +0.000 C 
ATOM      2  N   UNL     1       7.200   6.169  16.259  0.00  0.00    +0.000 NA
ATOM      3  C   UNL     1       7.595   5.617  17.571  0.00  0.00    +0.000 C 
ATOM      4  C   UNL     1       6.440   5.703  18.591  0.00  0.00    +0.000 C 
ATOM      5  C   UNL     1       5.226   5.099  17.970  0.00  0.00    +0.000 A 
ATOM      6  C   UNL     1       5.067   4.958  16.607  0.00  0.00    +0.000 A 
ATOM      7  N   UNL     1       3.887   4.365  16.321  0.00  0.00    +0.000 N 
ATOM      8  C   UNL     1       3.293   4.148  17.509  0.00  0.00    +0.000 A 
ATOM      9  C   UNL     1       2.054   3.556  17.737  0.00  0.00    +0.000 A 
ATOM     10  C   UNL     1       1.624   3.423  19.069  0.00  0.00    +0.000 A 
ATOM     11  C   UNL     1       2.427   3.876  20.143  0.00  0.00    +0.000 A 
ATOM     12  C   UNL     1       3.686   4.474  19.874  0.00  0.00    +0.000 A 
ATOM     13  C   UNL     1       4.082   4.591  18.544  0.00  0.00    +0.000 A 
ATOM     14  H   UNL     1       6.912   7.165  16.407  0.00  0.00    +0.000 HD
ATOM     15  H   UNL     1       3.510   4.135  15.374  0.00  0.00    +0.000 HD
ENDROOT
BRANCH  11  16
ATOM     16  O   UNL     1       1.954   3.712  21.405  0.00  0.00    +0.000 OA
ATOM     17  C   UNL     1       1.276   2.603  21.869  0.00  0.00    +0.000 C 
ENDBRANCH  11  16
BRANCH   1  18
ATOM     18  C   UNL     1       6.613   4.237  14.779  0.00  0.00    +0.000 C 
BRANCH  18  19
ATOM     19  C   UNL     1       7.208   4.693  13.477  0.00  0.00    +0.000 C 
ATOM     20  O   UNL     1       8.073   5.558  13.479  0.00  0.00    +0.000 OA
BRANCH  19  21
ATOM     21  O   UNL     1       6.783   4.126  12.315  0.00  0.00    +0.000 OA
BRANCH  21  23
ATOM     22  C   UNL     1       4.626   3.358  11.658  0.00  0.00    +0.000 C 
ATOM     23  C   UNL     1       5.994   2.992  12.217  0.00  0.00    +0.000 C 
ENDBRANCH  21  23
ENDBRANCH  19  21
ENDBRANCH  18  19
ENDBRANCH   1  18
TORSDOF 5
ENDMDL
MODEL 2
REMARK VINA RESULT:      -7.1      0.997      1.034
REMARK  Name = 
REMARK  7 active torsions:
REMARK  status: ('A' for Active; 'I' for Inactive)
REMARK    1  A    between atoms: C_1  and  C_2
REMARK    2  A    between atoms: C_2  and  O_3
REMARK    3  A    between atoms: O_3  and  C_4
REMARK    4  A    between atoms: C_4  and  C_6
REMARK    5  A    between atoms: C_6  and  C_7
REMARK    6  A    between atoms: C_17  and  O_18
REMARK    7  A    between atoms: O_18  and  C_19
REMARK                            x       y       z     vdW  Elec       q    Type
REMARK                         _______ _______ _______ _____ _____    ______ ____
ROOT
ATOM      1  C   UNL     1       6.565   5.605  16.410  0.00  0.00    +0.000 C 
ATOM      2  N   UNL     1       7.327   6.381  17.425  0.00  0.00    +0.000 NA
ATOM      3  C   UNL     1       7.506   5.673  18.709  0.00  0.00    +0.000 C 
ATOM      4  C   UNL     1       6.152   5.398  19.396  0.00  0.00    +0.000 C 
ATOM      5  C   UNL     1       5.256   4.732  18.407  0.00  0.00    +0.000 A 
ATOM      6  C   UNL     1       5.448   4.811  17.043  0.00  0.00    +0.000 A 
ATOM      7  N   UNL     1       4.504   4.103  16.385  0.00  0.00    +0.000 N 
ATOM      8  C   UNL     1       3.705   3.590  17.338  0.00  0.00    +0.000 A 
ATOM      9  C   UNL     1       2.586   2.783  17.157  0.00  0.00    +0.000 A 
ATOM     10  C   UNL     1       1.893   2.352  18.301  0.00  0.00    +0.000 A 
ATOM     11  C   UNL     1       2.321   2.727  19.597  0.00  0.00    +0.000 A 
ATOM     12  C   UNL     1       3.468   3.551  19.746  0.00  0.00    +0.000 A 
ATOM     13  C   UNL     1       4.131   3.960  18.592  0.00  0.00    +0.000 A 
ATOM     14  H   UNL     1       6.824   7.278  17.623  0.00  0.00    +0.000 HD
ATOM     15  H   UNL     1       4.409   3.988  15.351  0.00  0.00    +0.000 HD
ENDROOT
BRANCH  11  16
ATOM     16  O   UNL     1       1.610   2.271  20.660  0.00  0.00    +0.000 OA
ATOM     17  C   UNL     1       1.648   2.797  21.935  0.00  0.00    +0.000 C 
ENDBRANCH  11  16
BRANCH   1  18
ATOM     18  C   UNL     1       7.485   4.673  15.600  0.00  0.00    +0.000 C 
BRANCH  18  19
ATOM     19  C   UNL     1       7.098   4.651  14.149  0.00  0.00    +0.000 C 
ATOM     20  O   UNL     1       7.566   5.485  13.387  0.00  0.00    +0.000 OA
BRANCH  19  21
ATOM     21  O   UNL     1       6.241   3.693  13.703  0.00  0.00    +0.000 OA
BRANCH  21  23
ATOM     22  C   UNL     1       5.568   2.489  11.760  0.00  0.00    +0.000 C 
ATOM     23  C   UNL     1       5.463   3.780  12.560  0.00  0.00    +0.000 C 
ENDBRANCH  21  23
ENDBRANCH  19  21
ENDBRANCH  18  19
ENDBRANCH   1  18
TORSDOF 5
ENDMDL
MODEL 3
REMARK VINA RESULT:      -7.0      3.251      3.837
REMARK  Name = 
REMARK  7 active torsions:
REMARK  status: ('A' for Active; 'I' for Inactive)
REMARK    1  A    between atoms: C_1  and  C_2
REMARK    2  A    between atoms: C_2  and  O_3
REMARK    3  A    between atoms: O_3  and  C_4
REMARK    4  A    between atoms: C_4  and  C_6
REMARK    5  A    between atoms: C_6  and  C_7
REMARK    6  A    between atoms: C_17  and  O_18
REMARK    7  A    between atoms: O_18  and  C_19
REMARK                            x       y       z     vdW  Elec       q    Type
REMARK                         _______ _______ _______ _____ _____    ______ ____
ROOT
ATOM      1  C   UNL     1       5.233   4.704  17.629  0.00  0.00    +0.000 C 
ATOM      2  N   UNL     1       5.403   3.695  18.709  0.00  0.00    +0.000 NA
ATOM      3  C   UNL     1       4.154   3.372  19.429  0.00  0.00    +0.000 C 
ATOM      4  C   UNL     1       3.589   4.607  20.163  0.00  0.00    +0.000 C 
ATOM      5  C   UNL     1       3.504   5.730  19.185  0.00  0.00    +0.000 A 
ATOM      6  C   UNL     1       4.242   5.773  18.020  0.00  0.00    +0.000 A 
ATOM      7  N   UNL     1       3.957   6.889  17.314  0.00  0.00    +0.000 N 
ATOM      8  C   UNL     1       3.049   7.560  18.046  0.00  0.00    +0.000 A 
ATOM      9  C   UNL     1       2.446   8.775  17.736  0.00  0.00    +0.000 A 
ATOM     10  C   UNL     1       1.515   9.300  18.649  0.00  0.00    +0.000 A 
ATOM     11  C   UNL     1       1.201   8.612  19.846  0.00  0.00    +0.000 A 
ATOM     12  C   UNL     1       1.834   7.374  20.131  0.00  0.00    +0.000 A 
ATOM     13  C   UNL     1       2.751   6.883  19.206  0.00  0.00    +0.000 A 
ATOM     14  H   UNL     1       6.091   4.054  19.412  0.00  0.00    +0.000 HD
ATOM     15  H   UNL     1       4.366   7.176  16.397  0.00  0.00    +0.000 HD
ENDROOT
BRANCH  11  16
ATOM     16  O   UNL     1       0.288   9.172  20.681  0.00  0.00    +0.000 OA
ATOM     17  C   UNL     1      -0.393  10.350  20.452  0.00  0.00    +0.000 C 
ENDBRANCH  11  16
BRANCH   1  18
ATOM     18  C   UNL     1       4.811   4.048  16.302  0.00  0.00    +0.000 C 
BRANCH  18  19
ATOM     19  C   UNL     1       5.648   4.545  15.158  0.00  0.00    +0.000 C 
ATOM     20  O   UNL     1       5.870   5.742  15.048  0.00  0.00    +0.000 OA
BRANCH  19  21
ATOM     21  O   UNL     1       6.158   3.651  14.268  0.00  0.00    +0.000 OA
BRANCH  21  23
ATOM     22  C   UNL     1       5.577   3.097  12.025  0.00  0.00    +0.000 C 
ATOM     23  C   UNL     1       6.467   3.921  12.945  0.00  0.00    +0.000 C 
ENDBRANCH  21  23
ENDBRANCH  19  21
ENDBRANCH  18  19
ENDBRANCH   1  18
TORSDOF 5
ENDMDL
MODEL 4
REMARK VINA RESULT:      -7.0      0.933      1.018
REMARK  Name = 
REMARK  7 active torsions:
REMARK  status: ('A' for Active; 'I' for Inactive)
REMARK    1  A    between atoms: C_1  and  C_2
REMARK    2  A    between atoms: C_2  and  O_3
REMARK    3  A    between atoms: O_3  and  C_4
REMARK    4  A    between atoms: C_4  and  C_6
REMARK    5  A    between atoms: C_6  and  C_7
REMARK    6  A    between atoms: C_17  and  O_18
REMARK    7  A    between atoms: O_18  and  C_19
REMARK                            x       y       z     vdW  Elec       q    Type
REMARK                         _______ _______ _______ _____ _____    ______ ____
ROOT
ATOM      1  C   UNL     1       5.884   5.202  15.397  0.00  0.00    +0.000 C 
ATOM      2  N   UNL     1       6.673   6.324  15.974  0.00  0.00    +0.000 NA
ATOM      3  C   UNL     1       7.234   6.037  17.310  0.00  0.00    +0.000 C 
ATOM      4  C   UNL     1       6.119   5.798  18.351  0.00  0.00    +0.000 C 
ATOM      5  C   UNL     1       5.186   4.772  17.804  0.00  0.00    +0.000 A 
ATOM      6  C   UNL     1       5.084   4.485  16.458  0.00  0.00    +0.000 A 
ATOM      7  N   UNL     1       4.179   3.506  16.243  0.00  0.00    +0.000 N 
ATOM      8  C   UNL     1       3.695   3.186  17.458  0.00  0.00    +0.000 A 
ATOM      9  C   UNL     1       2.734   2.225  17.758  0.00  0.00    +0.000 A 
ATOM     10  C   UNL     1       2.376   2.052  19.106  0.00  0.00    +0.000 A 
ATOM     11  C   UNL     1       2.975   2.829  20.126  0.00  0.00    +0.000 A 
ATOM     12  C   UNL     1       3.953   3.800  19.785  0.00  0.00    +0.000 A 
ATOM     13  C   UNL     1       4.284   3.947  18.440  0.00  0.00    +0.000 A 
ATOM     14  H   UNL     1       6.061   7.169  16.060  0.00  0.00    +0.000 HD
ATOM     15  H   UNL     1       3.903   3.092  15.325  0.00  0.00    +0.000 HD
ENDROOT
BRANCH  11  16
ATOM     16  O   UNL     1       2.587   2.607  21.408  0.00  0.00    +0.000 OA
ATOM     17  C   UNL     1       1.289   2.658  21.874  0.00  0.00    +0.000 C 
ENDBRANCH  11  16
BRANCH   1  18
ATOM     18  C   UNL     1       6.783   4.204  14.645  0.00  0.00    +0.000 C 
BRANCH  18  19
ATOM     19  C   UNL     1       6.417   4.130  13.191  0.00  0.00    +0.000 C 
ATOM     20  O   UNL     1       7.208   4.530  12.348  0.00  0.00    +0.000 OA
BRANCH  19  21
ATOM     21  O   UNL     1       5.214   3.603  12.832  0.00  0.00    +0.000 OA
BRANCH  21  23
ATOM     22  C   UNL     1       3.802   3.394  10.925  0.00  0.00    +0.000 C 
ATOM     23  C   UNL     1       4.979   2.830  11.708  0.00  0.00    +0.000 C 
ENDBRANCH  21  23
ENDBRANCH  19  21
ENDBRANCH  18  19
ENDBRANCH   1  18
TORSDOF 5
ENDMDL
MODEL 5
REMARK VINA RESULT:      -6.9      1.047      1.114
REMARK  Name = 
REMARK  7 active torsions:
REMARK  status: ('A' for Active; 'I' for Inactive)
REMARK    1  A    between atoms: C_1  and  C_2
REMARK    2  A    between atoms: C_2  and  O_3
REMARK    3  A    between atoms: O_3  and  C_4
REMARK    4  A    between atoms: C_4  and  C_6
REMARK    5  A    between atoms: C_6  and  C_7
REMARK    6  A    between atoms: C_17  and  O_18
REMARK    7  A    between atoms: O_18  and  C_19
REMARK                            x       y       z     vdW  Elec       q    Type
REMARK                         _______ _______ _______ _____ _____    ______ ____
ROOT
ATOM      1  C   UNL     1       5.454   5.416  15.404  0.00  0.00    +0.000 C 
ATOM      2  N   UNL     1       5.785   6.804  15.825  0.00  0.00    +0.000 NA
ATOM      3  C   UNL     1       5.965   6.961  17.283  0.00  0.00    +0.000 C 
ATOM      4  C   UNL     1       4.664   6.644  18.050  0.00  0.00    +0.000 C 
ATOM      5  C   UNL     1       4.170   5.312  17.597  0.00  0.00    +0.000 A 
ATOM      6  C   UNL     1       4.538   4.740  16.396  0.00  0.00    +0.000 A 
ATOM      7  N   UNL     1       3.961   3.528  16.246  0.00  0.00    +0.000 N 
ATOM      8  C   UNL     1       3.212   3.344  17.349  0.00  0.00    +0.000 A 
ATOM      9  C   UNL     1       2.424   2.239  17.660  0.00  0.00    +0.000 A 
ATOM     10  C   UNL     1       1.722   2.254  18.878  0.00  0.00    +0.000 A 
ATOM     11  C   UNL     1       1.814   3.357  19.759  0.00  0.00    +0.000 A 
ATOM     12  C   UNL     1       2.628   4.468  19.411  0.00  0.00    +0.000 A 
ATOM     13  C   UNL     1       3.309   4.421  18.198  0.00  0.00    +0.000 A 
ATOM     14  H   UNL     1       5.015   7.448  15.528  0.00  0.00    +0.000 HD
ATOM     15  H   UNL     1       4.065   2.875  15.437  0.00  0.00    +0.000 HD
ENDROOT
BRANCH  11  16
ATOM     16  O   UNL     1       1.114   3.304  20.922  0.00  0.00    +0.000 OA
ATOM     17  C   UNL     1       1.457   2.558  22.031  0.00  0.00    +0.000 C 
ENDBRANCH  11  16
BRANCH   1  18
ATOM     18  C   UNL     1       6.723   4.570  15.191  0.00  0.00    +0.000 C 
BRANCH  18  19
ATOM     19  C   UNL     1       7.249   4.719  13.793  0.00  0.00    +0.000 C 
ATOM     20  O   UNL     1       7.946   5.684  13.510  0.00  0.00    +0.000 OA
BRANCH  19  21
ATOM     21  O   UNL     1       6.954   3.769  12.864  0.00  0.00    +0.000 OA
BRANCH  21  23
ATOM     22  C   UNL     1       5.705   2.199  11.580  0.00  0.00    +0.000 C 
ATOM     23  C   UNL     1       5.693   3.510  12.353  0.00  0.00    +0.000 C 
ENDBRANCH  21  23
ENDBRANCH  19  21
ENDBRANCH  18  19
ENDBRANCH   1  18
TORSDOF 5
ENDMDL
MODEL 6
REMARK VINA RESULT:      -6.8      5.672      8.953
REMARK  Name = 
REMARK  7 active torsions:
REMARK  status: ('A' for Active; 'I' for Inactive)
REMARK    1  A    between atoms: C_1  and  C_2
REMARK    2  A    between atoms: C_2  and  O_3
REMARK    3  A    between atoms: O_3  and  C_4
REMARK    4  A    between atoms: C_4  and  C_6
REMARK    5  A    between atoms: C_6  and  C_7
REMARK    6  A    between atoms: C_17  and  O_18
REMARK    7  A    between atoms: O_18  and  C_19
REMARK                            x       y       z     vdW  Elec       q    Type
REMARK                         _______ _______ _______ _____ _____    ______ ____
ROOT
ATOM      1  C   UNL     1       1.059   9.568  20.909  0.00  0.00    +0.000 C 
ATOM      2  N   UNL     1       1.040  10.647  19.885  0.00  0.00    +0.000 NA
ATOM      3  C   UNL     1       0.669  10.182  18.533  0.00  0.00    +0.000 C 
ATOM      4  C   UNL     1       1.694   9.169  17.982  0.00  0.00    +0.000 C 
ATOM      5  C   UNL     1       1.888   8.101  19.005  0.00  0.00    +0.000 A 
ATOM      6  C   UNL     1       1.586   8.273  20.340  0.00  0.00    +0.000 A 
ATOM      7  N   UNL     1       1.841   7.144  21.038  0.00  0.00    +0.000 N 
ATOM      8  C   UNL     1       2.321   6.264  20.140  0.00  0.00    +0.000 A 
ATOM      9  C   UNL     1       2.727   4.953  20.377  0.00  0.00    +0.000 A 
ATOM     10  C   UNL     1       3.196   4.203  19.285  0.00  0.00    +0.000 A 
ATOM     11  C   UNL     1       3.253   4.762  17.986  0.00  0.00    +0.000 A 
ATOM     12  C   UNL     1       2.830   6.102  17.780  0.00  0.00    +0.000 A 
ATOM     13  C   UNL     1       2.371   6.818  18.883  0.00  0.00    +0.000 A 
ATOM     14  H   UNL     1       1.991  11.081  19.822  0.00  0.00    +0.000 HD
ATOM     15  H   UNL     1       1.704   6.991  22.062  0.00  0.00    +0.000 HD
ENDROOT
BRANCH  11  16
ATOM     16  O   UNL     1       3.711   3.980  16.975  0.00  0.00    +0.000 OA
ATOM     17  C   UNL     1       4.922   4.132  16.329  0.00  0.00    +0.000 C 
ENDBRANCH  11  16
BRANCH   1  18
ATOM     18  C   UNL     1      -0.334   9.348  21.526  0.00  0.00    +0.000 C 
BRANCH  18  19
ATOM     19  C   UNL     1      -0.398   9.878  22.930  0.00  0.00    +0.000 C 
ATOM     20  O   UNL     1       0.507   9.627  23.712  0.00  0.00    +0.000 OA
BRANCH  19  21
ATOM     21  O   UNL     1      -1.459  10.645  23.305  0.00  0.00    +0.000 OA
BRANCH  21  23
ATOM     22  C   UNL     1      -3.106  12.341  23.016  0.00  0.00    +0.000 C 
ATOM     23  C   UNL     1      -1.625  11.986  23.007  0.00  0.00    +0.000 C 
ENDBRANCH  21  23
ENDBRANCH  19  21
ENDBRANCH  18  19
ENDBRANCH   1  18
TORSDOF 5
ENDMDL
MODEL 7
REMARK VINA RESULT:      -6.7      2.448      3.608
REMARK  Name = 
REMARK  7 active torsions:
REMARK  status: ('A' for Active; 'I' for Inactive)
REMARK    1  A    between atoms: C_1  and  C_2
REMARK    2  A    between atoms: C_2  and  O_3
REMARK    3  A    between atoms: O_3  and  C_4
REMARK    4  A    between atoms: C_4  and  C_6
REMARK    5  A    between atoms: C_6  and  C_7
REMARK    6  A    between atoms: C_17  and  O_18
REMARK    7  A    between atoms: O_18  and  C_19
REMARK                            x       y       z     vdW  Elec       q    Type
REMARK                         _______ _______ _______ _____ _____    ______ ____
ROOT
ATOM      1  C   UNL     1       5.629   5.446  15.601  0.00  0.00    +0.000 C 
ATOM      2  N   UNL     1       5.192   6.867  15.588  0.00  0.00    +0.000 NA
ATOM      3  C   UNL     1       4.798   7.385  16.914  0.00  0.00    +0.000 C 
ATOM      4  C   UNL     1       3.575   6.630  17.476  0.00  0.00    +0.000 C 
ATOM      5  C   UNL     1       3.862   5.168  17.408  0.00  0.00    +0.000 A 
ATOM      6  C   UNL     1       4.808   4.623  16.564  0.00  0.00    +0.000 A 
ATOM      7  N   UNL     1       4.874   3.282  16.721  0.00  0.00    +0.000 N 
ATOM      8  C   UNL     1       3.953   2.980  17.654  0.00  0.00    +0.000 A 
ATOM      9  C   UNL     1       3.644   1.720  18.159  0.00  0.00    +0.000 A 
ATOM     10  C   UNL     1       2.643   1.632  19.141  0.00  0.00    +0.000 A 
ATOM     11  C   UNL     1       1.969   2.789  19.601  0.00  0.00    +0.000 A 
ATOM     12  C   UNL     1       2.310   4.059  19.066  0.00  0.00    +0.000 A 
ATOM     13  C   UNL     1       3.306   4.111  18.095  0.00  0.00    +0.000 A 
ATOM     14  H   UNL     1       4.368   6.970  14.949  0.00  0.00    +0.000 HD
ATOM     15  H   UNL     1       5.501   2.618  16.214  0.00  0.00    +0.000 HD
ENDROOT
BRANCH  11  16
ATOM     16  O   UNL     1       1.016   2.634  20.556  0.00  0.00    +0.000 OA
ATOM     17  C   UNL     1       1.226   2.702  21.918  0.00  0.00    +0.000 C 
ENDBRANCH  11  16
BRANCH   1  18
ATOM     18  C   UNL     1       7.126   5.316  15.934  0.00  0.00    +0.000 C 
BRANCH  18  19
ATOM     19  C   UNL     1       7.356   5.308  17.418  0.00  0.00    +0.000 C 
ATOM     20  O   UNL     1       7.684   4.269  17.972  0.00  0.00    +0.000 OA
BRANCH  19  21
ATOM     21  O   UNL     1       7.209   6.464  18.121  0.00  0.00    +0.000 OA
BRANCH  21  23
ATOM     22  C   UNL     1       8.046   8.676  17.844  0.00  0.00    +0.000 C 
ATOM     23  C   UNL     1       8.236   7.313  18.495  0.00  0.00    +0.000 C 
ENDBRANCH  21  23
ENDBRANCH  19  21
ENDBRANCH  18  19
ENDBRANCH   1  18
TORSDOF 5
ENDMDL
MODEL 8
REMARK VINA RESULT:      -6.7      2.066      6.573
REMARK  Name = 
REMARK  7 active torsions:
REMARK  status: ('A' for Active; 'I' for Inactive)
REMARK    1  A    between atoms: C_1  and  C_2
REMARK    2  A    between atoms: C_2  and  O_3
REMARK    3  A    between atoms: O_3  and  C_4
REMARK    4  A    between atoms: C_4  and  C_6
REMARK    5  A    between atoms: C_6  and  C_7
REMARK    6  A    between atoms: C_17  and  O_18
REMARK    7  A    between atoms: O_18  and  C_19
REMARK                            x       y       z     vdW  Elec       q    Type
REMARK                         _______ _______ _______ _____ _____    ______ ____
ROOT
ATOM      1  C   UNL     1       2.688   5.984  20.259  0.00  0.00    +0.000 C 
ATOM      2  N   UNL     1       2.149   7.367  20.154  0.00  0.00    +0.000 NA
ATOM      3  C   UNL     1       1.838   7.785  18.772  0.00  0.00    +0.000 C 
ATOM      4  C   UNL     1       3.107   7.817  17.893  0.00  0.00    +0.000 C 
ATOM      5  C   UNL     1       3.802   6.505  18.034  0.00  0.00    +0.000 A 
ATOM      6  C   UNL     1       3.604   5.657  19.105  0.00  0.00    +0.000 A 
ATOM      7  N   UNL     1       4.343   4.535  18.970  0.00  0.00    +0.000 N 
ATOM      8  C   UNL     1       5.022   4.683  17.818  0.00  0.00    +0.000 A 
ATOM      9  C   UNL     1       5.920   3.787  17.245  0.00  0.00    +0.000 A 
ATOM     10  C   UNL     1       6.518   4.144  16.025  0.00  0.00    +0.000 A 
ATOM     11  C   UNL     1       6.217   5.377  15.398  0.00  0.00    +0.000 A 
ATOM     12  C   UNL     1       5.296   6.268  16.010  0.00  0.00    +0.000 A 
ATOM     13  C   UNL     1       4.722   5.884  17.218  0.00  0.00    +0.000 A 
ATOM     14  H   UNL     1       2.850   8.041  20.541  0.00  0.00    +0.000 HD
ATOM     15  H   UNL     1       4.387   3.725  19.629  0.00  0.00    +0.000 HD
ENDROOT
BRANCH  11  16
ATOM     16  O   UNL     1       6.826   5.658  14.218  0.00  0.00    +0.000 OA
ATOM     17  C   UNL     1       7.095   4.746  13.217  0.00  0.00    +0.000 C 
ENDBRANCH  11  16
BRANCH   1  18
ATOM     18  C   UNL     1       1.559   4.941  20.353  0.00  0.00    +0.000 C 
BRANCH  18  19
ATOM     19  C   UNL     1       2.060   3.647  20.926  0.00  0.00    +0.000 C 
ATOM     20  O   UNL     1       2.221   3.544  22.134  0.00  0.00    +0.000 OA
BRANCH  19  21
ATOM     21  O   UNL     1       2.313   2.601  20.093  0.00  0.00    +0.000 OA
BRANCH  21  23
ATOM     22  C   UNL     1       2.312   2.142  17.755  0.00  0.00    +0.000 C 
ATOM     23  C   UNL     1       1.504   2.197  19.044  0.00  0.00    +0.000 C 
ENDBRANCH  21  23
ENDBRANCH  19  21
ENDBRANCH  18  19
ENDBRANCH   1  18
TORSDOF 5
ENDMDL
MODEL 9
REMARK VINA RESULT:      -6.7      2.843      4.686
REMARK  Name = 
REMARK  7 active torsions:
REMARK  status: ('A' for Active; 'I' for Inactive)
REMARK    1  A    between atoms: C_1  and  C_2
REMARK    2  A    between atoms: C_2  and  O_3
REMARK    3  A    between atoms: O_3  and  C_4
REMARK    4  A    between atoms: C_4  and  C_6
REMARK    5  A    between atoms: C_6  and  C_7
REMARK    6  A    between atoms: C_17  and  O_18
REMARK    7  A    between atoms: O_18  and  C_19
REMARK                            x       y       z     vdW  Elec       q    Type
REMARK                         _______ _______ _______ _____ _____    ______ ____
ROOT
ATOM      1  C   UNL     1       7.288   5.800  16.950  0.00  0.00    +0.000 C 
ATOM      2  N   UNL     1       7.600   5.102  15.674  0.00  0.00    +0.000 NA
ATOM      3  C   UNL     1       6.433   4.930  14.784  0.00  0.00    +0.000 C 
ATOM      4  C   UNL     1       5.352   4.042  15.436  0.00  0.00    +0.000 C 
ATOM      5  C   UNL     1       5.059   4.586  16.793  0.00  0.00    +0.000 A 
ATOM      6  C   UNL     1       5.934   5.401  17.484  0.00  0.00    +0.000 A 
ATOM      7  N   UNL     1       5.412   5.762  18.676  0.00  0.00    +0.000 N 
ATOM      8  C   UNL     1       4.211   5.158  18.744  0.00  0.00    +0.000 A 
ATOM      9  C   UNL     1       3.289   5.227  19.785  0.00  0.00    +0.000 A 
ATOM     10  C   UNL     1       2.085   4.515  19.646  0.00  0.00    +0.000 A 
ATOM     11  C   UNL     1       1.819   3.753  18.484  0.00  0.00    +0.000 A 
ATOM     12  C   UNL     1       2.781   3.705  17.440  0.00  0.00    +0.000 A 
ATOM     13  C   UNL     1       3.963   4.422  17.610  0.00  0.00    +0.000 A 
ATOM     14  H   UNL     1       7.982   4.150  15.885  0.00  0.00    +0.000 HD
ATOM     15  H   UNL     1       5.853   6.373  19.399  0.00  0.00    +0.000 HD
ENDROOT
BRANCH  11  16
ATOM     16  O   UNL     1       0.634   3.094  18.411  0.00  0.00    +0.000 OA
ATOM     17  C   UNL     1       0.375   1.849  18.948  0.00  0.00    +0.000 C 
ENDBRANCH  11  16
BRANCH   1  18
ATOM     18  C   UNL     1       7.367   7.330  16.793  0.00  0.00    +0.000 C 
BRANCH  18  19
ATOM     19  C   UNL     1       8.039   7.965  17.977  0.00  0.00    +0.000 C 
ATOM     20  O   UNL     1       8.406   7.264  18.910  0.00  0.00    +0.000 OA
BRANCH  19  21
ATOM     21  O   UNL     1       8.240   9.310  17.986  0.00  0.00    +0.000 OA
BRANCH  21  23
ATOM     22  C   UNL     1       9.394  11.370  18.308  0.00  0.00    +0.000 C 
ATOM     23  C   UNL     1       9.062   9.993  18.868  0.00  0.00    +0.000 C 
ENDBRANCH  21  23
ENDBRANCH  19  21
ENDBRANCH  18  19
ENDBRANCH   1  18
TORSDOF 5
ENDMDL
