MODEL 1
REMARK VINA RESULT:      -7.5      0.000      0.000
REMARK  Name = 
REMARK  12 active torsions:
REMARK  status: ('A' for Active; 'I' for Inactive)
REMARK    1  A    between atoms: C_1  and  C_2
REMARK    2  A    between atoms: C_5  and  S_6
REMARK    3  A    between atoms: S_6  and  C_7
REMARK    4  A    between atoms: C_7  and  C_8
REMARK    5  A    between atoms: C_7  and  C_9
REMARK    6  A    between atoms: C_9  and  O_10
REMARK    7  A    between atoms: C_9  and  C_11
REMARK    8  A    between atoms: C_9  and  C_13
REMARK    9  A    between atoms: C_13  and  N_14
REMARK   10  A    between atoms: N_14  and  C_15
REMARK   11  A    between atoms: C_15  and  C_16
REMARK   12  A    between atoms: C_22  and  C_24
REMARK                            x       y       z     vdW  Elec       q    Type
REMARK                         _______ _______ _______ _____ _____    ______ ____
ROOT
ATOM      1  C   UNL     1       4.966   4.021  17.836  0.00  0.00    +0.000 C 
ENDROOT
BRANCH   1   2
ATOM      2  C   UNL     1       6.252   4.673  17.190  0.00  0.00    +0.000 C 
ATOM      3  C   UNL     1       7.139   5.401  18.208  0.00  0.00    +0.000 C 
BRANCH   2   4
ATOM      4  S   UNL     1       5.733   5.853  15.848  0.00  0.00    +0.000 S 
BRANCH   4   9
ATOM      5  C   UNL     1       7.068   2.408  11.036  0.00  0.00    +0.000 C 
ATOM      6  C   UNL     1       6.716   3.349  12.148  0.00  0.00    +0.000 A 
ATOM      7  C   UNL     1       7.639   4.296  12.611  0.00  0.00    +0.000 A 
ATOM      8  C   UNL     1       7.333   5.113  13.703  0.00  0.00    +0.000 A 
ATOM      9  C   UNL     1       6.104   4.988  14.349  0.00  0.00    +0.000 A 
ATOM     10  C   UNL     1       5.176   4.054  13.878  0.00  0.00    +0.000 A 
ATOM     11  C   UNL     1       5.474   3.240  12.785  0.00  0.00    +0.000 A 
ENDBRANCH   4   9
ENDBRANCH   2   4
ENDBRANCH   1   2
BRANCH   1  12
ATOM     12  O   UNL     1       4.683   2.778  17.135  0.00  0.00    +0.000 OA
ATOM     13  H   UNL     1       4.477   3.022  16.210  0.00  0.00    +0.000 HD
ENDBRANCH   1  12
BRANCH   1  14
ATOM     14  C   UNL     1       5.234   3.624  19.296  0.00  0.00    +0.000 C 
ATOM     15  F   UNL     1       4.634   2.412  19.518  0.00  0.00    +0.000 F 
ENDBRANCH   1  14
BRANCH   1  16
ATOM     16  C   UNL     1       3.726   4.957  17.674  0.00  0.00    +0.000 C 
BRANCH  16  17
ATOM     17  N   UNL     1       2.774   5.022  18.790  0.00  0.00    +0.000 N 
ATOM     18  C   UNL     1       1.798   4.024  18.867  0.00  0.00    +0.000 C 
ATOM     19  O   UNL     1       1.675   3.241  17.909  0.00  0.00    +0.000 OA
BRANCH  18  20
ATOM     20  C   UNL     1       0.915   3.831  20.128  0.00  0.00    +0.000 C 
ATOM     21  F   UNL     1       0.148   4.894  20.478  0.00  0.00    +0.000 F 
ATOM     22  F   UNL     1       0.047   2.790  19.967  0.00  0.00    +0.000 F 
ATOM     23  F   UNL     1       1.669   3.523  21.221  0.00  0.00    +0.000 F 
ENDBRANCH  18  20
BRANCH  17  24
ATOM     24  C   UNL     1       3.031   6.059  19.797  0.00  0.00    +0.000 C 
BRANCH  24  25
ATOM     25  C   UNL     1       2.288   7.370  19.613  0.00  0.00    +0.000 A 
ATOM     26  C   UNL     1       1.523   7.989  20.611  0.00  0.00    +0.000 A 
ATOM     27  C   UNL     1       0.776   9.140  20.329  0.00  0.00    +0.000 A 
ATOM     28  C   UNL     1       0.795   9.696  19.053  0.00  0.00    +0.000 A 
ATOM     29  C   UNL     1       1.596   9.132  18.067  0.00  0.00    +0.000 A 
ATOM     30  C   UNL     1       2.342   7.984  18.347  0.00  0.00    +0.000 A 
ENDBRANCH  24  25
ENDBRANCH  17  24
ENDBRANCH  16  17
ENDBRANCH   1  16
TORSDOF 10
ENDMDL
MODEL 2
REMARK VINA RESULT:      -7.3      1.074      1.580
REMARK  Name = 
REMARK  12 active torsions:
REMARK  status: ('A' for Active; 'I' for Inactive)
REMARK    1  A    between atoms: C_1  and  C_2
REMARK    2  A    between atoms: C_5  and  S_6
REMARK    3  A    between atoms: S_6  and  C_7
REMARK    4  A    between atoms: C_7  and  C_8
REMARK    5  A    between atoms: C_7  and  C_9
REMARK    6  A    between atoms: C_9  and  O_10
REMARK    7  A    between atoms: C_9  and  C_11
REMARK    8  A    between atoms: C_9  and  C_13
REMARK    9  A    between atoms: C_13  and  N_14
REMARK   10  A    between atoms: N_14  and  C_15
REMARK   11  A    between atoms: C_15  and  C_16
REMARK   12  A    between atoms: C_22  and  C_24
REMARK                            x       y       z     vdW  Elec       q    Type
REMARK                         _______ _______ _______ _____ _____    ______ ____
ROOT
ATOM      1  C   UNL     1       5.362   4.564  18.165  0.00  0.00    +0.000 C 
ENDROOT
BRANCH   1   2
ATOM      2  C   UNL     1       6.189   4.325  16.841  0.00  0.00    +0.000 C 
ATOM      3  C   UNL     1       7.700   4.512  17.027  0.00  0.00    +0.000 C 
BRANCH   2   4
ATOM      4  S   UNL     1       5.569   5.474  15.514  0.00  0.00    +0.000 S 
BRANCH   4   9
ATOM      5  C   UNL     1       7.181   2.223  10.652  0.00  0.00    +0.000 C 
ATOM      6  C   UNL     1       6.757   3.117  11.779  0.00  0.00    +0.000 A 
ATOM      7  C   UNL     1       7.616   4.105  12.278  0.00  0.00    +0.000 A 
ATOM      8  C   UNL     1       7.244   4.877  13.382  0.00  0.00    +0.000 A 
ATOM      9  C   UNL     1       6.014   4.667  14.004  0.00  0.00    +0.000 A 
ATOM     10  C   UNL     1       5.150   3.691  13.496  0.00  0.00    +0.000 A 
ATOM     11  C   UNL     1       5.513   2.921  12.391  0.00  0.00    +0.000 A 
ENDBRANCH   4   9
ENDBRANCH   2   4
ENDBRANCH   1   2
BRANCH   1  12
ATOM     12  O   UNL     1       5.232   3.292  18.859  0.00  0.00    +0.000 OA
ATOM     13  H   UNL     1       5.761   2.644  18.351  0.00  0.00    +0.000 HD
ENDBRANCH   1  12
BRANCH   1  14
ATOM     14  C   UNL     1       6.129   5.485  19.125  0.00  0.00    +0.000 C 
ATOM     15  F   UNL     1       6.208   6.724  18.546  0.00  0.00    +0.000 F 
ENDBRANCH   1  14
BRANCH   1  16
ATOM     16  C   UNL     1       3.924   5.081  17.838  0.00  0.00    +0.000 C 
BRANCH  16  17
ATOM     17  N   UNL     1       2.933   5.061  18.921  0.00  0.00    +0.000 N 
ATOM     18  C   UNL     1       2.114   3.931  19.027  0.00  0.00    +0.000 C 
ATOM     19  O   UNL     1       2.146   3.090  18.113  0.00  0.00    +0.000 OA
BRANCH  18  20
ATOM     20  C   UNL     1       1.224   3.674  20.271  0.00  0.00    +0.000 C 
ATOM     21  F   UNL     1       1.882   3.523  21.447  0.00  0.00    +0.000 F 
ATOM     22  F   UNL     1       0.347   4.702  20.470  0.00  0.00    +0.000 F 
ATOM     23  F   UNL     1       0.458   2.557  20.111  0.00  0.00    +0.000 F 
ENDBRANCH  18  20
BRANCH  17  24
ATOM     24  C   UNL     1       2.994   6.176  19.873  0.00  0.00    +0.000 C 
BRANCH  24  25
ATOM     25  C   UNL     1       2.235   7.432  19.483  0.00  0.00    +0.000 A 
ATOM     26  C   UNL     1       2.248   7.993  18.199  0.00  0.00    +0.000 A 
ATOM     27  C   UNL     1       1.613   9.215  17.946  0.00  0.00    +0.000 A 
ATOM     28  C   UNL     1       0.944   9.885  18.967  0.00  0.00    +0.000 A 
ATOM     29  C   UNL     1       0.868   9.314  20.232  0.00  0.00    +0.000 A 
ATOM     30  C   UNL     1       1.501   8.093  20.485  0.00  0.00    +0.000 A 
ENDBRANCH  24  25
ENDBRANCH  17  24
ENDBRANCH  16  17
ENDBRANCH   1  16
TORSDOF 10
ENDMDL
MODEL 3
REMARK VINA RESULT:      -7.1      0.309      1.472
REMARK  Name = 
REMARK  12 active torsions:
REMARK  status: ('A' for Active; 'I' for Inactive)
REMARK    1  A    between atoms: C_1  and  C_2
REMARK    2  A    between atoms: C_5  and  S_6
REMARK    3  A    between atoms: S_6  and  C_7
REMARK    4  A    between atoms: C_7  and  C_8
REMARK    5  A    between atoms: C_7  and  C_9
REMARK    6  A    between atoms: C_9  and  O_10
REMARK    7  A    between atoms: C_9  and  C_11
REMARK    8  A    between atoms: C_9  and  C_13
REMARK    9  A    between atoms: C_13  and  N_14
REMARK   10  A    between atoms: N_14  and  C_15
REMARK   11  A    between atoms: C_15  and  C_16
REMARK   12  A    between atoms: C_22  and  C_24
REMARK                            x       y       z     vdW  Elec       q    Type
REMARK                         _______ _______ _______ _____ _____    ______ ____
ROOT
ATOM      1  C   UNL     1       5.136   4.227  18.036  0.00  0.00    +0.000 C 
ENDROOT
BRANCH   1   2
ATOM      2  C   UNL     1       6.421   4.976  17.503  0.00  0.00    +0.000 C 
ATOM      3  C   UNL     1       7.106   5.839  18.570  0.00  0.00    +0.000 C 
BRANCH   2   4
ATOM      4  S   UNL     1       5.955   6.030  16.042  0.00  0.00    +0.000 S 
BRANCH   4   9
ATOM      5  C   UNL     1       7.034   2.975  10.912  0.00  0.00    +0.000 C 
ATOM      6  C   UNL     1       6.803   3.633  12.240  0.00  0.00    +0.000 A 
ATOM      7  C   UNL     1       5.648   3.365  12.986  0.00  0.00    +0.000 A 
ATOM      8  C   UNL     1       5.401   4.044  14.182  0.00  0.00    +0.000 A 
ATOM      9  C   UNL     1       6.302   5.003  14.643  0.00  0.00    +0.000 A 
ATOM     10  C   UNL     1       7.463   5.259  13.906  0.00  0.00    +0.000 A 
ATOM     11  C   UNL     1       7.717   4.580  12.715  0.00  0.00    +0.000 A 
ENDBRANCH   4   9
ENDBRANCH   2   4
ENDBRANCH   1   2
BRANCH   1  12
ATOM     12  O   UNL     1       4.994   2.982  17.296  0.00  0.00    +0.000 OA
ATOM     13  H   UNL     1       4.192   2.543  17.645  0.00  0.00    +0.000 HD
ENDBRANCH   1  12
BRANCH   1  14
ATOM     14  C   UNL     1       5.316   3.819  19.506  0.00  0.00    +0.000 C 
ATOM     15  F   UNL     1       4.831   2.546  19.651  0.00  0.00    +0.000 F 
ENDBRANCH   1  14
BRANCH   1  16
ATOM     16  C   UNL     1       3.852   5.081  17.791  0.00  0.00    +0.000 C 
BRANCH  16  17
ATOM     17  N   UNL     1       2.813   5.059  18.828  0.00  0.00    +0.000 N 
ATOM     18  C   UNL     1       1.951   3.957  18.857  0.00  0.00    +0.000 C 
ATOM     19  O   UNL     1       1.992   3.149  17.913  0.00  0.00    +0.000 OA
BRANCH  18  20
ATOM     20  C   UNL     1       0.997   3.689  20.050  0.00  0.00    +0.000 C 
ATOM     21  F   UNL     1       0.082   2.705  19.864  0.00  0.00    +0.000 F 
ATOM     22  F   UNL     1       1.695   3.334  21.169  0.00  0.00    +0.000 F 
ATOM     23  F   UNL     1       0.296   4.809  20.388  0.00  0.00    +0.000 F 
ENDBRANCH  18  20
BRANCH  17  24
ATOM     24  C   UNL     1       2.872   6.136  19.824  0.00  0.00    +0.000 C 
BRANCH  24  25
ATOM     25  C   UNL     1       2.175   7.431  19.451  0.00  0.00    +0.000 A 
ATOM     26  C   UNL     1       2.214   8.007  18.173  0.00  0.00    +0.000 A 
ATOM     27  C   UNL     1       1.639   9.262  17.937  0.00  0.00    +0.000 A 
ATOM     28  C   UNL     1       1.004   9.951  18.967  0.00  0.00    +0.000 A 
ATOM     29  C   UNL     1       0.902   9.368  20.225  0.00  0.00    +0.000 A 
ATOM     30  C   UNL     1       1.475   8.115  20.462  0.00  0.00    +0.000 A 
ENDBRANCH  24  25
ENDBRANCH  17  24
ENDBRANCH  16  17
ENDBRANCH   1  16
TORSDOF 10
ENDMDL
MODEL 4
REMARK VINA RESULT:      -7.1      2.805      7.754
REMARK  Name = 
REMARK  12 active torsions:
REMARK  status: ('A' for Active; 'I' for Inactive)
REMARK    1  A    between atoms: C_1  and  C_2
REMARK    2  A    between atoms: C_5  and  S_6
REMARK    3  A    between atoms: S_6  and  C_7
REMARK    4  A    between atoms: C_7  and  C_8
REMARK    5  A    between atoms: C_7  and  C_9
REMARK    6  A    between atoms: C_9  and  O_10
REMARK    7  A    between atoms: C_9  and  C_11
REMARK    8  A    between atoms: C_9  and  C_13
REMARK    9  A    between atoms: C_13  and  N_14
REMARK   10  A    between atoms: N_14  and  C_15
REMARK   11  A    between atoms: C_15  and  C_16
REMARK   12  A    between atoms: C_22  and  C_24
REMARK                            x       y       z     vdW  Elec       q    Type
REMARK                         _______ _______ _______ _____ _____    ______ ____
ROOT
ATOM      1  C   UNL     1       4.370   3.936  18.306  0.00  0.00    +0.000 C 
ENDROOT
BRANCH   1   2
ATOM      2  C   UNL     1       3.389   4.692  19.287  0.00  0.00    +0.000 C 
ATOM      3  C   UNL     1       2.743   3.770  20.329  0.00  0.00    +0.000 C 
BRANCH   2   4
ATOM      4  S   UNL     1       2.067   5.547  18.294  0.00  0.00    +0.000 S 
BRANCH   4   9
ATOM      5  C   UNL     1       0.729  10.695  21.214  0.00  0.00    +0.000 C 
ATOM      6  C   UNL     1       1.175   9.458  20.492  0.00  0.00    +0.000 A 
ATOM      7  C   UNL     1       1.418   9.477  19.112  0.00  0.00    +0.000 A 
ATOM      8  C   UNL     1       1.752   8.302  18.434  0.00  0.00    +0.000 A 
ATOM      9  C   UNL     1       1.839   7.094  19.123  0.00  0.00    +0.000 A 
ATOM     10  C   UNL     1       1.612   7.078  20.503  0.00  0.00    +0.000 A 
ATOM     11  C   UNL     1       1.284   8.248  21.187  0.00  0.00    +0.000 A 
ENDBRANCH   4   9
ENDBRANCH   2   4
ENDBRANCH   1   2
BRANCH   1  12
ATOM     12  O   UNL     1       5.658   3.796  18.966  0.00  0.00    +0.000 OA
ATOM     13  H   UNL     1       5.974   2.891  18.769  0.00  0.00    +0.000 HD
ENDBRANCH   1  12
BRANCH   1  14
ATOM     14  C   UNL     1       3.878   2.505  18.044  0.00  0.00    +0.000 C 
ATOM     15  F   UNL     1       2.831   2.574  17.164  0.00  0.00    +0.000 F 
ENDBRANCH   1  14
BRANCH   1  16
ATOM     16  C   UNL     1       4.589   4.757  16.995  0.00  0.00    +0.000 C 
BRANCH  16  17
ATOM     17  N   UNL     1       5.886   5.421  16.818  0.00  0.00    +0.000 N 
ATOM     18  C   UNL     1       6.044   6.693  17.377  0.00  0.00    +0.000 C 
ATOM     19  O   UNL     1       5.041   7.264  17.839  0.00  0.00    +0.000 OA
BRANCH  18  20
ATOM     20  C   UNL     1       7.432   7.377  17.489  0.00  0.00    +0.000 C 
ATOM     21  F   UNL     1       7.417   8.687  17.841  0.00  0.00    +0.000 F 
ATOM     22  F   UNL     1       8.214   6.756  18.420  0.00  0.00    +0.000 F 
ATOM     23  F   UNL     1       8.119   7.301  16.314  0.00  0.00    +0.000 F 
ENDBRANCH  18  20
BRANCH  17  24
ATOM     24  C   UNL     1       6.941   4.618  16.186  0.00  0.00    +0.000 C 
BRANCH  24  25
ATOM     25  C   UNL     1       6.870   4.491  14.675  0.00  0.00    +0.000 A 
ATOM     26  C   UNL     1       6.043   3.582  13.999  0.00  0.00    +0.000 A 
ATOM     27  C   UNL     1       6.117   3.447  12.607  0.00  0.00    +0.000 A 
ATOM     28  C   UNL     1       7.004   4.227  11.870  0.00  0.00    +0.000 A 
ATOM     29  C   UNL     1       7.788   5.176  12.516  0.00  0.00    +0.000 A 
ATOM     30  C   UNL     1       7.714   5.313  13.906  0.00  0.00    +0.000 A 
ENDBRANCH  24  25
ENDBRANCH  17  24
ENDBRANCH  16  17
ENDBRANCH   1  16
TORSDOF 10
ENDMDL
MODEL 5
REMARK VINA RESULT:      -7.0      2.022      3.632
REMARK  Name = 
REMARK  12 active torsions:
REMARK  status: ('A' for Active; 'I' for Inactive)
REMARK    1  A    between atoms: C_1  and  C_2
REMARK    2  A    between atoms: C_5  and  S_6
REMARK    3  A    between atoms: S_6  and  C_7
REMARK    4  A    between atoms: C_7  and  C_8
REMARK    5  A    between atoms: C_7  and  C_9
REMARK    6  A    between atoms: C_9  and  O_10
REMARK    7  A    between atoms: C_9  and  C_11
REMARK    8  A    between atoms: C_9  and  C_13
REMARK    9  A    between atoms: C_13  and  N_14
REMARK   10  A    between atoms: N_14  and  C_15
REMARK   11  A    between atoms: C_15  and  C_16
REMARK   12  A    between atoms: C_22  and  C_24
REMARK                            x       y       z     vdW  Elec       q    Type
REMARK                         _______ _______ _______ _____ _____    ______ ____
ROOT
ATOM      1  C   UNL     1       5.152   4.215  17.601  0.00  0.00    +0.000 C 
ENDROOT
BRANCH   1   2
ATOM      2  C   UNL     1       6.556   4.359  16.892  0.00  0.00    +0.000 C 
ATOM      3  C   UNL     1       7.695   4.695  17.863  0.00  0.00    +0.000 C 
BRANCH   2   4
ATOM      4  S   UNL     1       6.445   5.667  15.572  0.00  0.00    +0.000 S 
BRANCH   4   9
ATOM      5  C   UNL     1       6.770   2.072  10.696  0.00  0.00    +0.000 C 
ATOM      6  C   UNL     1       6.647   3.046  11.829  0.00  0.00    +0.000 A 
ATOM      7  C   UNL     1       7.610   4.044  12.031  0.00  0.00    +0.000 A 
ATOM      8  C   UNL     1       7.531   4.894  13.137  0.00  0.00    +0.000 A 
ATOM      9  C   UNL     1       6.493   4.754  14.057  0.00  0.00    +0.000 A 
ATOM     10  C   UNL     1       5.523   3.769  13.847  0.00  0.00    +0.000 A 
ATOM     11  C   UNL     1       5.594   2.921  12.742  0.00  0.00    +0.000 A 
ENDBRANCH   4   9
ENDBRANCH   2   4
ENDBRANCH   1   2
BRANCH   1  12
ATOM     12  O   UNL     1       4.799   2.804  17.634  0.00  0.00    +0.000 OA
ATOM     13  H   UNL     1       5.258   2.422  18.409  0.00  0.00    +0.000 HD
ENDBRANCH   1  12
BRANCH   1  14
ATOM     14  C   UNL     1       5.238   4.657  19.070  0.00  0.00    +0.000 C 
ATOM     15  F   UNL     1       5.017   3.556  19.854  0.00  0.00    +0.000 F 
ENDBRANCH   1  14
BRANCH   1  16
ATOM     16  C   UNL     1       4.043   4.969  16.800  0.00  0.00    +0.000 C 
BRANCH  16  17
ATOM     17  N   UNL     1       3.094   5.791  17.562  0.00  0.00    +0.000 N 
ATOM     18  C   UNL     1       3.423   7.135  17.769  0.00  0.00    +0.000 C 
ATOM     19  O   UNL     1       4.563   7.519  17.454  0.00  0.00    +0.000 OA
BRANCH  18  20
ATOM     20  C   UNL     1       2.397   8.159  18.319  0.00  0.00    +0.000 C 
ATOM     21  F   UNL     1       2.032   7.991  19.614  0.00  0.00    +0.000 F 
ATOM     22  F   UNL     1       2.879   9.433  18.236  0.00  0.00    +0.000 F 
ATOM     23  F   UNL     1       1.244   8.147  17.589  0.00  0.00    +0.000 F 
ENDBRANCH  18  20
BRANCH  17  24
ATOM     24  C   UNL     1       1.822   5.149  17.914  0.00  0.00    +0.000 C 
BRANCH  24  25
ATOM     25  C   UNL     1       1.849   4.224  19.117  0.00  0.00    +0.000 A 
ATOM     26  C   UNL     1       1.615   2.843  19.055  0.00  0.00    +0.000 A 
ATOM     27  C   UNL     1       1.547   2.076  20.225  0.00  0.00    +0.000 A 
ATOM     28  C   UNL     1       1.727   2.673  21.470  0.00  0.00    +0.000 A 
ATOM     29  C   UNL     1       2.021   4.029  21.548  0.00  0.00    +0.000 A 
ATOM     30  C   UNL     1       2.091   4.796  20.381  0.00  0.00    +0.000 A 
ENDBRANCH  24  25
ENDBRANCH  17  24
ENDBRANCH  16  17
ENDBRANCH   1  16
TORSDOF 10
ENDMDL
MODEL 6
REMARK VINA RESULT:      -6.9      3.291      7.921
REMARK  Name = 
REMARK  12 active torsions:
REMARK  status: ('A' for Active; 'I' for Inactive)
REMARK    1  A    between atoms: C_1  and  C_2
REMARK    2  A    between atoms: C_5  and  S_6
REMARK    3  A    between atoms: S_6  and  C_7
REMARK    4  A    between atoms: C_7  and  C_8
REMARK    5  A    between atoms: C_7  and  C_9
REMARK    6  A    between atoms: C_9  and  O_10
REMARK    7  A    between atoms: C_9  and  C_11
REMARK    8  A    between atoms: C_9  and  C_13
REMARK    9  A    between atoms: C_13  and  N_14
REMARK   10  A    between atoms: N_14  and  C_15
REMARK   11  A    between atoms: C_15  and  C_16
REMARK   12  A    between atoms: C_22  and  C_24
REMARK                            x       y       z     vdW  Elec       q    Type
REMARK                         _______ _______ _______ _____ _____    ______ ____
ROOT
ATOM      1  C   UNL     1       4.165   6.405  18.388  0.00  0.00    +0.000 C 
ENDROOT
BRANCH   1   2
ATOM      2  C   UNL     1       2.973   6.866  19.317  0.00  0.00    +0.000 C 
ATOM      3  C   UNL     1       2.007   5.729  19.672  0.00  0.00    +0.000 C 
BRANCH   2   4
ATOM      4  S   UNL     1       2.044   8.246  18.482  0.00  0.00    +0.000 S 
BRANCH   4   9
ATOM      5  C   UNL     1      -1.070  10.633  23.109  0.00  0.00    +0.000 C 
ATOM      6  C   UNL     1      -0.231  10.141  21.968  0.00  0.00    +0.000 A 
ATOM      7  C   UNL     1      -0.437  10.615  20.665  0.00  0.00    +0.000 A 
ATOM      8  C   UNL     1       0.293  10.090  19.595  0.00  0.00    +0.000 A 
ATOM      9  C   UNL     1       1.231   9.082  19.813  0.00  0.00    +0.000 A 
ATOM     10  C   UNL     1       1.448   8.621  21.115  0.00  0.00    +0.000 A 
ATOM     11  C   UNL     1       0.726   9.145  22.187  0.00  0.00    +0.000 A 
ENDBRANCH   4   9
ENDBRANCH   2   4
ENDBRANCH   1   2
BRANCH   1  12
ATOM     12  O   UNL     1       4.762   7.588  17.789  0.00  0.00    +0.000 OA
ATOM     13  H   UNL     1       5.309   8.006  18.486  0.00  0.00    +0.000 HD
ENDBRANCH   1  12
BRANCH   1  14
ATOM     14  C   UNL     1       5.280   5.752  19.219  0.00  0.00    +0.000 C 
ATOM     15  F   UNL     1       6.480   6.095  18.656  0.00  0.00    +0.000 F 
ENDBRANCH   1  14
BRANCH   1  16
ATOM     16  C   UNL     1       3.649   5.490  17.231  0.00  0.00    +0.000 C 
BRANCH  16  17
ATOM     17  N   UNL     1       4.632   4.640  16.548  0.00  0.00    +0.000 N 
ATOM     18  C   UNL     1       5.467   5.247  15.604  0.00  0.00    +0.000 C 
ATOM     19  O   UNL     1       5.225   6.419  15.268  0.00  0.00    +0.000 OA
BRANCH  18  20
ATOM     20  C   UNL     1       6.707   4.525  15.017  0.00  0.00    +0.000 C 
ATOM     21  F   UNL     1       7.439   5.239  14.125  0.00  0.00    +0.000 F 
ATOM     22  F   UNL     1       7.581   4.165  16.002  0.00  0.00    +0.000 F 
ATOM     23  F   UNL     1       6.356   3.366  14.388  0.00  0.00    +0.000 F 
ENDBRANCH  18  20
BRANCH  17  24
ATOM     24  C   UNL     1       4.732   3.256  17.027  0.00  0.00    +0.000 C 
BRANCH  24  25
ATOM     25  C   UNL     1       3.647   2.798  17.984  0.00  0.00    +0.000 A 
ATOM     26  C   UNL     1       2.313   2.575  17.614  0.00  0.00    +0.000 A 
ATOM     27  C   UNL     1       1.347   2.262  18.579  0.00  0.00    +0.000 A 
ATOM     28  C   UNL     1       1.701   2.152  19.921  0.00  0.00    +0.000 A 
ATOM     29  C   UNL     1       3.029   2.310  20.298  0.00  0.00    +0.000 A 
ATOM     30  C   UNL     1       3.995   2.621  19.337  0.00  0.00    +0.000 A 
ENDBRANCH  24  25
ENDBRANCH  17  24
ENDBRANCH  16  17
ENDBRANCH   1  16
TORSDOF 10
ENDMDL
MODEL 7
REMARK VINA RESULT:      -6.9      1.040      1.649
REMARK  Name = 
REMARK  12 active torsions:
REMARK  status: ('A' for Active; 'I' for Inactive)
REMARK    1  A    between atoms: C_1  and  C_2
REMARK    2  A    between atoms: C_5  and  S_6
REMARK    3  A    between atoms: S_6  and  C_7
REMARK    4  A    between atoms: C_7  and  C_8
REMARK    5  A    between atoms: C_7  and  C_9
REMARK    6  A    between atoms: C_9  and  O_10
REMARK    7  A    between atoms: C_9  and  C_11
REMARK    8  A    between atoms: C_9  and  C_13
REMARK    9  A    between atoms: C_13  and  N_14
REMARK   10  A    between atoms: N_14  and  C_15
REMARK   11  A    between atoms: C_15  and  C_16
REMARK   12  A    between atoms: C_22  and  C_24
REMARK                            x       y       z     vdW  Elec       q    Type
REMARK                         _______ _______ _______ _____ _____    ______ ____
ROOT
ATOM      1  C   UNL     1       5.495   4.987  17.946  0.00  0.00    +0.000 C 
ENDROOT
BRANCH   1   2
ATOM      2  C   UNL     1       6.453   5.580  16.838  0.00  0.00    +0.000 C 
ATOM      3  C   UNL     1       7.238   6.810  17.311  0.00  0.00    +0.000 C 
BRANCH   2   4
ATOM      4  S   UNL     1       5.452   6.012  15.329  0.00  0.00    +0.000 S 
BRANCH   4   9
ATOM      5  C   UNL     1       7.074   2.278  10.831  0.00  0.00    +0.000 C 
ATOM      6  C   UNL     1       6.693   3.110  12.018  0.00  0.00    +0.000 A 
ATOM      7  C   UNL     1       5.421   3.001  12.596  0.00  0.00    +0.000 A 
ATOM      8  C   UNL     1       5.045   3.839  13.650  0.00  0.00    +0.000 A 
ATOM      9  C   UNL     1       5.933   4.799  14.134  0.00  0.00    +0.000 A 
ATOM     10  C   UNL     1       7.208   4.897  13.568  0.00  0.00    +0.000 A 
ATOM     11  C   UNL     1       7.590   4.060  12.520  0.00  0.00    +0.000 A 
ENDBRANCH   4   9
ENDBRANCH   2   4
ENDBRANCH   1   2
BRANCH   1  12
ATOM     12  O   UNL     1       5.871   3.601  18.180  0.00  0.00    +0.000 OA
ATOM     13  H   UNL     1       5.126   3.189  18.662  0.00  0.00    +0.000 HD
ENDBRANCH   1  12
BRANCH   1  14
ATOM     14  C   UNL     1       5.704   5.707  19.286  0.00  0.00    +0.000 C 
ATOM     15  F   UNL     1       6.753   5.105  19.928  0.00  0.00    +0.000 F 
ENDBRANCH   1  14
BRANCH   1  16
ATOM     16  C   UNL     1       4.009   5.006  17.465  0.00  0.00    +0.000 C 
BRANCH  16  17
ATOM     17  N   UNL     1       2.966   4.800  18.477  0.00  0.00    +0.000 N 
ATOM     18  C   UNL     1       2.128   3.689  18.326  0.00  0.00    +0.000 C 
ATOM     19  O   UNL     1       2.194   3.039  17.268  0.00  0.00    +0.000 OA
BRANCH  18  20
ATOM     20  C   UNL     1       1.175   3.217  19.454  0.00  0.00    +0.000 C 
ATOM     21  F   UNL     1       0.468   4.194  20.077  0.00  0.00    +0.000 F 
ATOM     22  F   UNL     1       0.245   2.338  18.978  0.00  0.00    +0.000 F 
ATOM     23  F   UNL     1       1.853   2.550  20.432  0.00  0.00    +0.000 F 
ENDBRANCH  18  20
BRANCH  17  24
ATOM     24  C   UNL     1       2.995   5.709  19.630  0.00  0.00    +0.000 C 
BRANCH  24  25
ATOM     25  C   UNL     1       2.280   7.036  19.453  0.00  0.00    +0.000 A 
ATOM     26  C   UNL     1       2.263   7.769  18.258  0.00  0.00    +0.000 A 
ATOM     27  C   UNL     1       1.676   9.040  18.207  0.00  0.00    +0.000 A 
ATOM     28  C   UNL     1       1.085   9.588  19.341  0.00  0.00    +0.000 A 
ATOM     29  C   UNL     1       1.038   8.851  20.519  0.00  0.00    +0.000 A 
ATOM     30  C   UNL     1       1.623   7.583  20.571  0.00  0.00    +0.000 A 
ENDBRANCH  24  25
ENDBRANCH  17  24
ENDBRANCH  16  17
ENDBRANCH   1  16
TORSDOF 10
ENDMDL
MODEL 8
REMARK VINA RESULT:      -6.9      2.604      7.373
REMARK  Name = 
REMARK  12 active torsions:
REMARK  status: ('A' for Active; 'I' for Inactive)
REMARK    1  A    between atoms: C_1  and  C_2
REMARK    2  A    between atoms: C_5  and  S_6
REMARK    3  A    between atoms: S_6  and  C_7
REMARK    4  A    between atoms: C_7  and  C_8
REMARK    5  A    between atoms: C_7  and  C_9
REMARK    6  A    between atoms: C_9  and  O_10
REMARK    7  A    between atoms: C_9  and  C_11
REMARK    8  A    between atoms: C_9  and  C_13
REMARK    9  A    between atoms: C_13  and  N_14
REMARK   10  A    between atoms: N_14  and  C_15
REMARK   11  A    between atoms: C_15  and  C_16
REMARK   12  A    between atoms: C_22  and  C_24
REMARK                            x       y       z     vdW  Elec       q    Type
REMARK                         _______ _______ _______ _____ _____    ______ ____
ROOT
ATOM      1  C   UNL     1       4.446   3.338  18.457  0.00  0.00    +0.000 C 
ENDROOT
BRANCH   1   2
ATOM      2  C   UNL     1       3.863   4.683  19.048  0.00  0.00    +0.000 C 
ATOM      3  C   UNL     1       3.339   4.538  20.481  0.00  0.00    +0.000 C 
BRANCH   2   4
ATOM      4  S   UNL     1       2.503   5.301  17.937  0.00  0.00    +0.000 S 
BRANCH   4   9
ATOM      5  C   UNL     1       0.869  10.772  19.991  0.00  0.00    +0.000 C 
ATOM      6  C   UNL     1       1.387   9.459  19.484  0.00  0.00    +0.000 A 
ATOM      7  C   UNL     1       1.718   9.286  18.134  0.00  0.00    +0.000 A 
ATOM      8  C   UNL     1       2.120   8.037  17.655  0.00  0.00    +0.000 A 
ATOM      9  C   UNL     1       2.189   6.944  18.517  0.00  0.00    +0.000 A 
ATOM     10  C   UNL     1       1.874   7.119  19.869  0.00  0.00    +0.000 A 
ATOM     11  C   UNL     1       1.478   8.365  20.353  0.00  0.00    +0.000 A 
ENDBRANCH   4   9
ENDBRANCH   2   4
ENDBRANCH   1   2
BRANCH   1  12
ATOM     12  O   UNL     1       5.001   2.560  19.553  0.00  0.00    +0.000 OA
ATOM     13  H   UNL     1       4.280   1.981  19.875  0.00  0.00    +0.000 HD
ENDBRANCH   1  12
BRANCH   1  14
ATOM     14  C   UNL     1       3.323   2.476  17.860  0.00  0.00    +0.000 C 
ATOM     15  F   UNL     1       2.969   1.541  18.797  0.00  0.00    +0.000 F 
ENDBRANCH   1  14
BRANCH   1  16
ATOM     16  C   UNL     1       5.598   3.629  17.443  0.00  0.00    +0.000 C 
BRANCH  16  17
ATOM     17  N   UNL     1       5.950   5.033  17.199  0.00  0.00    +0.000 N 
ATOM     18  C   UNL     1       6.810   5.653  18.112  0.00  0.00    +0.000 C 
ATOM     19  O   UNL     1       7.092   5.049  19.162  0.00  0.00    +0.000 OA
BRANCH  18  20
ATOM     20  C   UNL     1       7.461   7.031  17.825  0.00  0.00    +0.000 C 
ATOM     21  F   UNL     1       8.395   7.440  18.720  0.00  0.00    +0.000 F 
ATOM     22  F   UNL     1       8.088   7.037  16.612  0.00  0.00    +0.000 F 
ATOM     23  F   UNL     1       6.525   8.020  17.766  0.00  0.00    +0.000 F 
ENDBRANCH  18  20
BRANCH  17  24
ATOM     24  C   UNL     1       5.471   5.609  15.936  0.00  0.00    +0.000 C 
BRANCH  24  25
ATOM     25  C   UNL     1       6.036   5.002  14.666  0.00  0.00    +0.000 A 
ATOM     26  C   UNL     1       7.279   5.343  14.115  0.00  0.00    +0.000 A 
ATOM     27  C   UNL     1       7.681   4.821  12.879  0.00  0.00    +0.000 A 
ATOM     28  C   UNL     1       6.856   3.939  12.185  0.00  0.00    +0.000 A 
ATOM     29  C   UNL     1       5.648   3.541  12.745  0.00  0.00    +0.000 A 
ATOM     30  C   UNL     1       5.246   4.061  13.979  0.00  0.00    +0.000 A 
ENDBRANCH  24  25
ENDBRANCH  17  24
ENDBRANCH  16  17
ENDBRANCH   1  16
TORSDOF 10
ENDMDL
MODEL 9
REMARK VINA RESULT:      -6.8      3.277      7.897
REMARK  Name = 
REMARK  12 active torsions:
REMARK  status: ('A' for Active; 'I' for Inactive)
REMARK    1  A    between atoms: C_1  and  C_2
REMARK    2  A    between atoms: C_5  and  S_6
REMARK    3  A    between atoms: S_6  and  C_7
REMARK    4  A    between atoms: C_7  and  C_8
REMARK    5  A    between atoms: C_7  and  C_9
REMARK    6  A    between atoms: C_9  and  O_10
REMARK    7  A    between atoms: C_9  and  C_11
REMARK    8  A    between atoms: C_9  and  C_13
REMARK    9  A    between atoms: C_13  and  N_14
REMARK   10  A    between atoms: N_14  and  C_15
REMARK   11  A    between atoms: C_15  and  C_16
REMARK   12  A    between atoms: C_22  and  C_24
REMARK                            x       y       z     vdW  Elec       q    Type
REMARK                         _______ _______ _______ _____ _____    ______ ____
ROOT
ATOM      1  C   UNL     1       4.188   6.381  18.398  0.00  0.00    +0.000 C 
ENDROOT
BRANCH   1   2
ATOM      2  C   UNL     1       3.015   6.876  19.333  0.00  0.00    +0.000 C 
ATOM      3  C   UNL     1       2.025   5.765  19.702  0.00  0.00    +0.000 C 
BRANCH   2   4
ATOM      4  S   UNL     1       2.114   8.274  18.498  0.00  0.00    +0.000 S 
BRANCH   4   9
ATOM      5  C   UNL     1      -1.036  11.095  22.848  0.00  0.00    +0.000 C 
ATOM      6  C   UNL     1      -0.337  10.309  21.780  0.00  0.00    +0.000 A 
ATOM      7  C   UNL     1       0.516   9.246  22.108  0.00  0.00    +0.000 A 
ATOM      8  C   UNL     1       1.226   8.573  21.111  0.00  0.00    +0.000 A 
ATOM      9  C   UNL     1       1.100   8.956  19.777  0.00  0.00    +0.000 A 
ATOM     10  C   UNL     1       0.236  10.007  19.448  0.00  0.00    +0.000 A 
ATOM     11  C   UNL     1      -0.480  10.679  20.438  0.00  0.00    +0.000 A 
ENDBRANCH   4   9
ENDBRANCH   2   4
ENDBRANCH   1   2
BRANCH   1  12
ATOM     12  O   UNL     1       4.812   7.547  17.791  0.00  0.00    +0.000 OA
ATOM     13  H   UNL     1       5.735   7.568  18.115  0.00  0.00    +0.000 HD
ENDBRANCH   1  12
BRANCH   1  14
ATOM     14  C   UNL     1       5.291   5.702  19.224  0.00  0.00    +0.000 C 
ATOM     15  F   UNL     1       6.500   6.064  18.690  0.00  0.00    +0.000 F 
ENDBRANCH   1  14
BRANCH   1  16
ATOM     16  C   UNL     1       3.641   5.477  17.248  0.00  0.00    +0.000 C 
BRANCH  16  17
ATOM     17  N   UNL     1       4.594   4.591  16.568  0.00  0.00    +0.000 N 
ATOM     18  C   UNL     1       5.429   5.159  15.600  0.00  0.00    +0.000 C 
ATOM     19  O   UNL     1       5.209   6.329  15.244  0.00  0.00    +0.000 OA
BRANCH  18  20
ATOM     20  C   UNL     1       6.643   4.397  15.010  0.00  0.00    +0.000 C 
ATOM     21  F   UNL     1       7.585   4.004  15.905  0.00  0.00    +0.000 F 
ATOM     22  F   UNL     1       6.247   3.257  14.371  0.00  0.00    +0.000 F 
ATOM     23  F   UNL     1       7.292   5.144  14.072  0.00  0.00    +0.000 F 
ENDBRANCH  18  20
BRANCH  17  24
ATOM     24  C   UNL     1       4.670   3.215  17.074  0.00  0.00    +0.000 C 
BRANCH  24  25
ATOM     25  C   UNL     1       3.553   2.781  18.006  0.00  0.00    +0.000 A 
ATOM     26  C   UNL     1       2.208   2.669  17.626  0.00  0.00    +0.000 A 
ATOM     27  C   UNL     1       1.221   2.372  18.573  0.00  0.00    +0.000 A 
ATOM     28  C   UNL     1       1.563   2.166  19.907  0.00  0.00    +0.000 A 
ATOM     29  C   UNL     1       2.898   2.213  20.291  0.00  0.00    +0.000 A 
ATOM     30  C   UNL     1       3.885   2.509  19.347  0.00  0.00    +0.000 A 
ENDBRANCH  24  25
ENDBRANCH  17  24
ENDBRANCH  16  17
ENDBRANCH   1  16
TORSDOF 10
ENDMDL
