MODEL 1
REMARK VINA RESULT:      -5.8      0.000      0.000
REMARK  Name = 
REMARK  7 active torsions:
REMARK  status: ('A' for Active; 'I' for Inactive)
REMARK    1  A    between atoms: C_1  and  N_2
REMARK    2  A    between atoms: N_2  and  C_3
REMARK    3  A    between atoms: N_2  and  C_4
REMARK    4  A    between atoms: C_4  and  C_5
REMARK    5  A    between atoms: C_5  and  S_6
REMARK    6  A    between atoms: S_6  and  C_9
REMARK    7  A    between atoms: C_9  and  C_10
REMARK                            x       y       z     vdW  Elec       q    Type
REMARK                         _______ _______ _______ _____ _____    ______ ____
ROOT
ATOM      1  S   UNL     1       6.505   5.709  16.206  0.00  0.00    +0.000 S 
ATOM      2  O   UNL     1       7.504   6.741  16.411  0.00  0.00    +0.000 OA
ATOM      3  O   UNL     1       5.114   6.050  15.955  0.00  0.00    +0.000 OA
ENDROOT
BRANCH   1   4
ATOM      4  C   UNL     1       7.062   4.710  14.834  0.00  0.00    +0.000 C 
BRANCH   4   5
ATOM      5  C   UNL     1       5.854   4.138  14.091  0.00  0.00    +0.000 C 
BRANCH   5   7
ATOM      6  C   UNL     1       4.940   3.329  12.024  0.00  0.00    +0.000 C 
ATOM      7  N   UNL     1       6.175   3.473  12.809  0.00  0.00    +0.000 NA
ATOM      8  C   UNL     1       7.158   4.218  12.020  0.00  0.00    +0.000 C 
ENDBRANCH   5   7
ENDBRANCH   4   5
ENDBRANCH   1   4
BRANCH   1   9
ATOM      9  C   UNL     1       6.579   4.568  17.587  0.00  0.00    +0.000 C 
BRANCH   9  10
ATOM     10  C   UNL     1       5.196   4.414  18.170  0.00  0.00    +0.000 A 
ATOM     11  C   UNL     1       4.763   5.256  19.205  0.00  0.00    +0.000 A 
ATOM     12  C   UNL     1       3.504   5.080  19.785  0.00  0.00    +0.000 A 
ATOM     13  C   UNL     1       2.671   4.059  19.334  0.00  0.00    +0.000 A 
ATOM     14 BR   UNL     1       0.983   3.798  20.145  0.00  0.00    +0.000 Br
ATOM     15  C   UNL     1       3.080   3.220  18.301  0.00  0.00    +0.000 A 
ATOM     16  C   UNL     1       4.338   3.398  17.719  0.00  0.00    +0.000 A 
ENDBRANCH   9  10
ENDBRANCH   1   9
TORSDOF 5
ENDMDL
MODEL 2
REMARK VINA RESULT:      -5.6      4.043      6.249
REMARK  Name = 
REMARK  7 active torsions:
REMARK  status: ('A' for Active; 'I' for Inactive)
REMARK    1  A    between atoms: C_1  and  N_2
REMARK    2  A    between atoms: N_2  and  C_3
REMARK    3  A    between atoms: N_2  and  C_4
REMARK    4  A    between atoms: C_4  and  C_5
REMARK    5  A    between atoms: C_5  and  S_6
REMARK    6  A    between atoms: S_6  and  C_9
REMARK    7  A    between atoms: C_9  and  C_10
REMARK                            x       y       z     vdW  Elec       q    Type
REMARK                         _______ _______ _______ _____ _____    ______ ____
ROOT
ATOM      1  S   UNL     1       2.485   6.265  19.014  0.00  0.00    +0.000 S 
ATOM      2  O   UNL     1       1.862   5.530  17.929  0.00  0.00    +0.000 OA
ATOM      3  O   UNL     1       2.348   7.708  19.119  0.00  0.00    +0.000 OA
ENDROOT
BRANCH   1   4
ATOM      4  C   UNL     1       1.873   5.563  20.538  0.00  0.00    +0.000 C 
BRANCH   4   5
ATOM      5  C   UNL     1       1.159   4.243  20.245  0.00  0.00    +0.000 C 
BRANCH   5   7
ATOM      6  C   UNL     1       1.845   2.398  21.619  0.00  0.00    +0.000 C 
ATOM      7  N   UNL     1       2.023   3.045  20.310  0.00  0.00    +0.000 NA
ATOM      8  C   UNL     1       1.721   2.076  19.254  0.00  0.00    +0.000 C 
ENDBRANCH   5   7
ENDBRANCH   4   5
ENDBRANCH   1   4
BRANCH   1   9
ATOM      9  C   UNL     1       4.228   5.846  19.052  0.00  0.00    +0.000 C 
BRANCH   9  10
ATOM     10  C   UNL     1       4.649   5.378  17.682  0.00  0.00    +0.000 A 
ATOM     11  C   UNL     1       4.831   4.011  17.421  0.00  0.00    +0.000 A 
ATOM     12  C   UNL     1       5.276   3.579  16.169  0.00  0.00    +0.000 A 
ATOM     13  C   UNL     1       5.541   4.512  15.169  0.00  0.00    +0.000 A 
ATOM     14 BR   UNL     1       6.178   3.928  13.487  0.00  0.00    +0.000 Br
ATOM     15  C   UNL     1       5.355   5.871  15.406  0.00  0.00    +0.000 A 
ATOM     16  C   UNL     1       4.909   6.303  16.658  0.00  0.00    +0.000 A 
ENDBRANCH   9  10
ENDBRANCH   1   9
TORSDOF 5
ENDMDL
MODEL 3
REMARK VINA RESULT:      -5.6      4.355      6.149
REMARK  Name = 
REMARK  7 active torsions:
REMARK  status: ('A' for Active; 'I' for Inactive)
REMARK    1  A    between atoms: C_1  and  N_2
REMARK    2  A    between atoms: N_2  and  C_3
REMARK    3  A    between atoms: N_2  and  C_4
REMARK    4  A    between atoms: C_4  and  C_5
REMARK    5  A    between atoms: C_5  and  S_6
REMARK    6  A    between atoms: S_6  and  C_9
REMARK    7  A    between atoms: C_9  and  C_10
REMARK                            x       y       z     vdW  Elec       q    Type
REMARK                         _______ _______ _______ _____ _____    ______ ____
ROOT
ATOM      1  S   UNL     1       3.848   3.007  18.158  0.00  0.00    +0.000 S 
ATOM      2  O   UNL     1       4.624   3.412  19.315  0.00  0.00    +0.000 OA
ATOM      3  O   UNL     1       3.444   1.623  17.971  0.00  0.00    +0.000 OA
ENDROOT
BRANCH   1   4
ATOM      4  C   UNL     1       2.362   3.998  18.155  0.00  0.00    +0.000 C 
BRANCH   4   5
ATOM      5  C   UNL     1       2.225   4.723  19.493  0.00  0.00    +0.000 C 
BRANCH   5   7
ATOM      6  C   UNL     1       0.643   2.945  19.804  0.00  0.00    +0.000 C 
ATOM      7  N   UNL     1       1.341   4.053  20.472  0.00  0.00    +0.000 NA
ATOM      8  C   UNL     1       2.074   3.529  21.626  0.00  0.00    +0.000 C 
ENDBRANCH   5   7
ENDBRANCH   4   5
ENDBRANCH   1   4
BRANCH   1   9
ATOM      9  C   UNL     1       4.702   3.563  16.682  0.00  0.00    +0.000 C 
BRANCH   9  10
ATOM     10  C   UNL     1       5.504   4.796  17.017  0.00  0.00    +0.000 A 
ATOM     11  C   UNL     1       4.968   6.074  16.801  0.00  0.00    +0.000 A 
ATOM     12  C   UNL     1       5.729   7.217  17.057  0.00  0.00    +0.000 A 
ATOM     13  C   UNL     1       7.033   7.089  17.529  0.00  0.00    +0.000 A 
ATOM     14 BR   UNL     1       8.076   8.635  17.839  0.00  0.00    +0.000 Br
ATOM     15  C   UNL     1       7.579   5.829  17.759  0.00  0.00    +0.000 A 
ATOM     16  C   UNL     1       6.816   4.686  17.505  0.00  0.00    +0.000 A 
ENDBRANCH   9  10
ENDBRANCH   1   9
TORSDOF 5
ENDMDL
MODEL 4
REMARK VINA RESULT:      -5.5      4.027      6.241
REMARK  Name = 
REMARK  7 active torsions:
REMARK  status: ('A' for Active; 'I' for Inactive)
REMARK    1  A    between atoms: C_1  and  N_2
REMARK    2  A    between atoms: N_2  and  C_3
REMARK    3  A    between atoms: N_2  and  C_4
REMARK    4  A    between atoms: C_4  and  C_5
REMARK    5  A    between atoms: C_5  and  S_6
REMARK    6  A    between atoms: S_6  and  C_9
REMARK    7  A    between atoms: C_9  and  C_10
REMARK                            x       y       z     vdW  Elec       q    Type
REMARK                         _______ _______ _______ _____ _____    ______ ____
ROOT
ATOM      1  S   UNL     1       2.649   6.162  18.836  0.00  0.00    +0.000 S 
ATOM      2  O   UNL     1       2.122   5.240  17.847  0.00  0.00    +0.000 OA
ATOM      3  O   UNL     1       2.315   7.576  18.796  0.00  0.00    +0.000 OA
ENDROOT
BRANCH   1   4
ATOM      4  C   UNL     1       2.156   5.545  20.438  0.00  0.00    +0.000 C 
BRANCH   4   5
ATOM      5  C   UNL     1       1.229   4.342  20.263  0.00  0.00    +0.000 C 
BRANCH   5   7
ATOM      6  C   UNL     1       1.576   2.498  21.760  0.00  0.00    +0.000 C 
ATOM      7  N   UNL     1       1.886   3.027  20.423  0.00  0.00    +0.000 NA
ATOM      8  C   UNL     1       1.457   2.057  19.414  0.00  0.00    +0.000 C 
ENDBRANCH   5   7
ENDBRANCH   4   5
ENDBRANCH   1   4
BRANCH   1   9
ATOM      9  C   UNL     1       4.434   5.991  18.875  0.00  0.00    +0.000 C 
BRANCH   9  10
ATOM     10  C   UNL     1       4.906   5.488  17.533  0.00  0.00    +0.000 A 
ATOM     11  C   UNL     1       4.952   6.348  16.426  0.00  0.00    +0.000 A 
ATOM     12  C   UNL     1       5.334   5.871  15.170  0.00  0.00    +0.000 A 
ATOM     13  C   UNL     1       5.673   4.530  15.013  0.00  0.00    +0.000 A 
ATOM     14 BR   UNL     1       6.155   3.877  13.305  0.00  0.00    +0.000 Br
ATOM     15  C   UNL     1       5.644   3.663  16.102  0.00  0.00    +0.000 A 
ATOM     16  C   UNL     1       5.263   4.141  17.359  0.00  0.00    +0.000 A 
ENDBRANCH   9  10
ENDBRANCH   1   9
TORSDOF 5
ENDMDL
MODEL 5
REMARK VINA RESULT:      -5.4      1.141      1.418
REMARK  Name = 
REMARK  7 active torsions:
REMARK  status: ('A' for Active; 'I' for Inactive)
REMARK    1  A    between atoms: C_1  and  N_2
REMARK    2  A    between atoms: N_2  and  C_3
REMARK    3  A    between atoms: N_2  and  C_4
REMARK    4  A    between atoms: C_4  and  C_5
REMARK    5  A    between atoms: C_5  and  S_6
REMARK    6  A    between atoms: S_6  and  C_9
REMARK    7  A    between atoms: C_9  and  C_10
REMARK                            x       y       z     vdW  Elec       q    Type
REMARK                         _______ _______ _______ _____ _____    ______ ____
ROOT
ATOM      1  S   UNL     1       6.428   4.995  15.798  0.00  0.00    +0.000 S 
ATOM      2  O   UNL     1       7.702   4.937  16.490  0.00  0.00    +0.000 OA
ATOM      3  O   UNL     1       5.534   6.128  15.964  0.00  0.00    +0.000 OA
ENDROOT
BRANCH   1   4
ATOM      4  C   UNL     1       6.776   4.845  14.052  0.00  0.00    +0.000 C 
BRANCH   4   5
ATOM      5  C   UNL     1       6.234   3.514  13.532  0.00  0.00    +0.000 C 
BRANCH   5   7
ATOM      6  C   UNL     1       6.806   2.309  11.536  0.00  0.00    +0.000 C 
ATOM      7  N   UNL     1       6.048   3.452  12.066  0.00  0.00    +0.000 NA
ATOM      8  C   UNL     1       4.642   3.311  11.682  0.00  0.00    +0.000 C 
ENDBRANCH   5   7
ENDBRANCH   4   5
ENDBRANCH   1   4
BRANCH   1   9
ATOM      9  C   UNL     1       5.523   3.488  16.155  0.00  0.00    +0.000 C 
BRANCH   9  10
ATOM     10  C   UNL     1       4.507   3.772  17.234  0.00  0.00    +0.000 A 
ATOM     11  C   UNL     1       4.915   3.960  18.563  0.00  0.00    +0.000 A 
ATOM     12  C   UNL     1       3.973   4.167  19.574  0.00  0.00    +0.000 A 
ATOM     13  C   UNL     1       2.616   4.186  19.261  0.00  0.00    +0.000 A 
ATOM     14 BR   UNL     1       1.340   4.428  20.635  0.00  0.00    +0.000 Br
ATOM     15  C   UNL     1       2.193   4.012  17.946  0.00  0.00    +0.000 A 
ATOM     16  C   UNL     1       3.136   3.807  16.935  0.00  0.00    +0.000 A 
ENDBRANCH   9  10
ENDBRANCH   1   9
TORSDOF 5
ENDMDL
MODEL 6
REMARK VINA RESULT:      -5.4      1.419      1.870
REMARK  Name = 
REMARK  7 active torsions:
REMARK  status: ('A' for Active; 'I' for Inactive)
REMARK    1  A    between atoms: C_1  and  N_2
REMARK    2  A    between atoms: N_2  and  C_3
REMARK    3  A    between atoms: N_2  and  C_4
REMARK    4  A    between atoms: C_4  and  C_5
REMARK    5  A    between atoms: C_5  and  S_6
REMARK    6  A    between atoms: S_6  and  C_9
REMARK    7  A    between atoms: C_9  and  C_10
REMARK                            x       y       z     vdW  Elec       q    Type
REMARK                         _______ _______ _______ _____ _____    ______ ____
ROOT
ATOM      1  S   UNL     1       6.825   5.542  16.750  0.00  0.00    +0.000 S 
ATOM      2  O   UNL     1       7.370   4.297  17.258  0.00  0.00    +0.000 OA
ATOM      3  O   UNL     1       7.692   6.578  16.213  0.00  0.00    +0.000 OA
ENDROOT
BRANCH   1   4
ATOM      4  C   UNL     1       5.655   5.114  15.470  0.00  0.00    +0.000 C 
BRANCH   4   5
ATOM      5  C   UNL     1       6.230   3.996  14.600  0.00  0.00    +0.000 C 
BRANCH   5   7
ATOM      6  C   UNL     1       7.685   5.044  13.005  0.00  0.00    +0.000 C 
ATOM      7  N   UNL     1       6.401   4.348  13.174  0.00  0.00    +0.000 NA
ATOM      8  C   UNL     1       6.375   3.175  12.298  0.00  0.00    +0.000 C 
ENDBRANCH   5   7
ENDBRANCH   4   5
ENDBRANCH   1   4
BRANCH   1   9
ATOM      9  C   UNL     1       5.782   6.262  18.019  0.00  0.00    +0.000 C 
BRANCH   9  10
ATOM     10  C   UNL     1       4.602   5.353  18.256  0.00  0.00    +0.000 A 
ATOM     11  C   UNL     1       4.775   4.110  18.882  0.00  0.00    +0.000 A 
ATOM     12  C   UNL     1       3.693   3.242  19.052  0.00  0.00    +0.000 A 
ATOM     13  C   UNL     1       2.431   3.614  18.596  0.00  0.00    +0.000 A 
ATOM     14 BR   UNL     1       0.975   2.423  18.793  0.00  0.00    +0.000 Br
ATOM     15  C   UNL     1       2.237   4.848  17.982  0.00  0.00    +0.000 A 
ATOM     16  C   UNL     1       3.319   5.716  17.814  0.00  0.00    +0.000 A 
ENDBRANCH   9  10
ENDBRANCH   1   9
TORSDOF 5
ENDMDL
MODEL 7
REMARK VINA RESULT:      -5.4      1.430      1.819
REMARK  Name = 
REMARK  7 active torsions:
REMARK  status: ('A' for Active; 'I' for Inactive)
REMARK    1  A    between atoms: C_1  and  N_2
REMARK    2  A    between atoms: N_2  and  C_3
REMARK    3  A    between atoms: N_2  and  C_4
REMARK    4  A    between atoms: C_4  and  C_5
REMARK    5  A    between atoms: C_5  and  S_6
REMARK    6  A    between atoms: S_6  and  C_9
REMARK    7  A    between atoms: C_9  and  C_10
REMARK                            x       y       z     vdW  Elec       q    Type
REMARK                         _______ _______ _______ _____ _____    ______ ____
ROOT
ATOM      1  S   UNL     1       7.093   5.622  17.166  0.00  0.00    +0.000 S 
ATOM      2  O   UNL     1       7.870   4.408  17.338  0.00  0.00    +0.000 OA
ATOM      3  O   UNL     1       7.710   6.845  16.679  0.00  0.00    +0.000 OA
ENDROOT
BRANCH   1   4
ATOM      4  C   UNL     1       5.750   5.228  16.056  0.00  0.00    +0.000 C 
BRANCH   4   5
ATOM      5  C   UNL     1       5.955   3.827  15.479  0.00  0.00    +0.000 C 
BRANCH   5   7
ATOM      6  C   UNL     1       5.284   3.728  13.176  0.00  0.00    +0.000 C 
ATOM      7  N   UNL     1       6.440   3.800  14.082  0.00  0.00    +0.000 NA
ATOM      8  C   UNL     1       7.242   4.977  13.741  0.00  0.00    +0.000 C 
ENDBRANCH   5   7
ENDBRANCH   4   5
ENDBRANCH   1   4
BRANCH   1   9
ATOM      9  C   UNL     1       6.248   5.975  18.707  0.00  0.00    +0.000 C 
BRANCH   9  10
ATOM     10  C   UNL     1       4.982   5.156  18.770  0.00  0.00    +0.000 A 
ATOM     11  C   UNL     1       5.029   3.801  19.126  0.00  0.00    +0.000 A 
ATOM     12  C   UNL     1       3.866   3.026  19.130  0.00  0.00    +0.000 A 
ATOM     13  C   UNL     1       2.649   3.604  18.777  0.00  0.00    +0.000 A 
ATOM     14 BR   UNL     1       1.082   2.546  18.746  0.00  0.00    +0.000 Br
ATOM     15  C   UNL     1       2.582   4.950  18.430  0.00  0.00    +0.000 A 
ATOM     16  C   UNL     1       3.745   5.725  18.428  0.00  0.00    +0.000 A 
ENDBRANCH   9  10
ENDBRANCH   1   9
TORSDOF 5
ENDMDL
MODEL 8
REMARK VINA RESULT:      -5.4      4.079      6.104
REMARK  Name = 
REMARK  7 active torsions:
REMARK  status: ('A' for Active; 'I' for Inactive)
REMARK    1  A    between atoms: C_1  and  N_2
REMARK    2  A    between atoms: N_2  and  C_3
REMARK    3  A    between atoms: N_2  and  C_4
REMARK    4  A    between atoms: C_4  and  C_5
REMARK    5  A    between atoms: C_5  and  S_6
REMARK    6  A    between atoms: S_6  and  C_9
REMARK    7  A    between atoms: C_9  and  C_10
REMARK                            x       y       z     vdW  Elec       q    Type
REMARK                         _______ _______ _______ _____ _____    ______ ____
ROOT
ATOM      1  S   UNL     1       2.524   5.960  19.176  0.00  0.00    +0.000 S 
ATOM      2  O   UNL     1       2.590   6.769  17.973  0.00  0.00    +0.000 OA
ATOM      3  O   UNL     1       1.989   6.500  20.414  0.00  0.00    +0.000 OA
ENDROOT
BRANCH   1   4
ATOM      4  C   UNL     1       1.566   4.506  18.774  0.00  0.00    +0.000 C 
BRANCH   4   5
ATOM      5  C   UNL     1       0.917   3.952  20.042  0.00  0.00    +0.000 C 
BRANCH   5   7
ATOM      6  C   UNL     1       2.199   2.031  19.390  0.00  0.00    +0.000 C 
ATOM      7  N   UNL     1       1.456   2.652  20.496  0.00  0.00    +0.000 NA
ATOM      8  C   UNL     1       2.343   2.784  21.653  0.00  0.00    +0.000 C 
ENDBRANCH   5   7
ENDBRANCH   4   5
ENDBRANCH   1   4
BRANCH   1   9
ATOM      9  C   UNL     1       4.155   5.288  19.496  0.00  0.00    +0.000 C 
BRANCH   9  10
ATOM     10  C   UNL     1       4.883   5.125  18.184  0.00  0.00    +0.000 A 
ATOM     11  C   UNL     1       5.798   6.097  17.754  0.00  0.00    +0.000 A 
ATOM     12  C   UNL     1       6.432   5.977  16.514  0.00  0.00    +0.000 A 
ATOM     13  C   UNL     1       6.152   4.884  15.697  0.00  0.00    +0.000 A 
ATOM     14 BR   UNL     1       6.981   4.742  14.004  0.00  0.00    +0.000 Br
ATOM     15  C   UNL     1       5.254   3.904  16.113  0.00  0.00    +0.000 A 
ATOM     16  C   UNL     1       4.623   4.024  17.354  0.00  0.00    +0.000 A 
ENDBRANCH   9  10
ENDBRANCH   1   9
TORSDOF 5
ENDMDL
MODEL 9
REMARK VINA RESULT:      -5.3      0.988      1.034
REMARK  Name = 
REMARK  7 active torsions:
REMARK  status: ('A' for Active; 'I' for Inactive)
REMARK    1  A    between atoms: C_1  and  N_2
REMARK    2  A    between atoms: N_2  and  C_3
REMARK    3  A    between atoms: N_2  and  C_4
REMARK    4  A    between atoms: C_4  and  C_5
REMARK    5  A    between atoms: C_5  and  S_6
REMARK    6  A    between atoms: S_6  and  C_9
REMARK    7  A    between atoms: C_9  and  C_10
REMARK                            x       y       z     vdW  Elec       q    Type
REMARK                         _______ _______ _______ _____ _____    ______ ____
ROOT
ATOM      1  S   UNL     1       6.529   5.140  15.418  0.00  0.00    +0.000 S 
ATOM      2  O   UNL     1       7.818   5.505  14.862  0.00  0.00    +0.000 OA
ATOM      3  O   UNL     1       5.419   6.079  15.418  0.00  0.00    +0.000 OA
ENDROOT
BRANCH   1   4
ATOM      4  C   UNL     1       5.984   3.675  14.555  0.00  0.00    +0.000 C 
BRANCH   4   5
ATOM      5  C   UNL     1       5.778   3.997  13.075  0.00  0.00    +0.000 C 
BRANCH   5   7
ATOM      6  C   UNL     1       4.369   3.166  11.318  0.00  0.00    +0.000 C 
ATOM      7  N   UNL     1       5.477   2.826  12.223  0.00  0.00    +0.000 NA
ATOM      8  C   UNL     1       6.629   2.397  11.428  0.00  0.00    +0.000 C 
ENDBRANCH   5   7
ENDBRANCH   4   5
ENDBRANCH   1   4
BRANCH   1   9
ATOM      9  C   UNL     1       6.783   4.547  17.091  0.00  0.00    +0.000 C 
BRANCH   9  10
ATOM     10  C   UNL     1       5.458   4.536  17.813  0.00  0.00    +0.000 A 
ATOM     11  C   UNL     1       5.211   5.434  18.862  0.00  0.00    +0.000 A 
ATOM     12  C   UNL     1       4.007   5.389  19.569  0.00  0.00    +0.000 A 
ATOM     13  C   UNL     1       3.042   4.443  19.231  0.00  0.00    +0.000 A 
ATOM     14 BR   UNL     1       1.429   4.358  20.213  0.00  0.00    +0.000 Br
ATOM     15  C   UNL     1       3.265   3.550  18.187  0.00  0.00    +0.000 A 
ATOM     16  C   UNL     1       4.468   3.597  17.478  0.00  0.00    +0.000 A 
ENDBRANCH   9  10
ENDBRANCH   1   9
TORSDOF 5
ENDMDL
