MODEL 1
REMARK VINA RESULT:      -6.8      0.000      0.000
REMARK  Name = 
REMARK  11 active torsions:
REMARK  status: ('A' for Active; 'I' for Inactive)
REMARK    1  A    between atoms: C_1  and  C_2
REMARK    2  A    between atoms: C_2  and  O_3
REMARK    3  A    between atoms: O_3  and  C_4
REMARK    4  A    between atoms: C_4  and  C_6
REMARK    5  A    between atoms: C_6  and  N_7
REMARK    6  A    between atoms: N_7  and  C_8
REMARK    7  A    between atoms: C_8  and  C_9
REMARK    8  A    between atoms: C_12  and  C_14
REMARK    9  A    between atoms: C_14  and  C_15
REMARK   10  A    between atoms: C_15  and  N_16
REMARK   11  A    between atoms: C_18  and  C_19
REMARK                            x       y       z     vdW  Elec       q    Type
REMARK                         _______ _______ _______ _____ _____    ______ ____
ROOT
ATOM      1  N   UNL     1       5.992   5.364  17.051  0.00  0.00    +0.000 N 
ATOM      2  C   UNL     1       5.095   4.849  17.978  0.00  0.00    +0.000 C 
ATOM      3  O   UNL     1       4.888   3.637  18.073  0.00  0.00    +0.000 OA
ENDROOT
BRANCH   1   4
ATOM      4  C   UNL     1       6.746   4.410  16.223  0.00  0.00    +0.000 C 
BRANCH   4   5
ATOM      5  C   UNL     1       6.828   4.634  14.706  0.00  0.00    +0.000 C 
ATOM      6  O   UNL     1       7.700   5.329  14.198  0.00  0.00    +0.000 OA
BRANCH   5   7
ATOM      7  O   UNL     1       5.828   4.028  14.009  0.00  0.00    +0.000 OA
BRANCH   7   9
ATOM      8  C   UNL     1       4.956   3.239  11.856  0.00  0.00    +0.000 C 
ATOM      9  C   UNL     1       6.182   3.578  12.686  0.00  0.00    +0.000 C 
ENDBRANCH   7   9
ENDBRANCH   5   7
ENDBRANCH   4   5
ENDBRANCH   1   4
BRANCH   1  10
ATOM     10  C   UNL     1       6.205   6.788  16.799  0.00  0.00    +0.000 C 
BRANCH  10  11
ATOM     11  C   UNL     1       7.603   7.238  17.140  0.00  0.00    +0.000 C 
ATOM     12  C   UNL     1       7.955   8.463  17.954  0.00  0.00    +0.000 C 
ATOM     13  C   UNL     1       8.051   7.102  18.577  0.00  0.00    +0.000 C 
ENDBRANCH  10  11
ENDBRANCH   1  10
BRANCH   2  14
ATOM     14  C   UNL     1       4.335   5.830  18.848  0.00  0.00    +0.000 C 
BRANCH  14  15
ATOM     15  C   UNL     1       2.841   5.788  18.548  0.00  0.00    +0.000 C 
BRANCH  15  16
ATOM     16  N   UNL     1       2.186   4.688  19.237  0.00  0.00    +0.000 N 
ATOM     17  C   UNL     1       2.327   4.335  20.548  0.00  0.00    +0.000 A 
ATOM     18  C   UNL     1       1.519   3.238  20.751  0.00  0.00    +0.000 A 
ATOM     19  C   UNL     1       1.297   2.470  21.993  0.00  0.00    +0.000 C 
ATOM     20  C   UNL     1       0.932   3.010  19.481  0.00  0.00    +0.000 A 
ATOM     21  N   UNL     1       1.333   3.892  18.563  0.00  0.00    +0.000 NA
ENDBRANCH  15  16
ENDBRANCH  14  15
ENDBRANCH   2  14
TORSDOF 9
ENDMDL
MODEL 2
REMARK VINA RESULT:      -6.6      2.344      6.386
REMARK  Name = 
REMARK  11 active torsions:
REMARK  status: ('A' for Active; 'I' for Inactive)
REMARK    1  A    between atoms: C_1  and  C_2
REMARK    2  A    between atoms: C_2  and  O_3
REMARK    3  A    between atoms: O_3  and  C_4
REMARK    4  A    between atoms: C_4  and  C_6
REMARK    5  A    between atoms: C_6  and  N_7
REMARK    6  A    between atoms: N_7  and  C_8
REMARK    7  A    between atoms: C_8  and  C_9
REMARK    8  A    between atoms: C_12  and  C_14
REMARK    9  A    between atoms: C_14  and  C_15
REMARK   10  A    between atoms: C_15  and  N_16
REMARK   11  A    between atoms: C_18  and  C_19
REMARK                            x       y       z     vdW  Elec       q    Type
REMARK                         _______ _______ _______ _____ _____    ______ ____
ROOT
ATOM      1  N   UNL     1       4.061   5.422  18.386  0.00  0.00    +0.000 N 
ATOM      2  C   UNL     1       5.303   4.845  18.612  0.00  0.00    +0.000 C 
ATOM      3  O   UNL     1       5.430   3.831  19.302  0.00  0.00    +0.000 OA
ENDROOT
BRANCH   1   4
ATOM      4  C   UNL     1       2.879   4.745  18.942  0.00  0.00    +0.000 C 
BRANCH   4   5
ATOM      5  C   UNL     1       2.490   3.357  18.412  0.00  0.00    +0.000 C 
ATOM      6  O   UNL     1       2.359   3.132  17.215  0.00  0.00    +0.000 OA
BRANCH   5   7
ATOM      7  O   UNL     1       2.270   2.439  19.393  0.00  0.00    +0.000 OA
BRANCH   7   9
ATOM      8  C   UNL     1       1.540   2.346  21.733  0.00  0.00    +0.000 C 
ATOM      9  C   UNL     1       2.547   2.889  20.734  0.00  0.00    +0.000 C 
ENDBRANCH   7   9
ENDBRANCH   5   7
ENDBRANCH   4   5
ENDBRANCH   1   4
BRANCH   1  10
ATOM     10  C   UNL     1       3.842   6.683  17.680  0.00  0.00    +0.000 C 
BRANCH  10  11
ATOM     11  C   UNL     1       2.473   7.262  17.930  0.00  0.00    +0.000 C 
ATOM     12  C   UNL     1       2.131   8.278  18.997  0.00  0.00    +0.000 C 
ATOM     13  C   UNL     1       2.248   8.711  17.566  0.00  0.00    +0.000 C 
ENDBRANCH  10  11
ENDBRANCH   1  10
BRANCH   2  14
ATOM     14  C   UNL     1       6.519   5.529  18.020  0.00  0.00    +0.000 C 
BRANCH  14  15
ATOM     15  C   UNL     1       7.393   4.537  17.261  0.00  0.00    +0.000 C 
BRANCH  15  16
ATOM     16  N   UNL     1       7.069   4.510  15.844  0.00  0.00    +0.000 N 
ATOM     17  C   UNL     1       6.135   3.729  15.226  0.00  0.00    +0.000 A 
ATOM     18  C   UNL     1       6.180   4.045  13.886  0.00  0.00    +0.000 A 
ATOM     19  C   UNL     1       5.371   3.495  12.778  0.00  0.00    +0.000 C 
ATOM     20  C   UNL     1       7.188   5.038  13.805  0.00  0.00    +0.000 A 
ATOM     21  N   UNL     1       7.724   5.324  14.993  0.00  0.00    +0.000 NA
ENDBRANCH  15  16
ENDBRANCH  14  15
ENDBRANCH   2  14
TORSDOF 9
ENDMDL
MODEL 3
REMARK VINA RESULT:      -6.5      1.827      4.005
REMARK  Name = 
REMARK  11 active torsions:
REMARK  status: ('A' for Active; 'I' for Inactive)
REMARK    1  A    between atoms: C_1  and  C_2
REMARK    2  A    between atoms: C_2  and  O_3
REMARK    3  A    between atoms: O_3  and  C_4
REMARK    4  A    between atoms: C_4  and  C_6
REMARK    5  A    between atoms: C_6  and  N_7
REMARK    6  A    between atoms: N_7  and  C_8
REMARK    7  A    between atoms: C_8  and  C_9
REMARK    8  A    between atoms: C_12  and  C_14
REMARK    9  A    between atoms: C_14  and  C_15
REMARK   10  A    between atoms: C_15  and  N_16
REMARK   11  A    between atoms: C_18  and  C_19
REMARK                            x       y       z     vdW  Elec       q    Type
REMARK                         _______ _______ _______ _____ _____    ______ ____
ROOT
ATOM      1  N   UNL     1       5.953   4.459  17.105  0.00  0.00    +0.000 N 
ATOM      2  C   UNL     1       4.950   3.815  17.818  0.00  0.00    +0.000 C 
ATOM      3  O   UNL     1       5.163   3.310  18.922  0.00  0.00    +0.000 OA
ENDROOT
BRANCH   1   4
ATOM      4  C   UNL     1       7.275   4.581  17.739  0.00  0.00    +0.000 C 
BRANCH   4   5
ATOM      5  C   UNL     1       7.486   5.634  18.836  0.00  0.00    +0.000 C 
ATOM      6  O   UNL     1       7.018   5.503  19.962  0.00  0.00    +0.000 OA
BRANCH   5   7
ATOM      7  O   UNL     1       8.194   6.721  18.423  0.00  0.00    +0.000 OA
BRANCH   7   9
ATOM      8  C   UNL     1       8.014   9.085  17.794  0.00  0.00    +0.000 C 
ATOM      9  C   UNL     1       7.454   7.682  17.644  0.00  0.00    +0.000 C 
ENDBRANCH   7   9
ENDBRANCH   5   7
ENDBRANCH   4   5
ENDBRANCH   1   4
BRANCH   1  10
ATOM     10  C   UNL     1       5.809   4.978  15.746  0.00  0.00    +0.000 C 
BRANCH  10  11
ATOM     11  C   UNL     1       6.477   4.105  14.714  0.00  0.00    +0.000 C 
ATOM     12  C   UNL     1       5.986   3.887  13.300  0.00  0.00    +0.000 C 
ATOM     13  C   UNL     1       7.158   4.790  13.551  0.00  0.00    +0.000 C 
ENDBRANCH  10  11
ENDBRANCH   1  10
BRANCH   2  14
ATOM     14  C   UNL     1       3.581   3.710  17.174  0.00  0.00    +0.000 C 
BRANCH  14  15
ATOM     15  C   UNL     1       2.612   4.720  17.776  0.00  0.00    +0.000 C 
BRANCH  15  16
ATOM     16  N   UNL     1       2.320   4.420  19.168  0.00  0.00    +0.000 N 
ATOM     17  C   UNL     1       1.874   3.236  19.681  0.00  0.00    +0.000 A 
ATOM     18  C   UNL     1       1.738   3.419  21.040  0.00  0.00    +0.000 A 
ATOM     19  C   UNL     1       1.295   2.451  22.065  0.00  0.00    +0.000 C 
ATOM     20  C   UNL     1       2.132   4.767  21.241  0.00  0.00    +0.000 A 
ATOM     21  N   UNL     1       2.489   5.373  20.107  0.00  0.00    +0.000 NA
ENDBRANCH  15  16
ENDBRANCH  14  15
ENDBRANCH   2  14
TORSDOF 9
ENDMDL
MODEL 4
REMARK VINA RESULT:      -6.5      2.590      6.420
REMARK  Name = 
REMARK  11 active torsions:
REMARK  status: ('A' for Active; 'I' for Inactive)
REMARK    1  A    between atoms: C_1  and  C_2
REMARK    2  A    between atoms: C_2  and  O_3
REMARK    3  A    between atoms: O_3  and  C_4
REMARK    4  A    between atoms: C_4  and  C_6
REMARK    5  A    between atoms: C_6  and  N_7
REMARK    6  A    between atoms: N_7  and  C_8
REMARK    7  A    between atoms: C_8  and  C_9
REMARK    8  A    between atoms: C_12  and  C_14
REMARK    9  A    between atoms: C_14  and  C_15
REMARK   10  A    between atoms: C_15  and  N_16
REMARK   11  A    between atoms: C_18  and  C_19
REMARK                            x       y       z     vdW  Elec       q    Type
REMARK                         _______ _______ _______ _____ _____    ______ ____
ROOT
ATOM      1  N   UNL     1       4.004   3.617  19.384  0.00  0.00    +0.000 N 
ATOM      2  C   UNL     1       4.032   2.963  18.160  0.00  0.00    +0.000 C 
ATOM      3  O   UNL     1       3.994   1.733  18.082  0.00  0.00    +0.000 OA
ENDROOT
BRANCH   1   4
ATOM      4  C   UNL     1       3.859   2.796  20.597  0.00  0.00    +0.000 C 
BRANCH   4   5
ATOM      5  C   UNL     1       2.518   2.792  21.344  0.00  0.00    +0.000 C 
ATOM      6  O   UNL     1       2.390   3.298  22.453  0.00  0.00    +0.000 OA
BRANCH   5   7
ATOM      7  O   UNL     1       1.522   2.145  20.678  0.00  0.00    +0.000 OA
BRANCH   7   9
ATOM      8  C   UNL     1       0.548   2.625  18.479  0.00  0.00    +0.000 C 
ATOM      9  C   UNL     1       0.612   2.994  19.950  0.00  0.00    +0.000 C 
ENDBRANCH   7   9
ENDBRANCH   5   7
ENDBRANCH   4   5
ENDBRANCH   1   4
BRANCH   1  10
ATOM     10  C   UNL     1       4.161   5.059  19.564  0.00  0.00    +0.000 C 
BRANCH  10  11
ATOM     11  C   UNL     1       2.843   5.789  19.611  0.00  0.00    +0.000 C 
ATOM     12  C   UNL     1       2.630   7.239  19.239  0.00  0.00    +0.000 C 
ATOM     13  C   UNL     1       2.199   6.156  18.294  0.00  0.00    +0.000 C 
ENDBRANCH  10  11
ENDBRANCH   1  10
BRANCH   2  14
ATOM     14  C   UNL     1       4.158   3.810  16.908  0.00  0.00    +0.000 C 
BRANCH  14  15
ATOM     15  C   UNL     1       5.589   3.806  16.384  0.00  0.00    +0.000 C 
BRANCH  15  16
ATOM     16  N   UNL     1       6.399   4.826  17.030  0.00  0.00    +0.000 N 
ATOM     17  C   UNL     1       6.457   6.154  16.719  0.00  0.00    +0.000 A 
ATOM     18  C   UNL     1       7.355   6.726  17.593  0.00  0.00    +0.000 A 
ATOM     19  C   UNL     1       7.778   8.138  17.692  0.00  0.00    +0.000 C 
ATOM     20  C   UNL     1       7.786   5.640  18.396  0.00  0.00    +0.000 A 
ATOM     21  N   UNL     1       7.203   4.488  18.058  0.00  0.00    +0.000 NA
ENDBRANCH  15  16
ENDBRANCH  14  15
ENDBRANCH   2  14
TORSDOF 9
ENDMDL
MODEL 5
REMARK VINA RESULT:      -6.5      2.507      6.199
REMARK  Name = 
REMARK  11 active torsions:
REMARK  status: ('A' for Active; 'I' for Inactive)
REMARK    1  A    between atoms: C_1  and  C_2
REMARK    2  A    between atoms: C_2  and  O_3
REMARK    3  A    between atoms: O_3  and  C_4
REMARK    4  A    between atoms: C_4  and  C_6
REMARK    5  A    between atoms: C_6  and  N_7
REMARK    6  A    between atoms: N_7  and  C_8
REMARK    7  A    between atoms: C_8  and  C_9
REMARK    8  A    between atoms: C_12  and  C_14
REMARK    9  A    between atoms: C_14  and  C_15
REMARK   10  A    between atoms: C_15  and  N_16
REMARK   11  A    between atoms: C_18  and  C_19
REMARK                            x       y       z     vdW  Elec       q    Type
REMARK                         _______ _______ _______ _____ _____    ______ ____
ROOT
ATOM      1  N   UNL     1       4.081   5.775  18.800  0.00  0.00    +0.000 N 
ATOM      2  C   UNL     1       5.344   5.201  18.764  0.00  0.00    +0.000 C 
ATOM      3  O   UNL     1       5.648   4.260  19.501  0.00  0.00    +0.000 OA
ENDROOT
BRANCH   1   4
ATOM      4  C   UNL     1       3.083   5.181  19.703  0.00  0.00    +0.000 C 
BRANCH   4   5
ATOM      5  C   UNL     1       2.074   4.167  19.144  0.00  0.00    +0.000 C 
ATOM      6  O   UNL     1       1.089   3.812  19.781  0.00  0.00    +0.000 OA
BRANCH   5   7
ATOM      7  O   UNL     1       2.407   3.686  17.914  0.00  0.00    +0.000 OA
BRANCH   7   9
ATOM      8  C   UNL     1       3.542   1.572  18.424  0.00  0.00    +0.000 C 
ATOM      9  C   UNL     1       2.349   2.252  17.775  0.00  0.00    +0.000 C 
ENDBRANCH   7   9
ENDBRANCH   5   7
ENDBRANCH   4   5
ENDBRANCH   1   4
BRANCH   1  10
ATOM     10  C   UNL     1       3.682   6.962  18.046  0.00  0.00    +0.000 C 
BRANCH  10  11
ATOM     11  C   UNL     1       2.342   7.504  18.476  0.00  0.00    +0.000 C 
ATOM     12  C   UNL     1       2.073   8.923  18.924  0.00  0.00    +0.000 C 
ATOM     13  C   UNL     1       1.653   8.482  17.553  0.00  0.00    +0.000 C 
ENDBRANCH  10  11
ENDBRANCH   1  10
BRANCH   2  14
ATOM     14  C   UNL     1       6.366   5.798  17.816  0.00  0.00    +0.000 C 
BRANCH  14  15
ATOM     15  C   UNL     1       7.241   4.713  17.197  0.00  0.00    +0.000 C 
BRANCH  15  16
ATOM     16  N   UNL     1       7.003   4.584  15.769  0.00  0.00    +0.000 N 
ATOM     17  C   UNL     1       6.120   3.745  15.152  0.00  0.00    +0.000 A 
ATOM     18  C   UNL     1       6.241   3.969  13.798  0.00  0.00    +0.000 A 
ATOM     19  C   UNL     1       5.509   3.329  12.685  0.00  0.00    +0.000 C 
ATOM     20  C   UNL     1       7.239   4.972  13.709  0.00  0.00    +0.000 A 
ATOM     21  N   UNL     1       7.698   5.348  14.904  0.00  0.00    +0.000 NA
ENDBRANCH  15  16
ENDBRANCH  14  15
ENDBRANCH   2  14
TORSDOF 9
ENDMDL
MODEL 6
REMARK VINA RESULT:      -6.5      2.212      6.670
REMARK  Name = 
REMARK  11 active torsions:
REMARK  status: ('A' for Active; 'I' for Inactive)
REMARK    1  A    between atoms: C_1  and  C_2
REMARK    2  A    between atoms: C_2  and  O_3
REMARK    3  A    between atoms: O_3  and  C_4
REMARK    4  A    between atoms: C_4  and  C_6
REMARK    5  A    between atoms: C_6  and  N_7
REMARK    6  A    between atoms: N_7  and  C_8
REMARK    7  A    between atoms: C_8  and  C_9
REMARK    8  A    between atoms: C_12  and  C_14
REMARK    9  A    between atoms: C_14  and  C_15
REMARK   10  A    between atoms: C_15  and  N_16
REMARK   11  A    between atoms: C_18  and  C_19
REMARK                            x       y       z     vdW  Elec       q    Type
REMARK                         _______ _______ _______ _____ _____    ______ ____
ROOT
ATOM      1  N   UNL     1       4.271   4.521  18.252  0.00  0.00    +0.000 N 
ATOM      2  C   UNL     1       5.612   4.691  17.937  0.00  0.00    +0.000 C 
ATOM      3  O   UNL     1       6.499   4.062  18.518  0.00  0.00    +0.000 OA
ENDROOT
BRANCH   1   4
ATOM      4  C   UNL     1       3.927   3.508  19.263  0.00  0.00    +0.000 C 
BRANCH   4   5
ATOM      5  C   UNL     1       3.180   2.239  18.830  0.00  0.00    +0.000 C 
ATOM      6  O   UNL     1       3.614   1.493  17.961  0.00  0.00    +0.000 OA
BRANCH   5   7
ATOM      7  O   UNL     1       1.991   2.059  19.471  0.00  0.00    +0.000 OA
BRANCH   7   9
ATOM      8  C   UNL     1       1.379   2.607  21.782  0.00  0.00    +0.000 C 
ATOM      9  C   UNL     1       1.607   3.118  20.370  0.00  0.00    +0.000 C 
ENDBRANCH   7   9
ENDBRANCH   5   7
ENDBRANCH   4   5
ENDBRANCH   1   4
BRANCH   1  10
ATOM     10  C   UNL     1       3.175   5.309  17.693  0.00  0.00    +0.000 C 
BRANCH  10  11
ATOM     11  C   UNL     1       2.987   6.629  18.397  0.00  0.00    +0.000 C 
ATOM     12  C   UNL     1       3.185   7.992  17.773  0.00  0.00    +0.000 C 
ATOM     13  C   UNL     1       1.797   7.472  18.000  0.00  0.00    +0.000 C 
ENDBRANCH  10  11
ENDBRANCH   1  10
BRANCH   2  14
ATOM     14  C   UNL     1       5.965   5.718  16.878  0.00  0.00    +0.000 C 
BRANCH  14  15
ATOM     15  C   UNL     1       7.289   5.379  16.204  0.00  0.00    +0.000 C 
BRANCH  15  16
ATOM     16  N   UNL     1       7.095   4.929  14.835  0.00  0.00    +0.000 N 
ATOM     17  C   UNL     1       6.222   3.976  14.396  0.00  0.00    +0.000 A 
ATOM     18  C   UNL     1       6.388   3.886  13.032  0.00  0.00    +0.000 A 
ATOM     19  C   UNL     1       5.683   3.013  12.070  0.00  0.00    +0.000 C 
ATOM     20  C   UNL     1       7.399   4.839  12.750  0.00  0.00    +0.000 A 
ATOM     21  N   UNL     1       7.825   5.474  13.843  0.00  0.00    +0.000 NA
ENDBRANCH  15  16
ENDBRANCH  14  15
ENDBRANCH   2  14
TORSDOF 9
ENDMDL
MODEL 7
REMARK VINA RESULT:      -6.5      2.177      6.791
REMARK  Name = 
REMARK  11 active torsions:
REMARK  status: ('A' for Active; 'I' for Inactive)
REMARK    1  A    between atoms: C_1  and  C_2
REMARK    2  A    between atoms: C_2  and  O_3
REMARK    3  A    between atoms: O_3  and  C_4
REMARK    4  A    between atoms: C_4  and  C_6
REMARK    5  A    between atoms: C_6  and  N_7
REMARK    6  A    between atoms: N_7  and  C_8
REMARK    7  A    between atoms: C_8  and  C_9
REMARK    8  A    between atoms: C_12  and  C_14
REMARK    9  A    between atoms: C_14  and  C_15
REMARK   10  A    between atoms: C_15  and  N_16
REMARK   11  A    between atoms: C_18  and  C_19
REMARK                            x       y       z     vdW  Elec       q    Type
REMARK                         _______ _______ _______ _____ _____    ______ ____
ROOT
ATOM      1  N   UNL     1       3.527   6.041  18.286  0.00  0.00    +0.000 N 
ATOM      2  C   UNL     1       4.596   5.320  17.771  0.00  0.00    +0.000 C 
ATOM      3  O   UNL     1       4.756   4.126  18.031  0.00  0.00    +0.000 OA
ENDROOT
BRANCH   1   4
ATOM      4  C   UNL     1       2.543   5.316  19.106  0.00  0.00    +0.000 C 
BRANCH   4   5
ATOM      5  C   UNL     1       1.585   4.326  18.428  0.00  0.00    +0.000 C 
ATOM      6  O   UNL     1       1.334   4.381  17.230  0.00  0.00    +0.000 OA
BRANCH   5   7
ATOM      7  O   UNL     1       1.026   3.430  19.288  0.00  0.00    +0.000 OA
BRANCH   7   9
ATOM      8  C   UNL     1       1.719   2.604  21.491  0.00  0.00    +0.000 C 
ATOM      9  C   UNL     1       1.146   3.758  20.686  0.00  0.00    +0.000 C 
ENDBRANCH   7   9
ENDBRANCH   5   7
ENDBRANCH   4   5
ENDBRANCH   1   4
BRANCH   1  10
ATOM     10  C   UNL     1       3.333   7.480  18.120  0.00  0.00    +0.000 C 
BRANCH  10  11
ATOM     11  C   UNL     1       1.905   7.906  18.347  0.00  0.00    +0.000 C 
ATOM     12  C   UNL     1       1.462   9.057  19.222  0.00  0.00    +0.000 C 
ATOM     13  C   UNL     1       1.457   9.211  17.730  0.00  0.00    +0.000 C 
ENDBRANCH  10  11
ENDBRANCH   1  10
BRANCH   2  14
ATOM     14  C   UNL     1       5.598   6.061  16.907  0.00  0.00    +0.000 C 
BRANCH  14  15
ATOM     15  C   UNL     1       6.781   5.168  16.549  0.00  0.00    +0.000 C 
BRANCH  15  16
ATOM     16  N   UNL     1       6.780   4.817  15.138  0.00  0.00    +0.000 N 
ATOM     17  C   UNL     1       5.972   3.911  14.514  0.00  0.00    +0.000 A 
ATOM     18  C   UNL     1       6.330   3.912  13.184  0.00  0.00    +0.000 A 
ATOM     19  C   UNL     1       5.764   3.119  12.073  0.00  0.00    +0.000 C 
ATOM     20  C   UNL     1       7.377   4.865  13.116  0.00  0.00    +0.000 A 
ATOM     21  N   UNL     1       7.648   5.418  14.300  0.00  0.00    +0.000 NA
ENDBRANCH  15  16
ENDBRANCH  14  15
ENDBRANCH   2  14
TORSDOF 9
ENDMDL
MODEL 8
REMARK VINA RESULT:      -6.4      2.278      6.725
REMARK  Name = 
REMARK  11 active torsions:
REMARK  status: ('A' for Active; 'I' for Inactive)
REMARK    1  A    between atoms: C_1  and  C_2
REMARK    2  A    between atoms: C_2  and  O_3
REMARK    3  A    between atoms: O_3  and  C_4
REMARK    4  A    between atoms: C_4  and  C_6
REMARK    5  A    between atoms: C_6  and  N_7
REMARK    6  A    between atoms: N_7  and  C_8
REMARK    7  A    between atoms: C_8  and  C_9
REMARK    8  A    between atoms: C_12  and  C_14
REMARK    9  A    between atoms: C_14  and  C_15
REMARK   10  A    between atoms: C_15  and  N_16
REMARK   11  A    between atoms: C_18  and  C_19
REMARK                            x       y       z     vdW  Elec       q    Type
REMARK                         _______ _______ _______ _____ _____    ______ ____
ROOT
ATOM      1  N   UNL     1       2.895   4.640  18.221  0.00  0.00    +0.000 N 
ATOM      2  C   UNL     1       3.903   3.773  17.819  0.00  0.00    +0.000 C 
ATOM      3  O   UNL     1       3.652   2.651  17.375  0.00  0.00    +0.000 OA
ENDROOT
BRANCH   1   4
ATOM      4  C   UNL     1       1.502   4.202  18.039  0.00  0.00    +0.000 C 
BRANCH   4   5
ATOM      5  C   UNL     1       0.870   3.261  19.073  0.00  0.00    +0.000 C 
ATOM      6  O   UNL     1       0.379   2.183  18.757  0.00  0.00    +0.000 OA
BRANCH   5   7
ATOM      7  O   UNL     1       0.874   3.758  20.341  0.00  0.00    +0.000 OA
BRANCH   7   9
ATOM      8  C   UNL     1       2.846   2.691  21.337  0.00  0.00    +0.000 C 
ATOM      9  C   UNL     1       1.336   2.849  21.360  0.00  0.00    +0.000 C 
ENDBRANCH   7   9
ENDBRANCH   5   7
ENDBRANCH   4   5
ENDBRANCH   1   4
BRANCH   1  10
ATOM     10  C   UNL     1       3.114   5.935  18.863  0.00  0.00    +0.000 C 
BRANCH  10  11
ATOM     11  C   UNL     1       2.205   7.012  18.328  0.00  0.00    +0.000 C 
ATOM     12  C   UNL     1       1.949   8.350  18.985  0.00  0.00    +0.000 C 
ATOM     13  C   UNL     1       2.849   8.268  17.788  0.00  0.00    +0.000 C 
ENDBRANCH  10  11
ENDBRANCH   1  10
BRANCH   2  14
ATOM     14  C   UNL     1       5.338   4.233  17.985  0.00  0.00    +0.000 C 
BRANCH  14  15
ATOM     15  C   UNL     1       5.634   5.440  17.102  0.00  0.00    +0.000 C 
BRANCH  15  16
ATOM     16  N   UNL     1       6.101   5.039  15.785  0.00  0.00    +0.000 N 
ATOM     17  C   UNL     1       5.455   4.238  14.888  0.00  0.00    +0.000 A 
ATOM     18  C   UNL     1       6.275   4.136  13.785  0.00  0.00    +0.000 A 
ATOM     19  C   UNL     1       6.047   3.394  12.528  0.00  0.00    +0.000 C 
ATOM     20  C   UNL     1       7.404   4.922  14.129  0.00  0.00    +0.000 A 
ATOM     21  N   UNL     1       7.297   5.473  15.340  0.00  0.00    +0.000 NA
ENDBRANCH  15  16
ENDBRANCH  14  15
ENDBRANCH   2  14
TORSDOF 9
ENDMDL
MODEL 9
REMARK VINA RESULT:      -6.3      2.574      6.588
REMARK  Name = 
REMARK  11 active torsions:
REMARK  status: ('A' for Active; 'I' for Inactive)
REMARK    1  A    between atoms: C_1  and  C_2
REMARK    2  A    between atoms: C_2  and  O_3
REMARK    3  A    between atoms: O_3  and  C_4
REMARK    4  A    between atoms: C_4  and  C_6
REMARK    5  A    between atoms: C_6  and  N_7
REMARK    6  A    between atoms: N_7  and  C_8
REMARK    7  A    between atoms: C_8  and  C_9
REMARK    8  A    between atoms: C_12  and  C_14
REMARK    9  A    between atoms: C_14  and  C_15
REMARK   10  A    between atoms: C_15  and  N_16
REMARK   11  A    between atoms: C_18  and  C_19
REMARK                            x       y       z     vdW  Elec       q    Type
REMARK                         _______ _______ _______ _____ _____    ______ ____
ROOT
ATOM      1  N   UNL     1       3.048   4.369  18.149  0.00  0.00    +0.000 N 
ATOM      2  C   UNL     1       3.948   3.325  17.981  0.00  0.00    +0.000 C 
ATOM      3  O   UNL     1       3.575   2.194  17.664  0.00  0.00    +0.000 OA
ENDROOT
BRANCH   1   4
ATOM      4  C   UNL     1       1.628   4.101  17.870  0.00  0.00    +0.000 C 
BRANCH   4   5
ATOM      5  C   UNL     1       0.813   3.261  18.863  0.00  0.00    +0.000 C 
ATOM      6  O   UNL     1       0.244   2.229  18.527  0.00  0.00    +0.000 OA
BRANCH   5   7
ATOM      7  O   UNL     1       0.758   3.794  20.115  0.00  0.00    +0.000 OA
BRANCH   7   9
ATOM      8  C   UNL     1       2.656   2.813  21.321  0.00  0.00    +0.000 C 
ATOM      9  C   UNL     1       1.146   2.906  21.182  0.00  0.00    +0.000 C 
ENDBRANCH   7   9
ENDBRANCH   5   7
ENDBRANCH   4   5
ENDBRANCH   1   4
BRANCH   1  10
ATOM     10  C   UNL     1       3.396   5.703  18.634  0.00  0.00    +0.000 C 
BRANCH  10  11
ATOM     11  C   UNL     1       2.322   6.724  18.358  0.00  0.00    +0.000 C 
ATOM     12  C   UNL     1       2.104   8.001  19.138  0.00  0.00    +0.000 C 
ATOM     13  C   UNL     1       2.752   8.055  17.786  0.00  0.00    +0.000 C 
ENDBRANCH  10  11
ENDBRANCH   1  10
BRANCH   2  14
ATOM     14  C   UNL     1       5.414   3.607  18.245  0.00  0.00    +0.000 C 
BRANCH  14  15
ATOM     15  C   UNL     1       6.028   4.427  17.116  0.00  0.00    +0.000 C 
BRANCH  15  16
ATOM     16  N   UNL     1       6.809   5.542  17.627  0.00  0.00    +0.000 N 
ATOM     17  C   UNL     1       6.871   6.807  17.117  0.00  0.00    +0.000 A 
ATOM     18  C   UNL     1       7.733   7.517  17.924  0.00  0.00    +0.000 A 
ATOM     19  C   UNL     1       8.145   8.932  17.819  0.00  0.00    +0.000 C 
ATOM     20  C   UNL     1       8.139   6.571  18.900  0.00  0.00    +0.000 A 
ATOM     21  N   UNL     1       7.576   5.375  18.722  0.00  0.00    +0.000 NA
ENDBRANCH  15  16
ENDBRANCH  14  15
ENDBRANCH   2  14
TORSDOF 9
ENDMDL
