MODEL 1
REMARK VINA RESULT:      -7.5      0.000      0.000
REMARK  Name = 
REMARK  6 active torsions:
REMARK  status: ('A' for Active; 'I' for Inactive)
REMARK    1  A    between atoms: CB_1  and  CA_2
REMARK    2  A    between atoms: CA_2  and  N_3
REMARK    3  A    between atoms: CA_2  and  C_18
REMARK    4  A    between atoms: C_4  and  C_6
REMARK    5  A    between atoms: C_6  and  C_8
REMARK    6  A    between atoms: C_18  and  OXT_20
REMARK                            x       y       z     vdW  Elec       q    Type
REMARK                         _______ _______ _______ _____ _____    ______ ____
ROOT
ATOM      1  C   UNK A   0       3.174   7.398  17.738  0.00  0.00    +0.000 C 
ATOM      2  O   UNK A   0       2.624   8.365  17.214  0.00  0.00    +0.000 OA
ENDROOT
BRANCH   1   3
ATOM      3  C   UNK A   0       2.668   6.726  18.935  0.00  0.00    +0.000 A 
ATOM      4  C   UNK A   0       2.095   7.371  20.021  0.00  0.00    +0.000 A 
ATOM      5  N   UNK A   0       1.712   6.433  20.937  0.00  0.00    +0.000 N 
ATOM      6  C   UNK A   0       2.017   5.175  20.480  0.00  0.00    +0.000 A 
ATOM      7  C   UNK A   0       1.799   3.933  21.089  0.00  0.00    +0.000 A 
ATOM      8  C   UNK A   0       2.212   2.794  20.399  0.00  0.00    +0.000 A 
ATOM      9  C   UNK A   0       2.819   2.903  19.149  0.00  0.00    +0.000 A 
ATOM     10 CL   UNK A   0       3.314   1.472  18.328  0.00  0.00    +0.000 Cl
ATOM     11  C   UNK A   0       3.032   4.151  18.551  0.00  0.00    +0.000 A 
ATOM     12  C   UNK A   0       2.623   5.321  19.230  0.00  0.00    +0.000 A 
ATOM     13  H   UNK A   0       1.269   6.633  21.824  0.00  0.00    +0.000 HD
ENDBRANCH   1   3
BRANCH   1  15
ATOM     14  N   ALA A   1       5.520   6.799  18.141  0.00  0.00    +0.000 N 
ATOM     15  C   UNK A   0       4.546   6.990  17.174  0.00  0.00    +0.000 C 
ATOM     16  O   UNK A   0       4.710   6.797  15.980  0.00  0.00    +0.000 OA
ATOM     17  H   ALA A   1       5.374   7.299  19.019  0.00  0.00    +0.000 HD
BRANCH  14  19
ATOM     18  CB  ALA A   1       7.825   7.587  17.676  0.00  0.00    +0.000 C 
ATOM     19  CA  ALA A   1       6.883   6.398  17.762  0.00  0.00    +0.000 C 
BRANCH  19  20
ATOM     20  C   ALA A   1       7.410   5.334  18.735  0.00  0.00    +0.000 C 
ATOM     21  O   ALA A   1       7.473   5.459  19.947  0.00  0.00    +0.000 OA
BRANCH  20  22
ATOM     22  OXT ALA A   1       7.909   4.244  18.094  0.00  0.00    +0.000 OA
ATOM     23  HXT ALA A   1       7.804   4.339  17.126  0.00  0.00    +0.000 HD
ENDBRANCH  20  22
ENDBRANCH  19  20
ENDBRANCH  14  19
ENDBRANCH   1  15
TORSDOF 5
ENDMDL
MODEL 2
REMARK VINA RESULT:      -7.4      2.918      3.891
REMARK  Name = 
REMARK  6 active torsions:
REMARK  status: ('A' for Active; 'I' for Inactive)
REMARK    1  A    between atoms: CB_1  and  CA_2
REMARK    2  A    between atoms: CA_2  and  N_3
REMARK    3  A    between atoms: CA_2  and  C_18
REMARK    4  A    between atoms: C_4  and  C_6
REMARK    5  A    between atoms: C_6  and  C_8
REMARK    6  A    between atoms: C_18  and  OXT_20
REMARK                            x       y       z     vdW  Elec       q    Type
REMARK                         _______ _______ _______ _____ _____    ______ ____
ROOT
ATOM      1  C   UNK A   0       6.374   6.340  17.264  0.00  0.00    +0.000 C 
ATOM      2  O   UNK A   0       7.152   7.126  17.801  0.00  0.00    +0.000 OA
ENDROOT
BRANCH   1   3
ATOM      3  C   UNK A   0       4.950   6.253  17.593  0.00  0.00    +0.000 A 
ATOM      4  C   UNK A   0       4.087   7.336  17.661  0.00  0.00    +0.000 A 
ATOM      5  N   UNK A   0       2.835   6.882  17.962  0.00  0.00    +0.000 N 
ATOM      6  C   UNK A   0       2.847   5.515  18.092  0.00  0.00    +0.000 A 
ATOM      7  C   UNK A   0       1.792   4.643  18.388  0.00  0.00    +0.000 A 
ATOM      8  C   UNK A   0       2.082   3.281  18.463  0.00  0.00    +0.000 A 
ATOM      9  C   UNK A   0       3.380   2.819  18.249  0.00  0.00    +0.000 A 
ATOM     10 CL   UNK A   0       3.697   1.129  18.349  0.00  0.00    +0.000 Cl
ATOM     11  C   UNK A   0       4.426   3.702  17.954  0.00  0.00    +0.000 A 
ATOM     12  C   UNK A   0       4.159   5.087  17.872  0.00  0.00    +0.000 A 
ATOM     13  H   UNK A   0       2.016   7.464  18.073  0.00  0.00    +0.000 HD
ENDBRANCH   1   3
BRANCH   1  15
ATOM     14  N   ALA A   1       6.453   5.320  15.032  0.00  0.00    +0.000 N 
ATOM     15  C   UNK A   0       6.986   5.298  16.311  0.00  0.00    +0.000 C 
ATOM     16  O   UNK A   0       7.904   4.575  16.666  0.00  0.00    +0.000 OA
ATOM     17  H   ALA A   1       5.508   5.700  14.954  0.00  0.00    +0.000 HD
BRANCH  14  19
ATOM     18  CB  ALA A   1       5.801   3.664  13.305  0.00  0.00    +0.000 C 
ATOM     19  CA  ALA A   1       6.939   4.391  14.003  0.00  0.00    +0.000 C 
BRANCH  19  20
ATOM     20  C   ALA A   1       7.829   5.136  12.996  0.00  0.00    +0.000 C 
ATOM     21  O   ALA A   1       8.681   5.959  13.287  0.00  0.00    +0.000 OA
BRANCH  20  22
ATOM     22  OXT ALA A   1       7.502   4.858  11.707  0.00  0.00    +0.000 OA
ATOM     23  HXT ALA A   1       7.053   3.990  11.647  0.00  0.00    +0.000 HD
ENDBRANCH  20  22
ENDBRANCH  19  20
ENDBRANCH  14  19
ENDBRANCH   1  15
TORSDOF 5
ENDMDL
MODEL 3
REMARK VINA RESULT:      -7.2      3.949      5.237
REMARK  Name = 
REMARK  6 active torsions:
REMARK  status: ('A' for Active; 'I' for Inactive)
REMARK    1  A    between atoms: CB_1  and  CA_2
REMARK    2  A    between atoms: CA_2  and  N_3
REMARK    3  A    between atoms: CA_2  and  C_18
REMARK    4  A    between atoms: C_4  and  C_6
REMARK    5  A    between atoms: C_6  and  C_8
REMARK    6  A    between atoms: C_18  and  OXT_20
REMARK                            x       y       z     vdW  Elec       q    Type
REMARK                         _______ _______ _______ _____ _____    ______ ____
ROOT
ATOM      1  C   UNK A   0       6.923   4.743  15.811  0.00  0.00    +0.000 C 
ATOM      2  O   UNK A   0       7.737   4.067  16.437  0.00  0.00    +0.000 OA
ENDROOT
BRANCH   1   3
ATOM      3  C   UNK A   0       5.770   5.404  16.426  0.00  0.00    +0.000 A 
ATOM      4  C   UNK A   0       5.601   6.778  16.514  0.00  0.00    +0.000 A 
ATOM      5  N   UNK A   0       4.404   7.035  17.118  0.00  0.00    +0.000 N 
ATOM      6  C   UNK A   0       3.770   5.857  17.431  0.00  0.00    +0.000 A 
ATOM      7  C   UNK A   0       2.530   5.654  18.049  0.00  0.00    +0.000 A 
ATOM      8  C   UNK A   0       2.118   4.337  18.253  0.00  0.00    +0.000 A 
ATOM      9  C   UNK A   0       2.922   3.272  17.850  0.00  0.00    +0.000 A 
ATOM     10 CL   UNK A   0       2.377   1.661  18.118  0.00  0.00    +0.000 Cl
ATOM     11  C   UNK A   0       4.161   3.489  17.234  0.00  0.00    +0.000 A 
ATOM     12  C   UNK A   0       4.601   4.813  17.016  0.00  0.00    +0.000 A 
ATOM     13  H   UNK A   0       4.034   7.956  17.308  0.00  0.00    +0.000 HD
ENDBRANCH   1   3
BRANCH   1  15
ATOM     14  N   ALA A   1       6.385   3.721  13.644  0.00  0.00    +0.000 N 
ATOM     15  C   UNK A   0       7.060   4.752  14.278  0.00  0.00    +0.000 C 
ATOM     16  O   UNK A   0       7.663   5.642  13.700  0.00  0.00    +0.000 OA
ATOM     17  H   ALA A   1       6.219   2.888  14.211  0.00  0.00    +0.000 HD
BRANCH  14  19
ATOM     18  CB  ALA A   1       7.737   3.048  11.677  0.00  0.00    +0.000 C 
ATOM     19  CA  ALA A   1       6.412   3.597  12.180  0.00  0.00    +0.000 C 
BRANCH  19  20
ATOM     20  C   ALA A   1       5.232   2.741  11.700  0.00  0.00    +0.000 C 
ATOM     21  O   ALA A   1       4.095   3.147  11.522  0.00  0.00    +0.000 OA
BRANCH  20  22
ATOM     22  OXT ALA A   1       5.556   1.426  11.584  0.00  0.00    +0.000 OA
ATOM     23  HXT ALA A   1       6.353   1.222  12.114  0.00  0.00    +0.000 HD
ENDBRANCH  20  22
ENDBRANCH  19  20
ENDBRANCH  14  19
ENDBRANCH   1  15
TORSDOF 5
ENDMDL
MODEL 4
REMARK VINA RESULT:      -7.2      2.570      3.467
REMARK  Name = 
REMARK  6 active torsions:
REMARK  status: ('A' for Active; 'I' for Inactive)
REMARK    1  A    between atoms: CB_1  and  CA_2
REMARK    2  A    between atoms: CA_2  and  N_3
REMARK    3  A    between atoms: CA_2  and  C_18
REMARK    4  A    between atoms: C_4  and  C_6
REMARK    5  A    between atoms: C_6  and  C_8
REMARK    6  A    between atoms: C_18  and  OXT_20
REMARK                            x       y       z     vdW  Elec       q    Type
REMARK                         _______ _______ _______ _____ _____    ______ ____
ROOT
ATOM      1  C   UNK A   0       3.128   4.101  17.587  0.00  0.00    +0.000 C 
ATOM      2  O   UNK A   0       2.402   3.371  16.915  0.00  0.00    +0.000 OA
ENDROOT
BRANCH   1   3
ATOM      3  C   UNK A   0       2.696   4.770  18.815  0.00  0.00    +0.000 A 
ATOM      4  C   UNK A   0       2.589   4.156  20.054  0.00  0.00    +0.000 A 
ATOM      5  N   UNK A   0       2.190   5.085  20.971  0.00  0.00    +0.000 N 
ATOM      6  C   UNK A   0       2.033   6.309  20.368  0.00  0.00    +0.000 A 
ATOM      7  C   UNK A   0       1.644   7.531  20.928  0.00  0.00    +0.000 A 
ATOM      8  C   UNK A   0       1.562   8.635  20.078  0.00  0.00    +0.000 A 
ATOM      9  C   UNK A   0       1.859   8.509  18.723  0.00  0.00    +0.000 A 
ATOM     10 CL   UNK A   0       1.748   9.895  17.706  0.00  0.00    +0.000 Cl
ATOM     11  C   UNK A   0       2.246   7.280  18.174  0.00  0.00    +0.000 A 
ATOM     12  C   UNK A   0       2.337   6.147  19.013  0.00  0.00    +0.000 A 
ATOM     13  H   UNK A   0       2.032   4.903  21.954  0.00  0.00    +0.000 HD
ENDBRANCH   1   3
BRANCH   1  15
ATOM     14  N   ALA A   1       5.240   5.342  17.753  0.00  0.00    +0.000 N 
ATOM     15  C   UNK A   0       4.512   4.435  17.000  0.00  0.00    +0.000 C 
ATOM     16  O   UNK A   0       4.924   3.882  15.993  0.00  0.00    +0.000 OA
ATOM     17  H   ALA A   1       4.692   5.965  18.347  0.00  0.00    +0.000 HD
BRANCH  14  19
ATOM     18  CB  ALA A   1       6.783   7.259  17.442  0.00  0.00    +0.000 C 
ATOM     19  CA  ALA A   1       6.586   5.756  17.329  0.00  0.00    +0.000 C 
BRANCH  19  20
ATOM     20  C   ALA A   1       7.650   4.989  18.127  0.00  0.00    +0.000 C 
ATOM     21  O   ALA A   1       8.002   5.254  19.265  0.00  0.00    +0.000 OA
BRANCH  20  22
ATOM     22  OXT ALA A   1       8.255   4.020  17.390  0.00  0.00    +0.000 OA
ATOM     23  HXT ALA A   1       7.603   3.575  16.811  0.00  0.00    +0.000 HD
ENDBRANCH  20  22
ENDBRANCH  19  20
ENDBRANCH  14  19
ENDBRANCH   1  15
TORSDOF 5
ENDMDL
MODEL 5
REMARK VINA RESULT:      -7.2      2.753      4.031
REMARK  Name = 
REMARK  6 active torsions:
REMARK  status: ('A' for Active; 'I' for Inactive)
REMARK    1  A    between atoms: CB_1  and  CA_2
REMARK    2  A    between atoms: CA_2  and  N_3
REMARK    3  A    between atoms: CA_2  and  C_18
REMARK    4  A    between atoms: C_4  and  C_6
REMARK    5  A    between atoms: C_6  and  C_8
REMARK    6  A    between atoms: C_18  and  OXT_20
REMARK                            x       y       z     vdW  Elec       q    Type
REMARK                         _______ _______ _______ _____ _____    ______ ____
ROOT
ATOM      1  C   UNK A   0       3.936   3.016  18.455  0.00  0.00    +0.000 C 
ATOM      2  O   UNK A   0       3.570   1.942  17.981  0.00  0.00    +0.000 OA
ENDROOT
BRANCH   1   3
ATOM      3  C   UNK A   0       3.175   3.763  19.457  0.00  0.00    +0.000 A 
ATOM      4  C   UNK A   0       2.730   3.241  20.663  0.00  0.00    +0.000 A 
ATOM      5  N   UNK A   0       2.086   4.225  21.356  0.00  0.00    +0.000 N 
ATOM      6  C   UNK A   0       2.096   5.395  20.637  0.00  0.00    +0.000 A 
ATOM      7  C   UNK A   0       1.560   6.645  20.968  0.00  0.00    +0.000 A 
ATOM      8  C   UNK A   0       1.711   7.678  20.043  0.00  0.00    +0.000 A 
ATOM      9  C   UNK A   0       2.375   7.459  18.837  0.00  0.00    +0.000 A 
ATOM     10 CL   UNK A   0       2.543   8.761  17.722  0.00  0.00    +0.000 Cl
ATOM     11  C   UNK A   0       2.907   6.203  18.518  0.00  0.00    +0.000 A 
ATOM     12  C   UNK A   0       2.767   5.140  19.437  0.00  0.00    +0.000 A 
ATOM     13  H   UNK A   0       1.661   4.113  22.268  0.00  0.00    +0.000 HD
ENDBRANCH   1   3
BRANCH   1  15
ATOM     14  N   ALA A   1       5.183   3.680  16.448  0.00  0.00    +0.000 N 
ATOM     15  C   UNK A   0       5.188   3.660  17.833  0.00  0.00    +0.000 C 
ATOM     16  O   UNK A   0       6.058   4.158  18.529  0.00  0.00    +0.000 OA
ATOM     17  H   ALA A   1       4.608   2.967  15.998  0.00  0.00    +0.000 HD
BRANCH  14  19
ATOM     18  CB  ALA A   1       6.277   3.893  14.232  0.00  0.00    +0.000 C 
ATOM     19  CA  ALA A   1       6.305   4.271  15.704  0.00  0.00    +0.000 C 
BRANCH  19  20
ATOM     20  C   ALA A   1       6.320   5.795  15.892  0.00  0.00    +0.000 C 
ATOM     21  O   ALA A   1       5.468   6.563  15.475  0.00  0.00    +0.000 OA
BRANCH  20  22
ATOM     22  OXT ALA A   1       7.454   6.234  16.498  0.00  0.00    +0.000 OA
ATOM     23  HXT ALA A   1       8.244   5.913  16.017  0.00  0.00    +0.000 HD
ENDBRANCH  20  22
ENDBRANCH  19  20
ENDBRANCH  14  19
ENDBRANCH   1  15
TORSDOF 5
ENDMDL
MODEL 6
REMARK VINA RESULT:      -7.1      3.755      6.189
REMARK  Name = 
REMARK  6 active torsions:
REMARK  status: ('A' for Active; 'I' for Inactive)
REMARK    1  A    between atoms: CB_1  and  CA_2
REMARK    2  A    between atoms: CA_2  and  N_3
REMARK    3  A    between atoms: CA_2  and  C_18
REMARK    4  A    between atoms: C_4  and  C_6
REMARK    5  A    between atoms: C_6  and  C_8
REMARK    6  A    between atoms: C_18  and  OXT_20
REMARK                            x       y       z     vdW  Elec       q    Type
REMARK                         _______ _______ _______ _____ _____    ______ ____
ROOT
ATOM      1  C   UNK A   0       4.244   5.690  17.326  0.00  0.00    +0.000 C 
ATOM      2  O   UNK A   0       3.406   6.588  17.262  0.00  0.00    +0.000 OA
ENDROOT
BRANCH   1   3
ATOM      3  C   UNK A   0       5.473   5.667  16.532  0.00  0.00    +0.000 A 
ATOM      4  C   UNK A   0       6.687   6.199  16.940  0.00  0.00    +0.000 A 
ATOM      5  N   UNK A   0       7.616   5.972  15.966  0.00  0.00    +0.000 N 
ATOM      6  C   UNK A   0       7.045   5.293  14.918  0.00  0.00    +0.000 A 
ATOM      7  C   UNK A   0       7.627   4.854  13.722  0.00  0.00    +0.000 A 
ATOM      8  C   UNK A   0       6.809   4.181  12.815  0.00  0.00    +0.000 A 
ATOM      9  C   UNK A   0       5.463   3.961  13.101  0.00  0.00    +0.000 A 
ATOM     10 CL   UNK A   0       4.487   3.124  11.955  0.00  0.00    +0.000 Cl
ATOM     11  C   UNK A   0       4.893   4.405  14.300  0.00  0.00    +0.000 A 
ATOM     12  C   UNK A   0       5.700   5.090  15.236  0.00  0.00    +0.000 A 
ATOM     13  H   UNK A   0       8.585   6.258  16.007  0.00  0.00    +0.000 HD
ENDBRANCH   1   3
BRANCH   1  15
ATOM     14  N   ALA A   1       2.594   4.490  18.692  0.00  0.00    +0.000 N 
ATOM     15  C   UNK A   0       3.881   4.461  18.179  0.00  0.00    +0.000 C 
ATOM     16  O   UNK A   0       4.660   3.532  18.316  0.00  0.00    +0.000 OA
ATOM     17  H   ALA A   1       2.182   5.417  18.799  0.00  0.00    +0.000 HD
BRANCH  14  19
ATOM     18  CB  ALA A   1       1.142   3.865  20.602  0.00  0.00    +0.000 C 
ATOM     19  CA  ALA A   1       2.094   3.383  19.521  0.00  0.00    +0.000 C 
BRANCH  19  20
ATOM     20  C   ALA A   1       1.442   2.312  18.635  0.00  0.00    +0.000 C 
ATOM     21  O   ALA A   1       0.240   2.166  18.478  0.00  0.00    +0.000 OA
BRANCH  20  22
ATOM     22  OXT ALA A   1       2.350   1.452  18.102  0.00  0.00    +0.000 OA
ATOM     23  HXT ALA A   1       2.405   0.637  18.642  0.00  0.00    +0.000 HD
ENDBRANCH  20  22
ENDBRANCH  19  20
ENDBRANCH  14  19
ENDBRANCH   1  15
TORSDOF 5
ENDMDL
MODEL 7
REMARK VINA RESULT:      -7.1      2.879      3.965
REMARK  Name = 
REMARK  6 active torsions:
REMARK  status: ('A' for Active; 'I' for Inactive)
REMARK    1  A    between atoms: CB_1  and  CA_2
REMARK    2  A    between atoms: CA_2  and  N_3
REMARK    3  A    between atoms: CA_2  and  C_18
REMARK    4  A    between atoms: C_4  and  C_6
REMARK    5  A    between atoms: C_6  and  C_8
REMARK    6  A    between atoms: C_18  and  OXT_20
REMARK                            x       y       z     vdW  Elec       q    Type
REMARK                         _______ _______ _______ _____ _____    ______ ____
ROOT
ATOM      1  C   UNK A   0       2.758   3.772  17.794  0.00  0.00    +0.000 C 
ATOM      2  O   UNK A   0       1.928   3.469  16.939  0.00  0.00    +0.000 OA
ENDROOT
BRANCH   1   3
ATOM      3  C   UNK A   0       2.441   4.540  18.999  0.00  0.00    +0.000 A 
ATOM      4  C   UNK A   0       2.332   4.003  20.273  0.00  0.00    +0.000 A 
ATOM      5  N   UNK A   0       2.058   5.011  21.153  0.00  0.00    +0.000 N 
ATOM      6  C   UNK A   0       1.986   6.210  20.489  0.00  0.00    +0.000 A 
ATOM      7  C   UNK A   0       1.733   7.491  20.996  0.00  0.00    +0.000 A 
ATOM      8  C   UNK A   0       1.715   8.552  20.090  0.00  0.00    +0.000 A 
ATOM      9  C   UNK A   0       1.941   8.330  18.733  0.00  0.00    +0.000 A 
ATOM     10 CL   UNK A   0       1.911   9.666  17.647  0.00  0.00    +0.000 Cl
ATOM     11  C   UNK A   0       2.192   7.044  18.239  0.00  0.00    +0.000 A 
ATOM     12  C   UNK A   0       2.216   5.952  19.135  0.00  0.00    +0.000 A 
ATOM     13  H   UNK A   0       1.927   4.894  22.149  0.00  0.00    +0.000 HD
ENDBRANCH   1   3
BRANCH   1  15
ATOM     14  N   ALA A   1       4.713   4.063  16.338  0.00  0.00    +0.000 N 
ATOM     15  C   UNK A   0       4.230   3.446  17.481  0.00  0.00    +0.000 C 
ATOM     16  O   UNK A   0       4.900   2.753  18.230  0.00  0.00    +0.000 OA
ATOM     17  H   ALA A   1       4.011   4.320  15.644  0.00  0.00    +0.000 HD
BRANCH  14  19
ATOM     18  CB  ALA A   1       6.263   3.987  14.403  0.00  0.00    +0.000 C 
ATOM     19  CA  ALA A   1       6.104   3.859  15.909  0.00  0.00    +0.000 C 
BRANCH  19  20
ATOM     20  C   ALA A   1       7.035   4.825  16.656  0.00  0.00    +0.000 C 
ATOM     21  O   ALA A   1       7.398   5.914  16.240  0.00  0.00    +0.000 OA
BRANCH  20  22
ATOM     22  OXT ALA A   1       7.512   4.299  17.815  0.00  0.00    +0.000 OA
ATOM     23  HXT ALA A   1       7.165   3.393  17.946  0.00  0.00    +0.000 HD
ENDBRANCH  20  22
ENDBRANCH  19  20
ENDBRANCH  14  19
ENDBRANCH   1  15
TORSDOF 5
ENDMDL
MODEL 8
REMARK VINA RESULT:      -6.9      3.985      6.342
REMARK  Name = 
REMARK  6 active torsions:
REMARK  status: ('A' for Active; 'I' for Inactive)
REMARK    1  A    between atoms: CB_1  and  CA_2
REMARK    2  A    between atoms: CA_2  and  N_3
REMARK    3  A    between atoms: CA_2  and  C_18
REMARK    4  A    between atoms: C_4  and  C_6
REMARK    5  A    between atoms: C_6  and  C_8
REMARK    6  A    between atoms: C_18  and  OXT_20
REMARK                            x       y       z     vdW  Elec       q    Type
REMARK                         _______ _______ _______ _____ _____    ______ ____
ROOT
ATOM      1  C   UNK A   0       4.706   3.895  17.312  0.00  0.00    +0.000 C 
ATOM      2  O   UNK A   0       4.133   2.842  17.035  0.00  0.00    +0.000 OA
ENDROOT
BRANCH   1   3
ATOM      3  C   UNK A   0       5.729   4.511  16.466  0.00  0.00    +0.000 A 
ATOM      4  C   UNK A   0       6.677   5.422  16.907  0.00  0.00    +0.000 A 
ATOM      5  N   UNK A   0       7.483   5.759  15.859  0.00  0.00    +0.000 N 
ATOM      6  C   UNK A   0       7.094   5.087  14.727  0.00  0.00    +0.000 A 
ATOM      7  C   UNK A   0       7.639   5.129  13.438  0.00  0.00    +0.000 A 
ATOM      8  C   UNK A   0       7.042   4.336  12.458  0.00  0.00    +0.000 A 
ATOM      9  C   UNK A   0       5.942   3.537  12.765  0.00  0.00    +0.000 A 
ATOM     10 CL   UNK A   0       5.233   2.572  11.527  0.00  0.00    +0.000 Cl
ATOM     11  C   UNK A   0       5.405   3.505  14.058  0.00  0.00    +0.000 A 
ATOM     12  C   UNK A   0       5.992   4.298  15.069  0.00  0.00    +0.000 A 
ATOM     13  H   UNK A   0       8.257   6.409  15.905  0.00  0.00    +0.000 HD
ENDBRANCH   1   3
BRANCH   1  15
ATOM     14  N   ALA A   1       3.107   4.366  19.114  0.00  0.00    +0.000 N 
ATOM     15  C   UNK A   0       4.423   4.495  18.700  0.00  0.00    +0.000 C 
ATOM     16  O   UNK A   0       5.317   4.977  19.377  0.00  0.00    +0.000 OA
ATOM     17  H   ALA A   1       2.417   4.268  18.369  0.00  0.00    +0.000 HD
BRANCH  14  19
ATOM     18  CB  ALA A   1       1.928   6.197  20.301  0.00  0.00    +0.000 C 
ATOM     19  CA  ALA A   1       2.680   4.882  20.423  0.00  0.00    +0.000 C 
BRANCH  19  20
ATOM     20  C   ALA A   1       1.845   3.825  21.161  0.00  0.00    +0.000 C 
ATOM     21  O   ALA A   1       2.212   3.200  22.143  0.00  0.00    +0.000 OA
BRANCH  20  22
ATOM     22  OXT ALA A   1       0.663   3.569  20.541  0.00  0.00    +0.000 OA
ATOM     23  HXT ALA A   1      -0.062   4.065  20.973  0.00  0.00    +0.000 HD
ENDBRANCH  20  22
ENDBRANCH  19  20
ENDBRANCH  14  19
ENDBRANCH   1  15
TORSDOF 5
ENDMDL
MODEL 9
REMARK VINA RESULT:      -6.9      2.989      4.089
REMARK  Name = 
REMARK  6 active torsions:
REMARK  status: ('A' for Active; 'I' for Inactive)
REMARK    1  A    between atoms: CB_1  and  CA_2
REMARK    2  A    between atoms: CA_2  and  N_3
REMARK    3  A    between atoms: CA_2  and  C_18
REMARK    4  A    between atoms: C_4  and  C_6
REMARK    5  A    between atoms: C_6  and  C_8
REMARK    6  A    between atoms: C_18  and  OXT_20
REMARK                            x       y       z     vdW  Elec       q    Type
REMARK                         _______ _______ _______ _____ _____    ______ ____
ROOT
ATOM      1  C   UNK A   0       6.730   6.260  17.292  0.00  0.00    +0.000 C 
ATOM      2  O   UNK A   0       7.609   6.933  17.828  0.00  0.00    +0.000 OA
ENDROOT
BRANCH   1   3
ATOM      3  C   UNK A   0       5.318   6.317  17.671  0.00  0.00    +0.000 A 
ATOM      4  C   UNK A   0       4.438   7.320  17.292  0.00  0.00    +0.000 A 
ATOM      5  N   UNK A   0       3.202   7.034  17.799  0.00  0.00    +0.000 N 
ATOM      6  C   UNK A   0       3.242   5.857  18.505  0.00  0.00    +0.000 A 
ATOM      7  C   UNK A   0       2.211   5.194  19.182  0.00  0.00    +0.000 A 
ATOM      8  C   UNK A   0       2.527   3.999  19.828  0.00  0.00    +0.000 A 
ATOM      9  C   UNK A   0       3.827   3.496  19.793  0.00  0.00    +0.000 A 
ATOM     10 CL   UNK A   0       4.176   2.017  20.603  0.00  0.00    +0.000 Cl
ATOM     11  C   UNK A   0       4.849   4.170  19.114  0.00  0.00    +0.000 A 
ATOM     12  C   UNK A   0       4.555   5.382  18.451  0.00  0.00    +0.000 A 
ATOM     13  H   UNK A   0       2.376   7.604  17.673  0.00  0.00    +0.000 HD
ENDBRANCH   1   3
BRANCH   1  15
ATOM     14  N   ALA A   1       6.674   5.372  15.004  0.00  0.00    +0.000 N 
ATOM     15  C   UNK A   0       7.190   5.197  16.278  0.00  0.00    +0.000 C 
ATOM     16  O   UNK A   0       7.990   4.329  16.587  0.00  0.00    +0.000 OA
ATOM     17  H   ALA A   1       5.796   5.890  14.950  0.00  0.00    +0.000 HD
BRANCH  14  19
ATOM     18  CB  ALA A   1       5.811   3.703  13.385  0.00  0.00    +0.000 C 
ATOM     19  CA  ALA A   1       7.026   4.444  13.920  0.00  0.00    +0.000 C 
BRANCH  19  20
ATOM     20  C   ALA A   1       7.763   5.194  12.801  0.00  0.00    +0.000 C 
ATOM     21  O   ALA A   1       7.553   5.058  11.606  0.00  0.00    +0.000 OA
BRANCH  20  22
ATOM     22  OXT ALA A   1       8.771   5.974  13.273  0.00  0.00    +0.000 OA
ATOM     23  HXT ALA A   1       9.550   5.919  12.683  0.00  0.00    +0.000 HD
ENDBRANCH  20  22
ENDBRANCH  19  20
ENDBRANCH  14  19
ENDBRANCH   1  15
TORSDOF 5
ENDMDL
