MODEL 1
REMARK VINA RESULT:      -8.0      0.000      0.000
REMARK  Name = 
REMARK  5 active torsions:
REMARK  status: ('A' for Active; 'I' for Inactive)
REMARK    1  A    between atoms: N_1  and  C_2
REMARK    2  A    between atoms: C_6  and  C_8
REMARK    3  A    between atoms: N_13  and  S_14
REMARK    4  A    between atoms: S_14  and  C_17
REMARK    5  A    between atoms: C_20  and  C_21
REMARK                            x       y       z     vdW  Elec       q    Type
REMARK                         _______ _______ _______ _____ _____    ______ ____
ROOT
ATOM      1  C   UNL     1      -0.682  12.385  19.517  0.00  0.00    +0.000 C 
ATOM      2  C   UNL     1      -0.534  13.462  18.440  0.00  0.00    +0.000 C 
ATOM      3  C   UNL     1       0.550  14.465  18.815  0.00  0.00    +0.000 C 
ATOM      4  C   UNL     1       1.872  13.753  19.084  0.00  0.00    +0.000 C 
ATOM      5  C   UNL     1       1.757  12.566  20.049  0.00  0.00    +0.000 C 
ATOM      6  N   UNL     1       0.634  11.663  19.658  0.00  0.00    +0.000 NA
ENDROOT
BRANCH   1  11
ATOM      7  C   UNL     1      -4.979  12.675  20.867  0.00  0.00    +0.000 C 
ATOM      8  C   UNL     1      -4.523  12.877  22.316  0.00  0.00    +0.000 C 
ATOM      9  C   UNL     1      -3.193  13.595  22.187  0.00  0.00    +0.000 C 
ATOM     10  N   UNL     1      -2.613  13.022  20.990  0.00  0.00    +0.000 N 
ATOM     11  C   UNL     1      -1.249  12.994  20.816  0.00  0.00    +0.000 C 
ATOM     12  O   UNL     1      -0.511  13.502  21.665  0.00  0.00    +0.000 OA
ATOM     13  C   UNL     1      -3.660  12.620  20.061  0.00  0.00    +0.000 C 
BRANCH   7  14
ATOM     14  N   UNL     1      -5.863  13.766  20.446  0.00  0.00    +0.000 NA
ATOM     15  H   UNL     1      -5.804  14.526  21.124  0.00  0.00    +0.000 HD
ATOM     16  H   UNL     1      -6.833  13.451  20.467  0.00  0.00    +0.000 HD
ENDBRANCH   7  14
ENDBRANCH   1  11
BRANCH   6  17
ATOM     17  S   UNL     1       0.482  10.231  20.590  0.00  0.00    +0.000 S 
ATOM     18  O   UNL     1       1.144  10.431  21.854  0.00  0.00    +0.000 OA
ATOM     19  O   UNL     1      -0.909   9.826  20.543  0.00  0.00    +0.000 OA
BRANCH  17  20
ATOM     20  C   UNL     1       1.396   9.012  19.677  0.00  0.00    +0.000 A 
ATOM     21  C   UNL     1       1.796   9.279  18.369  0.00  0.00    +0.000 A 
ATOM     22  C   UNL     1       2.541   8.326  17.663  0.00  0.00    +0.000 A 
ATOM     23  C   UNL     1       2.917   7.097  18.243  0.00  0.00    +0.000 A 
ATOM     24  C   UNL     1       2.513   6.871  19.576  0.00  0.00    +0.000 A 
ATOM     25  C   UNL     1       1.756   7.813  20.289  0.00  0.00    +0.000 A 
BRANCH  23  26
ATOM     26  C   UNL     1       3.688   6.086  17.472  0.00  0.00    +0.000 A 
ATOM     27  C   UNL     1       3.453   4.704  17.620  0.00  0.00    +0.000 A 
ATOM     28  C   UNL     1       4.215   3.750  16.936  0.00  0.00    +0.000 A 
ATOM     29  C   UNL     1       5.222   4.154  16.067  0.00  0.00    +0.000 A 
ATOM     30  C   UNL     1       5.464   5.510  15.882  0.00  0.00    +0.000 A 
ATOM     31  C   UNL     1       4.710   6.461  16.580  0.00  0.00    +0.000 A 
ENDBRANCH  23  26
ENDBRANCH  17  20
ENDBRANCH   6  17
TORSDOF 5
ENDMDL
MODEL 2
REMARK VINA RESULT:      -7.9      0.227      1.282
REMARK  Name = 
REMARK  5 active torsions:
REMARK  status: ('A' for Active; 'I' for Inactive)
REMARK    1  A    between atoms: N_1  and  C_2
REMARK    2  A    between atoms: C_6  and  C_8
REMARK    3  A    between atoms: N_13  and  S_14
REMARK    4  A    between atoms: S_14  and  C_17
REMARK    5  A    between atoms: C_20  and  C_21
REMARK                            x       y       z     vdW  Elec       q    Type
REMARK                         _______ _______ _______ _____ _____    ______ ____
ROOT
ATOM      1  C   UNL     1      -0.621  12.670  19.537  0.00  0.00    +0.000 C 
ATOM      2  C   UNL     1      -0.368  13.779  18.512  0.00  0.00    +0.000 C 
ATOM      3  C   UNL     1       0.775  14.684  18.957  0.00  0.00    +0.000 C 
ATOM      4  C   UNL     1       2.035  13.867  19.225  0.00  0.00    +0.000 C 
ATOM      5  C   UNL     1       1.810  12.652  20.132  0.00  0.00    +0.000 C 
ATOM      6  N   UNL     1       0.637  11.850  19.675  0.00  0.00    +0.000 NA
ENDROOT
BRANCH   1  11
ATOM      7  C   UNL     1      -4.872  12.696  21.053  0.00  0.00    +0.000 C 
ATOM      8  C   UNL     1      -4.374  12.954  22.479  0.00  0.00    +0.000 C 
ATOM      9  C   UNL     1      -3.102  13.757  22.287  0.00  0.00    +0.000 C 
ATOM     10  N   UNL     1      -2.532  13.203  21.076  0.00  0.00    +0.000 N 
ATOM     11  C   UNL     1      -1.177  13.264  20.848  0.00  0.00    +0.000 C 
ATOM     12  O   UNL     1      -0.442  13.835  21.659  0.00  0.00    +0.000 OA
ATOM     13  C   UNL     1      -3.584  12.715  20.196  0.00  0.00    +0.000 C 
BRANCH   7  14
ATOM     14  N   UNL     1      -5.843  13.717  20.651  0.00  0.00    +0.000 NA
ATOM     15  H   UNL     1      -5.879  14.446  21.366  0.00  0.00    +0.000 HD
ATOM     16  H   UNL     1      -6.778  13.311  20.623  0.00  0.00    +0.000 HD
ENDBRANCH   7  14
ENDBRANCH   1  11
BRANCH   6  17
ATOM     17  S   UNL     1       0.358  10.395  20.540  0.00  0.00    +0.000 S 
ATOM     18  O   UNL     1       0.900  10.535  21.867  0.00  0.00    +0.000 OA
ATOM     19  O   UNL     1      -1.032  10.032  20.346  0.00  0.00    +0.000 OA
BRANCH  17  20
ATOM     20  C   UNL     1       1.324   9.179  19.677  0.00  0.00    +0.000 A 
ATOM     21  C   UNL     1       1.695   8.000  20.321  0.00  0.00    +0.000 A 
ATOM     22  C   UNL     1       2.433   7.033  19.628  0.00  0.00    +0.000 A 
ATOM     23  C   UNL     1       2.805   7.207  18.279  0.00  0.00    +0.000 A 
ATOM     24  C   UNL     1       2.394   8.402  17.653  0.00  0.00    +0.000 A 
ATOM     25  C   UNL     1       1.665   9.384  18.341  0.00  0.00    +0.000 A 
BRANCH  23  26
ATOM     26  C   UNL     1       3.609   6.180  17.564  0.00  0.00    +0.000 A 
ATOM     27  C   UNL     1       4.686   6.533  16.726  0.00  0.00    +0.000 A 
ATOM     28  C   UNL     1       5.408   5.572  16.010  0.00  0.00    +0.000 A 
ATOM     29  C   UNL     1       5.085   4.225  16.129  0.00  0.00    +0.000 A 
ATOM     30  C   UNL     1       4.042   3.842  16.964  0.00  0.00    +0.000 A 
ATOM     31  C   UNL     1       3.312   4.808  17.667  0.00  0.00    +0.000 A 
ENDBRANCH  23  26
ENDBRANCH  17  20
ENDBRANCH   6  17
TORSDOF 5
ENDMDL
MODEL 3
REMARK VINA RESULT:      -7.9      0.691      1.193
REMARK  Name = 
REMARK  5 active torsions:
REMARK  status: ('A' for Active; 'I' for Inactive)
REMARK    1  A    between atoms: N_1  and  C_2
REMARK    2  A    between atoms: C_6  and  C_8
REMARK    3  A    between atoms: N_13  and  S_14
REMARK    4  A    between atoms: S_14  and  C_17
REMARK    5  A    between atoms: C_20  and  C_21
REMARK                            x       y       z     vdW  Elec       q    Type
REMARK                         _______ _______ _______ _____ _____    ______ ____
ROOT
ATOM      1  C   UNL     1      -0.720  11.985  19.258  0.00  0.00    +0.000 C 
ATOM      2  C   UNL     1      -0.502  13.094  18.226  0.00  0.00    +0.000 C 
ATOM      3  C   UNL     1       0.270  14.261  18.831  0.00  0.00    +0.000 C 
ATOM      4  C   UNL     1       1.589  13.780  19.427  0.00  0.00    +0.000 C 
ATOM      5  C   UNL     1       1.449  12.572  20.360  0.00  0.00    +0.000 C 
ATOM      6  N   UNL     1       0.627  11.497  19.729  0.00  0.00    +0.000 NA
ENDROOT
BRANCH   1  11
ATOM      7  C   UNL     1      -5.228  12.195  19.202  0.00  0.00    +0.000 C 
ATOM      8  C   UNL     1      -5.257  12.235  20.733  0.00  0.00    +0.000 C 
ATOM      9  C   UNL     1      -3.970  12.942  21.109  0.00  0.00    +0.000 C 
ATOM     10  N   UNL     1      -3.030  12.492  20.103  0.00  0.00    +0.000 N 
ATOM     11  C   UNL     1      -1.680  12.461  20.368  0.00  0.00    +0.000 C 
ATOM     12  O   UNL     1      -1.258  12.864  21.456  0.00  0.00    +0.000 OA
ATOM     13  C   UNL     1      -3.721  12.206  18.854  0.00  0.00    +0.000 C 
BRANCH   7  14
ATOM     14  N   UNL     1      -5.954  13.338  18.640  0.00  0.00    +0.000 NA
ATOM     15  H   UNL     1      -6.126  14.022  19.379  0.00  0.00    +0.000 HD
ATOM     16  H   UNL     1      -6.876  13.038  18.322  0.00  0.00    +0.000 HD
ENDBRANCH   7  14
ENDBRANCH   1  11
BRANCH   6  17
ATOM     17  S   UNL     1       0.501  10.042  20.628  0.00  0.00    +0.000 S 
ATOM     18  O   UNL     1       1.133  10.234  21.908  0.00  0.00    +0.000 OA
ATOM     19  O   UNL     1      -0.875   9.596  20.544  0.00  0.00    +0.000 OA
BRANCH  17  20
ATOM     20  C   UNL     1       1.471   8.872  19.707  0.00  0.00    +0.000 A 
ATOM     21  C   UNL     1       1.844   7.664  20.293  0.00  0.00    +0.000 A 
ATOM     22  C   UNL     1       2.584   6.733  19.554  0.00  0.00    +0.000 A 
ATOM     23  C   UNL     1       2.957   6.973  18.216  0.00  0.00    +0.000 A 
ATOM     24  C   UNL     1       2.544   8.197  17.648  0.00  0.00    +0.000 A 
ATOM     25  C   UNL     1       1.812   9.143  18.383  0.00  0.00    +0.000 A 
BRANCH  23  26
ATOM     26  C   UNL     1       3.763   5.984  17.452  0.00  0.00    +0.000 A 
ATOM     27  C   UNL     1       3.563   4.597  17.595  0.00  0.00    +0.000 A 
ATOM     28  C   UNL     1       4.358   3.665  16.918  0.00  0.00    +0.000 A 
ATOM     29  C   UNL     1       5.364   4.096  16.061  0.00  0.00    +0.000 A 
ATOM     30  C   UNL     1       5.573   5.460  15.882  0.00  0.00    +0.000 A 
ATOM     31  C   UNL     1       4.786   6.389  16.573  0.00  0.00    +0.000 A 
ENDBRANCH  23  26
ENDBRANCH  17  20
ENDBRANCH   6  17
TORSDOF 5
ENDMDL
MODEL 4
REMARK VINA RESULT:      -7.8      1.309      1.771
REMARK  Name = 
REMARK  5 active torsions:
REMARK  status: ('A' for Active; 'I' for Inactive)
REMARK    1  A    between atoms: N_1  and  C_2
REMARK    2  A    between atoms: C_6  and  C_8
REMARK    3  A    between atoms: N_13  and  S_14
REMARK    4  A    between atoms: S_14  and  C_17
REMARK    5  A    between atoms: C_20  and  C_21
REMARK                            x       y       z     vdW  Elec       q    Type
REMARK                         _______ _______ _______ _____ _____    ______ ____
ROOT
ATOM      1  C   UNL     1      -0.768  12.085  18.947  0.00  0.00    +0.000 C 
ATOM      2  C   UNL     1      -0.375  13.199  17.974  0.00  0.00    +0.000 C 
ATOM      3  C   UNL     1       0.056  14.454  18.723  0.00  0.00    +0.000 C 
ATOM      4  C   UNL     1       1.185  14.136  19.699  0.00  0.00    +0.000 C 
ATOM      5  C   UNL     1       0.905  12.931  20.605  0.00  0.00    +0.000 C 
ATOM      6  N   UNL     1       0.425  11.762  19.812  0.00  0.00    +0.000 NA
ENDROOT
BRANCH   1  11
ATOM      7  C   UNL     1      -5.057  11.212  17.845  0.00  0.00    +0.000 C 
ATOM      8  C   UNL     1      -5.489  11.444  19.296  0.00  0.00    +0.000 C 
ATOM      9  C   UNL     1      -4.509  12.479  19.813  0.00  0.00    +0.000 C 
ATOM     10  N   UNL     1      -3.270  12.136  19.145  0.00  0.00    +0.000 N 
ATOM     11  C   UNL     1      -2.058  12.461  19.706  0.00  0.00    +0.000 C 
ATOM     12  O   UNL     1      -2.020  13.092  20.766  0.00  0.00    +0.000 OA
ATOM     13  C   UNL     1      -3.543  11.535  17.847  0.00  0.00    +0.000 C 
BRANCH   7  14
ATOM     14  N   UNL     1      -5.823  12.067  16.933  0.00  0.00    +0.000 NA
ATOM     15  H   UNL     1      -5.979  11.567  16.057  0.00  0.00    +0.000 HD
ATOM     16  H   UNL     1      -5.272  12.889  16.687  0.00  0.00    +0.000 HD
ENDBRANCH   7  14
ENDBRANCH   1  11
BRANCH   6  17
ATOM     17  S   UNL     1       0.195  10.313  20.700  0.00  0.00    +0.000 S 
ATOM     18  O   UNL     1       0.780  10.475  22.007  0.00  0.00    +0.000 OA
ATOM     19  O   UNL     1      -1.196   9.929  20.557  0.00  0.00    +0.000 OA
BRANCH  17  20
ATOM     20  C   UNL     1       1.149   9.100  19.818  0.00  0.00    +0.000 A 
ATOM     21  C   UNL     1       1.468   9.308  18.478  0.00  0.00    +0.000 A 
ATOM     22  C   UNL     1       2.243   8.363  17.795  0.00  0.00    +0.000 A 
ATOM     23  C   UNL     1       2.730   7.202  18.429  0.00  0.00    +0.000 A 
ATOM     24  C   UNL     1       2.405   7.035  19.792  0.00  0.00    +0.000 A 
ATOM     25  C   UNL     1       1.619   7.969  20.484  0.00  0.00    +0.000 A 
BRANCH  23  26
ATOM     26  C   UNL     1       3.533   6.196  17.683  0.00  0.00    +0.000 A 
ATOM     27  C   UNL     1       4.643   6.568  16.899  0.00  0.00    +0.000 A 
ATOM     28  C   UNL     1       5.366   5.630  16.153  0.00  0.00    +0.000 A 
ATOM     29  C   UNL     1       5.009   4.287  16.188  0.00  0.00    +0.000 A 
ATOM     30  C   UNL     1       3.932   3.884  16.970  0.00  0.00    +0.000 A 
ATOM     31  C   UNL     1       3.202   4.828  17.702  0.00  0.00    +0.000 A 
ENDBRANCH  23  26
ENDBRANCH  17  20
ENDBRANCH   6  17
TORSDOF 5
ENDMDL
MODEL 5
REMARK VINA RESULT:      -7.8      0.866      1.312
REMARK  Name = 
REMARK  5 active torsions:
REMARK  status: ('A' for Active; 'I' for Inactive)
REMARK    1  A    between atoms: N_1  and  C_2
REMARK    2  A    between atoms: C_6  and  C_8
REMARK    3  A    between atoms: N_13  and  S_14
REMARK    4  A    between atoms: S_14  and  C_17
REMARK    5  A    between atoms: C_20  and  C_21
REMARK                            x       y       z     vdW  Elec       q    Type
REMARK                         _______ _______ _______ _____ _____    ______ ____
ROOT
ATOM      1  C   UNL     1      -1.095  11.798  20.306  0.00  0.00    +0.000 C 
ATOM      2  C   UNL     1      -1.392  12.831  19.216  0.00  0.00    +0.000 C 
ATOM      3  C   UNL     1      -0.305  13.898  19.162  0.00  0.00    +0.000 C 
ATOM      4  C   UNL     1       1.067  13.258  18.973  0.00  0.00    +0.000 C 
ATOM      5  C   UNL     1       1.362  12.113  19.949  0.00  0.00    +0.000 C 
ATOM      6  N   UNL     1       0.228  11.143  19.999  0.00  0.00    +0.000 NA
ENDROOT
BRANCH   1  11
ATOM      7  C   UNL     1      -4.813  12.844  22.641  0.00  0.00    +0.000 C 
ATOM      8  C   UNL     1      -4.001  12.883  23.940  0.00  0.00    +0.000 C 
ATOM      9  C   UNL     1      -2.623  13.336  23.500  0.00  0.00    +0.000 C 
ATOM     10  N   UNL     1      -2.464  12.723  22.198  0.00  0.00    +0.000 N 
ATOM     11  C   UNL     1      -1.211  12.441  21.704  0.00  0.00    +0.000 C 
ATOM     12  O   UNL     1      -0.209  12.754  22.354  0.00  0.00    +0.000 OA
ATOM     13  C   UNL     1      -3.756  12.576  21.544  0.00  0.00    +0.000 C 
BRANCH   7  14
ATOM     14  N   UNL     1      -5.536  14.104  22.445  0.00  0.00    +0.000 NA
ATOM     15  H   UNL     1      -5.435  14.682  23.280  0.00  0.00    +0.000 HD
ATOM     16  H   UNL     1      -6.535  13.918  22.357  0.00  0.00    +0.000 HD
ENDBRANCH   7  14
ENDBRANCH   1  11
BRANCH   6  17
ATOM     17  S   UNL     1       0.490   9.750  20.965  0.00  0.00    +0.000 S 
ATOM     18  O   UNL     1       1.308  10.119  22.093  0.00  0.00    +0.000 OA
ATOM     19  O   UNL     1      -0.794   9.108  21.163  0.00  0.00    +0.000 OA
BRANCH  17  20
ATOM     20  C   UNL     1       1.443   8.668  19.926  0.00  0.00    +0.000 A 
ATOM     21  C   UNL     1       1.792   9.070  18.638  0.00  0.00    +0.000 A 
ATOM     22  C   UNL     1       2.567   8.225  17.834  0.00  0.00    +0.000 A 
ATOM     23  C   UNL     1       3.024   6.974  18.294  0.00  0.00    +0.000 A 
ATOM     24  C   UNL     1       2.669   6.609  19.610  0.00  0.00    +0.000 A 
ATOM     25  C   UNL     1       1.884   7.442  20.421  0.00  0.00    +0.000 A 
BRANCH  23  26
ATOM     26  C   UNL     1       3.826   6.078  17.418  0.00  0.00    +0.000 A 
ATOM     27  C   UNL     1       4.730   6.589  16.465  0.00  0.00    +0.000 A 
ATOM     28  C   UNL     1       5.444   5.749  15.603  0.00  0.00    +0.000 A 
ATOM     29  C   UNL     1       5.290   4.370  15.686  0.00  0.00    +0.000 A 
ATOM     30  C   UNL     1       4.422   3.833  16.632  0.00  0.00    +0.000 A 
ATOM     31  C   UNL     1       3.698   4.678  17.481  0.00  0.00    +0.000 A 
ENDBRANCH  23  26
ENDBRANCH  17  20
ENDBRANCH   6  17
TORSDOF 5
ENDMDL
MODEL 6
REMARK VINA RESULT:      -7.8      0.782      1.243
REMARK  Name = 
REMARK  5 active torsions:
REMARK  status: ('A' for Active; 'I' for Inactive)
REMARK    1  A    between atoms: N_1  and  C_2
REMARK    2  A    between atoms: C_6  and  C_8
REMARK    3  A    between atoms: N_13  and  S_14
REMARK    4  A    between atoms: S_14  and  C_17
REMARK    5  A    between atoms: C_20  and  C_21
REMARK                            x       y       z     vdW  Elec       q    Type
REMARK                         _______ _______ _______ _____ _____    ______ ____
ROOT
ATOM      1  C   UNL     1      -0.849  12.299  20.302  0.00  0.00    +0.000 C 
ATOM      2  C   UNL     1      -0.915  13.415  19.257  0.00  0.00    +0.000 C 
ATOM      3  C   UNL     1       0.280  14.352  19.381  0.00  0.00    +0.000 C 
ATOM      4  C   UNL     1       1.587  13.571  19.288  0.00  0.00    +0.000 C 
ATOM      5  C   UNL     1       1.651  12.349  20.212  0.00  0.00    +0.000 C 
ATOM      6  N   UNL     1       0.420  11.514  20.086  0.00  0.00    +0.000 NA
ENDROOT
BRANCH   1  11
ATOM      7  C   UNL     1      -4.676  12.886  22.622  0.00  0.00    +0.000 C 
ATOM      8  C   UNL     1      -3.885  12.957  23.932  0.00  0.00    +0.000 C 
ATOM      9  C   UNL     1      -2.554  13.560  23.528  0.00  0.00    +0.000 C 
ATOM     10  N   UNL     1      -2.321  13.013  22.207  0.00  0.00    +0.000 N 
ATOM     11  C   UNL     1      -1.042  12.874  21.721  0.00  0.00    +0.000 C 
ATOM     12  O   UNL     1      -0.083  13.261  22.395  0.00  0.00    +0.000 OA
ATOM     13  C   UNL     1      -3.586  12.764  21.531  0.00  0.00    +0.000 C 
BRANCH   7  14
ATOM     14  N   UNL     1      -5.518  14.076  22.461  0.00  0.00    +0.000 NA
ATOM     15  H   UNL     1      -4.993  14.791  21.956  0.00  0.00    +0.000 HD
ATOM     16  H   UNL     1      -5.724  14.478  23.375  0.00  0.00    +0.000 HD
ENDBRANCH   7  14
ENDBRANCH   1  11
BRANCH   6  17
ATOM     17  S   UNL     1       0.427  10.051  20.980  0.00  0.00    +0.000 S 
ATOM     18  O   UNL     1       1.155  10.262  22.205  0.00  0.00    +0.000 OA
ATOM     19  O   UNL     1      -0.933   9.550  21.008  0.00  0.00    +0.000 OA
BRANCH  17  20
ATOM     20  C   UNL     1       1.361   8.924  19.973  0.00  0.00    +0.000 A 
ATOM     21  C   UNL     1       1.820   7.725  20.514  0.00  0.00    +0.000 A 
ATOM     22  C   UNL     1       2.532   6.828  19.709  0.00  0.00    +0.000 A 
ATOM     23  C   UNL     1       2.790   7.093  18.349  0.00  0.00    +0.000 A 
ATOM     24  C   UNL     1       2.293   8.307  17.830  0.00  0.00    +0.000 A 
ATOM     25  C   UNL     1       1.588   9.219  18.630  0.00  0.00    +0.000 A 
BRANCH  23  26
ATOM     26  C   UNL     1       3.569   6.140  17.513  0.00  0.00    +0.000 A 
ATOM     27  C   UNL     1       3.336   4.751  17.561  0.00  0.00    +0.000 A 
ATOM     28  C   UNL     1       4.104   3.849  16.815  0.00  0.00    +0.000 A 
ATOM     29  C   UNL     1       5.116   4.315  15.984  0.00  0.00    +0.000 A 
ATOM     30  C   UNL     1       5.356   5.682  15.898  0.00  0.00    +0.000 A 
ATOM     31  C   UNL     1       4.596   6.580  16.656  0.00  0.00    +0.000 A 
ENDBRANCH  23  26
ENDBRANCH  17  20
ENDBRANCH   6  17
TORSDOF 5
ENDMDL
MODEL 7
REMARK VINA RESULT:      -7.8      1.179      1.425
REMARK  Name = 
REMARK  5 active torsions:
REMARK  status: ('A' for Active; 'I' for Inactive)
REMARK    1  A    between atoms: N_1  and  C_2
REMARK    2  A    between atoms: C_6  and  C_8
REMARK    3  A    between atoms: N_13  and  S_14
REMARK    4  A    between atoms: S_14  and  C_17
REMARK    5  A    between atoms: C_20  and  C_21
REMARK                            x       y       z     vdW  Elec       q    Type
REMARK                         _______ _______ _______ _____ _____    ______ ____
ROOT
ATOM      1  C   UNL     1      -0.188  12.074  19.062  0.00  0.00    +0.000 C 
ATOM      2  C   UNL     1       0.332  13.245  18.224  0.00  0.00    +0.000 C 
ATOM      3  C   UNL     1       0.839  14.372  19.115  0.00  0.00    +0.000 C 
ATOM      4  C   UNL     1       1.900  13.857  20.083  0.00  0.00    +0.000 C 
ATOM      5  C   UNL     1       1.487  12.593  20.847  0.00  0.00    +0.000 C 
ATOM      6  N   UNL     1       0.940  11.559  19.919  0.00  0.00    +0.000 NA
ENDROOT
BRANCH   1  11
ATOM      7  C   UNL     1      -4.498  11.454  17.874  0.00  0.00    +0.000 C 
ATOM      8  C   UNL     1      -4.939  11.646  19.329  0.00  0.00    +0.000 C 
ATOM      9  C   UNL     1      -3.918  12.611  19.900  0.00  0.00    +0.000 C 
ATOM     10  N   UNL     1      -2.688  12.237  19.232  0.00  0.00    +0.000 N 
ATOM     11  C   UNL     1      -1.469  12.480  19.821  0.00  0.00    +0.000 C 
ATOM     12  O   UNL     1      -1.416  13.064  20.907  0.00  0.00    +0.000 OA
ATOM     13  C   UNL     1      -2.972  11.703  17.908  0.00  0.00    +0.000 C 
BRANCH   7  14
ATOM     14  N   UNL     1      -5.211  12.381  16.990  0.00  0.00    +0.000 NA
ATOM     15  H   UNL     1      -4.722  12.431  16.095  0.00  0.00    +0.000 HD
ATOM     16  H   UNL     1      -5.175  13.323  17.378  0.00  0.00    +0.000 HD
ENDBRANCH   7  14
ENDBRANCH   1  11
BRANCH   6  17
ATOM     17  S   UNL     1       0.557  10.051  20.641  0.00  0.00    +0.000 S 
ATOM     18  O   UNL     1       1.068  10.041  21.988  0.00  0.00    +0.000 OA
ATOM     19  O   UNL     1      -0.844   9.787  20.382  0.00  0.00    +0.000 OA
BRANCH  17  20
ATOM     20  C   UNL     1       1.481   8.864  19.695  0.00  0.00    +0.000 A 
ATOM     21  C   UNL     1       1.875   9.167  18.394  0.00  0.00    +0.000 A 
ATOM     22  C   UNL     1       2.627   8.240  17.662  0.00  0.00    +0.000 A 
ATOM     23  C   UNL     1       3.015   7.000  18.210  0.00  0.00    +0.000 A 
ATOM     24  C   UNL     1       2.616   6.736  19.537  0.00  0.00    +0.000 A 
ATOM     25  C   UNL     1       1.853   7.653  20.276  0.00  0.00    +0.000 A 
BRANCH  23  26
ATOM     26  C   UNL     1       3.794   6.016  17.411  0.00  0.00    +0.000 A 
ATOM     27  C   UNL     1       3.567   4.629  17.520  0.00  0.00    +0.000 A 
ATOM     28  C   UNL     1       4.336   3.700  16.810  0.00  0.00    +0.000 A 
ATOM     29  C   UNL     1       5.342   4.134  15.954  0.00  0.00    +0.000 A 
ATOM     30  C   UNL     1       5.576   5.497  15.809  0.00  0.00    +0.000 A 
ATOM     31  C   UNL     1       4.815   6.423  16.532  0.00  0.00    +0.000 A 
ENDBRANCH  23  26
ENDBRANCH  17  20
ENDBRANCH   6  17
TORSDOF 5
ENDMDL
MODEL 8
REMARK VINA RESULT:      -7.6      1.953      2.442
REMARK  Name = 
REMARK  5 active torsions:
REMARK  status: ('A' for Active; 'I' for Inactive)
REMARK    1  A    between atoms: N_1  and  C_2
REMARK    2  A    between atoms: C_6  and  C_8
REMARK    3  A    between atoms: N_13  and  S_14
REMARK    4  A    between atoms: S_14  and  C_17
REMARK    5  A    between atoms: C_20  and  C_21
REMARK                            x       y       z     vdW  Elec       q    Type
REMARK                         _______ _______ _______ _____ _____    ______ ____
ROOT
ATOM      1  C   UNL     1       0.292  11.825  18.906  0.00  0.00    +0.000 C 
ATOM      2  C   UNL     1       0.954  13.034  18.239  0.00  0.00    +0.000 C 
ATOM      3  C   UNL     1       0.866  14.267  19.130  0.00  0.00    +0.000 C 
ATOM      4  C   UNL     1       1.467  13.983  20.503  0.00  0.00    +0.000 C 
ATOM      5  C   UNL     1       0.945  12.699  21.159  0.00  0.00    +0.000 C 
ATOM      6  N   UNL     1       1.000  11.549  20.208  0.00  0.00    +0.000 NA
ENDROOT
BRANCH   1  11
ATOM      7  C   UNL     1      -3.007   9.786  16.598  0.00  0.00    +0.000 C 
ATOM      8  C   UNL     1      -4.024  10.192  17.670  0.00  0.00    +0.000 C 
ATOM      9  C   UNL     1      -3.491  11.506  18.206  0.00  0.00    +0.000 C 
ATOM     10  N   UNL     1      -2.054  11.334  18.155  0.00  0.00    +0.000 N 
ATOM     11  C   UNL     1      -1.234  12.035  19.009  0.00  0.00    +0.000 C 
ATOM     12  O   UNL     1      -1.720  12.852  19.796  0.00  0.00    +0.000 OA
ATOM     13  C   UNL     1      -1.687  10.443  17.064  0.00  0.00    +0.000 C 
BRANCH   7  14
ATOM     14  N   UNL     1      -3.439  10.244  15.274  0.00  0.00    +0.000 NA
ATOM     15  H   UNL     1      -4.448  10.111  15.186  0.00  0.00    +0.000 HD
ATOM     16  H   UNL     1      -3.019   9.658  14.553  0.00  0.00    +0.000 HD
ENDBRANCH   7  14
ENDBRANCH   1  11
BRANCH   6  17
ATOM     17  S   UNL     1       0.556  10.028  20.866  0.00  0.00    +0.000 S 
ATOM     18  O   UNL     1       1.043   9.951  22.220  0.00  0.00    +0.000 OA
ATOM     19  O   UNL     1      -0.848   9.819  20.574  0.00  0.00    +0.000 OA
BRANCH  17  20
ATOM     20  C   UNL     1       1.458   8.848  19.890  0.00  0.00    +0.000 A 
ATOM     21  C   UNL     1       1.834   9.166  18.587  0.00  0.00    +0.000 A 
ATOM     22  C   UNL     1       2.568   8.243  17.832  0.00  0.00    +0.000 A 
ATOM     23  C   UNL     1       2.959   6.995  18.358  0.00  0.00    +0.000 A 
ATOM     24  C   UNL     1       2.580   6.716  19.687  0.00  0.00    +0.000 A 
ATOM     25  C   UNL     1       1.833   7.628  20.450  0.00  0.00    +0.000 A 
BRANCH  23  26
ATOM     26  C   UNL     1       3.719   6.017  17.534  0.00  0.00    +0.000 A 
ATOM     27  C   UNL     1       3.519   4.628  17.662  0.00  0.00    +0.000 A 
ATOM     28  C   UNL     1       4.273   3.705  16.928  0.00  0.00    +0.000 A 
ATOM     29  C   UNL     1       5.235   4.148  16.028  0.00  0.00    +0.000 A 
ATOM     30  C   UNL     1       5.442   5.513  15.864  0.00  0.00    +0.000 A 
ATOM     31  C   UNL     1       4.697   6.433  16.611  0.00  0.00    +0.000 A 
ENDBRANCH  23  26
ENDBRANCH  17  20
ENDBRANCH   6  17
TORSDOF 5
ENDMDL
MODEL 9
REMARK VINA RESULT:      -7.6      0.935      1.046
REMARK  Name = 
REMARK  5 active torsions:
REMARK  status: ('A' for Active; 'I' for Inactive)
REMARK    1  A    between atoms: N_1  and  C_2
REMARK    2  A    between atoms: C_6  and  C_8
REMARK    3  A    between atoms: N_13  and  S_14
REMARK    4  A    between atoms: S_14  and  C_17
REMARK    5  A    between atoms: C_20  and  C_21
REMARK                            x       y       z     vdW  Elec       q    Type
REMARK                         _______ _______ _______ _____ _____    ______ ____
ROOT
ATOM      1  C   UNL     1      -0.375  13.278  19.851  0.00  0.00    +0.000 C 
ATOM      2  C   UNL     1      -0.050  14.391  18.851  0.00  0.00    +0.000 C 
ATOM      3  C   UNL     1       1.322  14.993  19.129  0.00  0.00    +0.000 C 
ATOM      4  C   UNL     1       2.394  13.907  19.132  0.00  0.00    +0.000 C 
ATOM      5  C   UNL     1       2.053  12.695  20.007  0.00  0.00    +0.000 C 
ATOM      6  N   UNL     1       0.673  12.201  19.727  0.00  0.00    +0.000 NA
ENDROOT
BRANCH   1  11
ATOM      7  C   UNL     1      -4.011  13.108  22.520  0.00  0.00    +0.000 C 
ATOM      8  C   UNL     1      -3.142  13.414  23.744  0.00  0.00    +0.000 C 
ATOM      9  C   UNL     1      -2.024  14.278  23.195  0.00  0.00    +0.000 C 
ATOM     10  N   UNL     1      -1.793  13.736  21.872  0.00  0.00    +0.000 N 
ATOM     11  C   UNL     1      -0.565  13.863  21.266  0.00  0.00    +0.000 C 
ATOM     12  O   UNL     1       0.339  14.484  21.833  0.00  0.00    +0.000 OA
ATOM     13  C   UNL     1      -3.025  13.180  21.330  0.00  0.00    +0.000 C 
BRANCH   7  14
ATOM     14  N   UNL     1      -5.111  14.071  22.411  0.00  0.00    +0.000 NA
ATOM     15  H   UNL     1      -5.436  14.314  23.348  0.00  0.00    +0.000 HD
ATOM     16  H   UNL     1      -5.907  13.633  21.948  0.00  0.00    +0.000 HD
ENDBRANCH   7  14
ENDBRANCH   1  11
BRANCH   6  17
ATOM     17  S   UNL     1       0.220  10.771  20.557  0.00  0.00    +0.000 S 
ATOM     18  O   UNL     1       0.704  10.851  21.912  0.00  0.00    +0.000 OA
ATOM     19  O   UNL     1      -1.186  10.537  20.289  0.00  0.00    +0.000 OA
BRANCH  17  20
ATOM     20  C   UNL     1       1.116   9.479  19.729  0.00  0.00    +0.000 A 
ATOM     21  C   UNL     1       1.486   9.635  18.395  0.00  0.00    +0.000 A 
ATOM     22  C   UNL     1       2.216   8.627  17.755  0.00  0.00    +0.000 A 
ATOM     23  C   UNL     1       2.607   7.451  18.427  0.00  0.00    +0.000 A 
ATOM     24  C   UNL     1       2.233   7.336  19.783  0.00  0.00    +0.000 A 
ATOM     25  C   UNL     1       1.491   8.335  20.431  0.00  0.00    +0.000 A 
BRANCH  23  26
ATOM     26  C   UNL     1       3.363   6.378  17.726  0.00  0.00    +0.000 A 
ATOM     27  C   UNL     1       2.968   5.027  17.797  0.00  0.00    +0.000 A 
ATOM     28  C   UNL     1       3.710   4.010  17.183  0.00  0.00    +0.000 A 
ATOM     29  C   UNL     1       4.857   4.321  16.462  0.00  0.00    +0.000 A 
ATOM     30  C   UNL     1       5.260   5.648  16.356  0.00  0.00    +0.000 A 
ATOM     31  C   UNL     1       4.525   6.660  16.984  0.00  0.00    +0.000 A 
ENDBRANCH  23  26
ENDBRANCH  17  20
ENDBRANCH   6  17
TORSDOF 5
ENDMDL
