MODEL 1
REMARK VINA RESULT:      -7.5      0.000      0.000
REMARK  Name = 
REMARK  8 active torsions:
REMARK  status: ('A' for Active; 'I' for Inactive)
REMARK    1  A    between atoms: C_1  and  O_2
REMARK    2  A    between atoms: O_2  and  C_3
REMARK    3  A    between atoms: C_9  and  N_10
REMARK    4  A    between atoms: N_13  and  C_14
REMARK    5  A    between atoms: C_14  and  C_15
REMARK    6  A    between atoms: C_15  and  C_16
REMARK    7  A    between atoms: C_16  and  O_17
REMARK    8  A    between atoms: C_16  and  C_18
REMARK                            x       y       z     vdW  Elec       q    Type
REMARK                         _______ _______ _______ _____ _____    ______ ____
ROOT
ATOM      1  N   UNL     1       4.204   3.975  17.583  0.00  0.00    +0.000 N 
ATOM      2  C   UNL     1       3.038   4.844  17.769  0.00  0.00    +0.000 C 
ATOM      3  C   UNL     1       1.748   4.014  17.623  0.00  0.00    +0.000 C 
ATOM      4  N   UNL     1       1.651   2.894  18.593  0.00  0.00    +0.000 NA
ATOM      5  C   UNL     1       2.842   2.030  18.365  0.00  0.00    +0.000 C 
ATOM      6  C   UNL     1       4.224   2.745  18.394  0.00  0.00    +0.000 C 
ENDROOT
BRANCH   1  13
ATOM      7  C   UNL     1       6.510   4.511  16.859  0.00  0.00    +0.000 A 
ATOM      8  C   UNL     1       7.401   4.773  15.807  0.00  0.00    +0.000 A 
ATOM      9  C   UNL     1       6.951   4.769  14.488  0.00  0.00    +0.000 A 
ATOM     10 CL   UNL     1       8.048   5.107  13.206  0.00  0.00    +0.000 Cl
ATOM     11  C   UNL     1       5.627   4.488  14.199  0.00  0.00    +0.000 A 
ATOM     12  C   UNL     1       4.744   4.210  15.240  0.00  0.00    +0.000 A 
ATOM     13  C   UNL     1       5.146   4.216  16.592  0.00  0.00    +0.000 A 
BRANCH   7  15
ATOM     14  C   UNL     1       7.606   5.663  18.652  0.00  0.00    +0.000 C 
ATOM     15  O   UNL     1       6.903   4.520  18.181  0.00  0.00    +0.000 OA
ENDBRANCH   7  15
ENDBRANCH   1  13
BRANCH   4  16
ATOM     16  C   UNL     1       1.597   3.347  20.000  0.00  0.00    +0.000 C 
BRANCH  16  17
ATOM     17  C   UNL     1       0.939   4.727  20.135  0.00  0.00    +0.000 C 
BRANCH  17  18
ATOM     18  C   UNL     1       1.754   5.701  20.986  0.00  0.00    +0.000 C 
BRANCH  18  19
ATOM     19  C   UNL     1       1.274   7.130  20.843  0.00  0.00    +0.000 A 
ATOM     20  C   UNL     1       0.459   7.727  21.785  0.00  0.00    +0.000 A 
ATOM     21  S   UNL     1       0.053   9.333  21.408  0.00  0.00    +0.000 S 
ATOM     22  C   UNL     1       0.958   9.296  19.949  0.00  0.00    +0.000 A 
ATOM     23  C   UNL     1       1.105  10.358  19.033  0.00  0.00    +0.000 A 
ATOM     24  C   UNL     1       1.862  10.167  17.878  0.00  0.00    +0.000 A 
ATOM     25  C   UNL     1       2.462   8.943  17.635  0.00  0.00    +0.000 A 
ATOM     26  C   UNL     1       2.323   7.894  18.551  0.00  0.00    +0.000 A 
ATOM     27  C   UNL     1       1.562   8.049  19.744  0.00  0.00    +0.000 A 
ENDBRANCH  18  19
BRANCH  18  28
ATOM     28  O   UNL     1       3.142   5.586  20.672  0.00  0.00    +0.000 OA
ATOM     29  H   UNL     1       3.529   6.475  20.714  0.00  0.00    +0.000 HD
ENDBRANCH  18  28
ENDBRANCH  17  18
ENDBRANCH  16  17
ENDBRANCH   4  16
TORSDOF 7
ENDMDL
MODEL 2
REMARK VINA RESULT:      -7.5      1.225      2.059
REMARK  Name = 
REMARK  8 active torsions:
REMARK  status: ('A' for Active; 'I' for Inactive)
REMARK    1  A    between atoms: C_1  and  O_2
REMARK    2  A    between atoms: O_2  and  C_3
REMARK    3  A    between atoms: C_9  and  N_10
REMARK    4  A    between atoms: N_13  and  C_14
REMARK    5  A    between atoms: C_14  and  C_15
REMARK    6  A    between atoms: C_15  and  C_16
REMARK    7  A    between atoms: C_16  and  O_17
REMARK    8  A    between atoms: C_16  and  C_18
REMARK                            x       y       z     vdW  Elec       q    Type
REMARK                         _______ _______ _______ _____ _____    ______ ____
ROOT
ATOM      1  N   UNL     1       4.212   4.368  17.663  0.00  0.00    +0.000 N 
ATOM      2  C   UNL     1       2.976   5.153  17.744  0.00  0.00    +0.000 C 
ATOM      3  C   UNL     1       1.761   4.205  17.726  0.00  0.00    +0.000 C 
ATOM      4  N   UNL     1       1.760   3.222  18.839  0.00  0.00    +0.000 NA
ATOM      5  C   UNL     1       3.020   2.439  18.715  0.00  0.00    +0.000 C 
ATOM      6  C   UNL     1       4.337   3.264  18.631  0.00  0.00    +0.000 C 
ENDROOT
BRANCH   1  13
ATOM      7  C   UNL     1       6.270   5.391  16.745  0.00  0.00    +0.000 A 
ATOM      8  C   UNL     1       7.140   5.553  15.655  0.00  0.00    +0.000 A 
ATOM      9  C   UNL     1       6.882   4.908  14.448  0.00  0.00    +0.000 A 
ATOM     10 CL   UNL     1       7.947   5.124  13.114  0.00  0.00    +0.000 Cl
ATOM     11  C   UNL     1       5.776   4.086  14.314  0.00  0.00    +0.000 A 
ATOM     12  C   UNL     1       4.920   3.910  15.399  0.00  0.00    +0.000 A 
ATOM     13  C   UNL     1       5.129   4.552  16.637  0.00  0.00    +0.000 A 
BRANCH   7  15
ATOM     14  C   UNL     1       7.613   5.639  18.715  0.00  0.00    +0.000 C 
ATOM     15  O   UNL     1       6.474   6.022  17.954  0.00  0.00    +0.000 OA
ENDBRANCH   7  15
ENDBRANCH   1  13
BRANCH   4  16
ATOM     16  C   UNL     1       1.668   3.855  20.173  0.00  0.00    +0.000 C 
BRANCH  16  17
ATOM     17  C   UNL     1       1.026   5.247  20.106  0.00  0.00    +0.000 C 
BRANCH  17  18
ATOM     18  C   UNL     1       1.874   6.332  20.768  0.00  0.00    +0.000 C 
BRANCH  18  19
ATOM     19  C   UNL     1       1.467   7.724  20.333  0.00  0.00    +0.000 A 
ATOM     20  C   UNL     1       1.784   8.223  19.084  0.00  0.00    +0.000 A 
ATOM     21  S   UNL     1       1.221   9.805  18.825  0.00  0.00    +0.000 S 
ATOM     22  C   UNL     1       0.525   9.892  20.392  0.00  0.00    +0.000 A 
ATOM     23  C   UNL     1      -0.177  10.990  20.932  0.00  0.00    +0.000 A 
ATOM     24  C   UNL     1      -0.670  10.914  22.234  0.00  0.00    +0.000 A 
ATOM     25  C   UNL     1      -0.470   9.770  22.989  0.00  0.00    +0.000 A 
ATOM     26  C   UNL     1       0.218   8.678  22.446  0.00  0.00    +0.000 A 
ATOM     27  C   UNL     1       0.734   8.713  21.119  0.00  0.00    +0.000 A 
ENDBRANCH  18  19
BRANCH  18  28
ATOM     28  O   UNL     1       3.260   6.094  20.518  0.00  0.00    +0.000 OA
ATOM     29  H   UNL     1       3.343   5.204  20.140  0.00  0.00    +0.000 HD
ENDBRANCH  18  28
ENDBRANCH  17  18
ENDBRANCH  16  17
ENDBRANCH   4  16
TORSDOF 7
ENDMDL
MODEL 3
REMARK VINA RESULT:      -7.4      5.715      7.680
REMARK  Name = 
REMARK  8 active torsions:
REMARK  status: ('A' for Active; 'I' for Inactive)
REMARK    1  A    between atoms: C_1  and  O_2
REMARK    2  A    between atoms: O_2  and  C_3
REMARK    3  A    between atoms: C_9  and  N_10
REMARK    4  A    between atoms: N_13  and  C_14
REMARK    5  A    between atoms: C_14  and  C_15
REMARK    6  A    between atoms: C_15  and  C_16
REMARK    7  A    between atoms: C_16  and  O_17
REMARK    8  A    between atoms: C_16  and  C_18
REMARK                            x       y       z     vdW  Elec       q    Type
REMARK                         _______ _______ _______ _____ _____    ______ ____
ROOT
ATOM      1  N   UNL     1       5.303   5.866  18.541  0.00  0.00    +0.000 N 
ATOM      2  C   UNL     1       6.604   5.494  19.105  0.00  0.00    +0.000 C 
ATOM      3  C   UNL     1       7.692   5.627  18.023  0.00  0.00    +0.000 C 
ATOM      4  N   UNL     1       7.805   6.997  17.461  0.00  0.00    +0.000 NA
ATOM      5  C   UNL     1       6.473   7.332  16.888  0.00  0.00    +0.000 C 
ATOM      6  C   UNL     1       5.253   7.162  17.840  0.00  0.00    +0.000 C 
ENDROOT
BRANCH   1  13
ATOM      7  C   UNL     1       3.800   4.290  17.366  0.00  0.00    +0.000 A 
ATOM      8  C   UNL     1       2.688   3.434  17.419  0.00  0.00    +0.000 A 
ATOM      9  C   UNL     1       1.982   3.274  18.609  0.00  0.00    +0.000 A 
ATOM     10 CL   UNL     1       0.612   2.234  18.661  0.00  0.00    +0.000 Cl
ATOM     11  C   UNL     1       2.379   3.939  19.756  0.00  0.00    +0.000 A 
ATOM     12  C   UNL     1       3.492   4.776  19.711  0.00  0.00    +0.000 A 
ATOM     13  C   UNL     1       4.231   4.984  18.528  0.00  0.00    +0.000 A 
BRANCH   7  15
ATOM     14  C   UNL     1       5.578   3.589  15.919  0.00  0.00    +0.000 C 
ATOM     15  O   UNL     1       4.520   4.495  16.208  0.00  0.00    +0.000 OA
ENDBRANCH   7  15
ENDBRANCH   1  13
BRANCH   4  16
ATOM     16  C   UNL     1       8.211   8.005  18.465  0.00  0.00    +0.000 C 
BRANCH  16  17
ATOM     17  C   UNL     1       8.466   9.379  17.831  0.00  0.00    +0.000 C 
BRANCH  17  18
ATOM     18  C   UNL     1       8.720  10.478  18.861  0.00  0.00    +0.000 C 
BRANCH  18  19
ATOM     19  C   UNL     1       9.569  11.602  18.304  0.00  0.00    +0.000 A 
ATOM     20  C   UNL     1      10.805  11.373  17.732  0.00  0.00    +0.000 A 
ATOM     21  S   UNL     1      11.568  12.786  17.179  0.00  0.00    +0.000 S 
ATOM     22  C   UNL     1      10.263  13.777  17.691  0.00  0.00    +0.000 A 
ATOM     23  C   UNL     1      10.175  15.178  17.547  0.00  0.00    +0.000 A 
ATOM     24  C   UNL     1       9.052  15.847  18.032  0.00  0.00    +0.000 A 
ATOM     25  C   UNL     1       8.034  15.140  18.650  0.00  0.00    +0.000 A 
ATOM     26  C   UNL     1       8.119  13.749  18.781  0.00  0.00    +0.000 A 
ATOM     27  C   UNL     1       9.247  13.027  18.296  0.00  0.00    +0.000 A 
ENDBRANCH  18  19
BRANCH  18  28
ATOM     28  O   UNL     1       9.303   9.923  20.040  0.00  0.00    +0.000 OA
ATOM     29  H   UNL     1       8.617   9.406  20.493  0.00  0.00    +0.000 HD
ENDBRANCH  18  28
ENDBRANCH  17  18
ENDBRANCH  16  17
ENDBRANCH   4  16
TORSDOF 7
ENDMDL
MODEL 4
REMARK VINA RESULT:      -7.4      5.726      9.819
REMARK  Name = 
REMARK  8 active torsions:
REMARK  status: ('A' for Active; 'I' for Inactive)
REMARK    1  A    between atoms: C_1  and  O_2
REMARK    2  A    between atoms: O_2  and  C_3
REMARK    3  A    between atoms: C_9  and  N_10
REMARK    4  A    between atoms: N_13  and  C_14
REMARK    5  A    between atoms: C_14  and  C_15
REMARK    6  A    between atoms: C_15  and  C_16
REMARK    7  A    between atoms: C_16  and  O_17
REMARK    8  A    between atoms: C_16  and  C_18
REMARK                            x       y       z     vdW  Elec       q    Type
REMARK                         _______ _______ _______ _____ _____    ______ ____
ROOT
ATOM      1  N   UNL     1      -0.175  11.836  21.103  0.00  0.00    +0.000 N 
ATOM      2  C   UNL     1       0.298  10.494  21.455  0.00  0.00    +0.000 C 
ATOM      3  C   UNL     1      -0.321   9.460  20.494  0.00  0.00    +0.000 C 
ATOM      4  N   UNL     1       0.007   9.708  19.067  0.00  0.00    +0.000 NA
ATOM      5  C   UNL     1      -0.499  11.070  18.745  0.00  0.00    +0.000 C 
ATOM      6  C   UNL     1      -0.030  12.217  19.687  0.00  0.00    +0.000 C 
ENDROOT
BRANCH   1  13
ATOM      7  C   UNL     1      -0.319  13.812  22.587  0.00  0.00    +0.000 A 
ATOM      8  C   UNL     1      -1.060  14.552  23.522  0.00  0.00    +0.000 A 
ATOM      9  C   UNL     1      -2.328  14.125  23.910  0.00  0.00    +0.000 A 
ATOM     10 CL   UNL     1      -3.222  15.032  25.067  0.00  0.00    +0.000 Cl
ATOM     11  C   UNL     1      -2.880  12.978  23.365  0.00  0.00    +0.000 A 
ATOM     12  C   UNL     1      -2.154  12.251  22.425  0.00  0.00    +0.000 A 
ATOM     13  C   UNL     1      -0.862  12.632  22.010  0.00  0.00    +0.000 A 
BRANCH   7  15
ATOM     14  C   UNL     1       1.246  15.573  22.151  0.00  0.00    +0.000 C 
ATOM     15  O   UNL     1       0.946  14.184  22.185  0.00  0.00    +0.000 OA
ENDBRANCH   7  15
ENDBRANCH   1  13
BRANCH   4  16
ATOM     16  C   UNL     1       1.454   9.606  18.777  0.00  0.00    +0.000 C 
BRANCH  16  17
ATOM     17  C   UNL     1       1.822   8.255  18.150  0.00  0.00    +0.000 C 
BRANCH  17  18
ATOM     18  C   UNL     1       2.775   7.431  19.013  0.00  0.00    +0.000 C 
BRANCH  18  19
ATOM     19  C   UNL     1       3.076   6.077  18.405  0.00  0.00    +0.000 A 
ATOM     20  C   UNL     1       4.060   5.905  17.451  0.00  0.00    +0.000 A 
ATOM     21  S   UNL     1       4.214   4.299  16.919  0.00  0.00    +0.000 S 
ATOM     22  C   UNL     1       2.953   3.760  17.952  0.00  0.00    +0.000 A 
ATOM     23  C   UNL     1       2.485   2.434  18.073  0.00  0.00    +0.000 A 
ATOM     24  C   UNL     1       1.436   2.156  18.948  0.00  0.00    +0.000 A 
ATOM     25  C   UNL     1       0.860   3.174  19.690  0.00  0.00    +0.000 A 
ATOM     26  C   UNL     1       1.334   4.486  19.575  0.00  0.00    +0.000 A 
ATOM     27  C   UNL     1       2.406   4.812  18.697  0.00  0.00    +0.000 A 
ENDBRANCH  18  19
BRANCH  18  28
ATOM     28  O   UNL     1       2.253   7.300  20.336  0.00  0.00    +0.000 OA
ATOM     29  H   UNL     1       1.439   6.775  20.281  0.00  0.00    +0.000 HD
ENDBRANCH  18  28
ENDBRANCH  17  18
ENDBRANCH  16  17
ENDBRANCH   4  16
TORSDOF 7
ENDMDL
MODEL 5
REMARK VINA RESULT:      -7.3      5.970     10.039
REMARK  Name = 
REMARK  8 active torsions:
REMARK  status: ('A' for Active; 'I' for Inactive)
REMARK    1  A    between atoms: C_1  and  O_2
REMARK    2  A    between atoms: O_2  and  C_3
REMARK    3  A    between atoms: C_9  and  N_10
REMARK    4  A    between atoms: N_13  and  C_14
REMARK    5  A    between atoms: C_14  and  C_15
REMARK    6  A    between atoms: C_15  and  C_16
REMARK    7  A    between atoms: C_16  and  O_17
REMARK    8  A    between atoms: C_16  and  C_18
REMARK                            x       y       z     vdW  Elec       q    Type
REMARK                         _______ _______ _______ _____ _____    ______ ____
ROOT
ATOM      1  N   UNL     1      -1.019  11.252  22.124  0.00  0.00    +0.000 N 
ATOM      2  C   UNL     1      -0.815  11.182  20.673  0.00  0.00    +0.000 C 
ATOM      3  C   UNL     1       0.691  11.065  20.369  0.00  0.00    +0.000 C 
ATOM      4  N   UNL     1       1.329   9.874  20.985  0.00  0.00    +0.000 NA
ATOM      5  C   UNL     1       1.113   9.987  22.453  0.00  0.00    +0.000 C 
ATOM      6  C   UNL     1      -0.358  10.200  22.916  0.00  0.00    +0.000 C 
ENDROOT
BRANCH   1  13
ATOM      7  C   UNL     1      -1.016  13.569  22.996  0.00  0.00    +0.000 A 
ATOM      8  C   UNL     1      -1.715  14.607  23.631  0.00  0.00    +0.000 A 
ATOM      9  C   UNL     1      -3.040  14.425  24.021  0.00  0.00    +0.000 A 
ATOM     10 CL   UNL     1      -3.884  15.699  24.813  0.00  0.00    +0.000 Cl
ATOM     11  C   UNL     1      -3.688  13.228  23.770  0.00  0.00    +0.000 A 
ATOM     12  C   UNL     1      -3.002  12.202  23.124  0.00  0.00    +0.000 A 
ATOM     13  C   UNL     1      -1.657  12.330  22.722  0.00  0.00    +0.000 A 
BRANCH   7  15
ATOM     14  C   UNL     1       0.596  14.608  21.557  0.00  0.00    +0.000 C 
ATOM     15  O   UNL     1       0.302  13.694  22.607  0.00  0.00    +0.000 OA
ENDBRANCH   7  15
ENDBRANCH   1  13
BRANCH   4  16
ATOM     16  C   UNL     1       0.787   8.596  20.475  0.00  0.00    +0.000 C 
BRANCH  16  17
ATOM     17  C   UNL     1       1.894   7.663  19.966  0.00  0.00    +0.000 C 
BRANCH  17  18
ATOM     18  C   UNL     1       2.056   7.694  18.447  0.00  0.00    +0.000 C 
BRANCH  18  19
ATOM     19  C   UNL     1       3.015   6.633  17.949  0.00  0.00    +0.000 A 
ATOM     20  C   UNL     1       4.249   6.952  17.419  0.00  0.00    +0.000 A 
ATOM     21  S   UNL     1       5.147   5.595  16.931  0.00  0.00    +0.000 S 
ATOM     22  C   UNL     1       3.906   4.510  17.411  0.00  0.00    +0.000 A 
ATOM     23  C   UNL     1       3.944   3.104  17.310  0.00  0.00    +0.000 A 
ATOM     24  C   UNL     1       2.843   2.358  17.729  0.00  0.00    +0.000 A 
ATOM     25  C   UNL     1       1.724   2.994  18.239  0.00  0.00    +0.000 A 
ATOM     26  C   UNL     1       1.694   4.389  18.348  0.00  0.00    +0.000 A 
ATOM     27  C   UNL     1       2.798   5.188  17.935  0.00  0.00    +0.000 A 
ENDBRANCH  18  19
BRANCH  18  28
ATOM     28  O   UNL     1       2.458   8.997  18.022  0.00  0.00    +0.000 OA
ATOM     29  H   UNL     1       3.263   8.898  17.490  0.00  0.00    +0.000 HD
ENDBRANCH  18  28
ENDBRANCH  17  18
ENDBRANCH  16  17
ENDBRANCH   4  16
TORSDOF 7
ENDMDL
MODEL 6
REMARK VINA RESULT:      -7.3      1.240      1.868
REMARK  Name = 
REMARK  8 active torsions:
REMARK  status: ('A' for Active; 'I' for Inactive)
REMARK    1  A    between atoms: C_1  and  O_2
REMARK    2  A    between atoms: O_2  and  C_3
REMARK    3  A    between atoms: C_9  and  N_10
REMARK    4  A    between atoms: N_13  and  C_14
REMARK    5  A    between atoms: C_14  and  C_15
REMARK    6  A    between atoms: C_15  and  C_16
REMARK    7  A    between atoms: C_16  and  O_17
REMARK    8  A    between atoms: C_16  and  C_18
REMARK                            x       y       z     vdW  Elec       q    Type
REMARK                         _______ _______ _______ _____ _____    ______ ____
ROOT
ATOM      1  N   UNL     1       4.335   3.914  17.734  0.00  0.00    +0.000 N 
ATOM      2  C   UNL     1       2.886   3.894  17.509  0.00  0.00    +0.000 C 
ATOM      3  C   UNL     1       2.338   2.484  17.802  0.00  0.00    +0.000 C 
ATOM      4  N   UNL     1       2.598   2.025  19.190  0.00  0.00    +0.000 NA
ATOM      5  C   UNL     1       4.074   2.046  19.376  0.00  0.00    +0.000 C 
ATOM      6  C   UNL     1       4.790   3.385  19.032  0.00  0.00    +0.000 C 
ENDROOT
BRANCH   1  13
ATOM      7  C   UNL     1       6.219   5.266  16.869  0.00  0.00    +0.000 A 
ATOM      8  C   UNL     1       7.070   5.582  15.798  0.00  0.00    +0.000 A 
ATOM      9  C   UNL     1       6.936   4.924  14.577  0.00  0.00    +0.000 A 
ATOM     10 CL   UNL     1       7.974   5.329  13.266  0.00  0.00    +0.000 Cl
ATOM     11  C   UNL     1       5.978   3.939  14.412  0.00  0.00    +0.000 A 
ATOM     12  C   UNL     1       5.143   3.611  15.478  0.00  0.00    +0.000 A 
ATOM     13  C   UNL     1       5.228   4.257  16.728  0.00  0.00    +0.000 A 
BRANCH   7  15
ATOM     14  C   UNL     1       7.591   6.069  18.662  0.00  0.00    +0.000 C 
ATOM     15  O   UNL     1       6.300   5.901  18.090  0.00  0.00    +0.000 OA
ENDBRANCH   7  15
ENDBRANCH   1  13
BRANCH   4  16
ATOM     16  C   UNL     1       1.930   2.860  20.213  0.00  0.00    +0.000 C 
BRANCH  16  17
ATOM     17  C   UNL     1       1.459   4.203  19.640  0.00  0.00    +0.000 C 
BRANCH  17  18
ATOM     18  C   UNL     1       1.624   5.365  20.620  0.00  0.00    +0.000 C 
BRANCH  18  19
ATOM     19  C   UNL     1       1.736   6.700  19.913  0.00  0.00    +0.000 A 
ATOM     20  C   UNL     1       2.438   6.848  18.733  0.00  0.00    +0.000 A 
ATOM     21  S   UNL     1       2.422   8.436  18.130  0.00  0.00    +0.000 S 
ATOM     22  C   UNL     1       1.466   9.000  19.441  0.00  0.00    +0.000 A 
ATOM     23  C   UNL     1       1.012  10.322  19.631  0.00  0.00    +0.000 A 
ATOM     24  C   UNL     1       0.254  10.630  20.760  0.00  0.00    +0.000 A 
ATOM     25  C   UNL     1      -0.047   9.645  21.686  0.00  0.00    +0.000 A 
ATOM     26  C   UNL     1       0.396   8.331  21.488  0.00  0.00    +0.000 A 
ATOM     27  C   UNL     1       1.168   7.974  20.347  0.00  0.00    +0.000 A 
ENDBRANCH  18  19
BRANCH  18  28
ATOM     28  O   UNL     1       2.745   5.133  21.473  0.00  0.00    +0.000 OA
ATOM     29  H   UNL     1       3.028   5.991  21.828  0.00  0.00    +0.000 HD
ENDBRANCH  18  28
ENDBRANCH  17  18
ENDBRANCH  16  17
ENDBRANCH   4  16
TORSDOF 7
ENDMDL
MODEL 7
REMARK VINA RESULT:      -7.2      5.453      9.580
REMARK  Name = 
REMARK  8 active torsions:
REMARK  status: ('A' for Active; 'I' for Inactive)
REMARK    1  A    between atoms: C_1  and  O_2
REMARK    2  A    between atoms: O_2  and  C_3
REMARK    3  A    between atoms: C_9  and  N_10
REMARK    4  A    between atoms: N_13  and  C_14
REMARK    5  A    between atoms: C_14  and  C_15
REMARK    6  A    between atoms: C_15  and  C_16
REMARK    7  A    between atoms: C_16  and  O_17
REMARK    8  A    between atoms: C_16  and  C_18
REMARK                            x       y       z     vdW  Elec       q    Type
REMARK                         _______ _______ _______ _____ _____    ______ ____
ROOT
ATOM      1  N   UNL     1      -0.382  11.179  20.583  0.00  0.00    +0.000 N 
ATOM      2  C   UNL     1      -0.478   9.863  19.943  0.00  0.00    +0.000 C 
ATOM      3  C   UNL     1      -0.265  10.012  18.424  0.00  0.00    +0.000 C 
ATOM      4  N   UNL     1       1.048  10.607  18.066  0.00  0.00    +0.000 NA
ATOM      5  C   UNL     1       1.102  11.942  18.721  0.00  0.00    +0.000 C 
ATOM      6  C   UNL     1       0.818  11.968  20.252  0.00  0.00    +0.000 C 
ENDROOT
BRANCH   1  13
ATOM      7  C   UNL     1      -2.520  12.414  20.747  0.00  0.00    +0.000 A 
ATOM      8  C   UNL     1      -3.530  12.952  21.561  0.00  0.00    +0.000 A 
ATOM      9  C   UNL     1      -3.460  12.820  22.946  0.00  0.00    +0.000 A 
ATOM     10 CL   UNL     1      -4.695  13.496  23.936  0.00  0.00    +0.000 Cl
ATOM     11  C   UNL     1      -2.406  12.143  23.535  0.00  0.00    +0.000 A 
ATOM     12  C   UNL     1      -1.412  11.593  22.729  0.00  0.00    +0.000 A 
ATOM     13  C   UNL     1      -1.429  11.711  21.324  0.00  0.00    +0.000 A 
BRANCH   7  15
ATOM     14  C   UNL     1      -3.493  11.765  18.655  0.00  0.00    +0.000 C 
ATOM     15  O   UNL     1      -2.536  12.534  19.374  0.00  0.00    +0.000 OA
ENDBRANCH   7  15
ENDBRANCH   1  13
BRANCH   4  16
ATOM     16  C   UNL     1       2.197   9.773  18.483  0.00  0.00    +0.000 C 
BRANCH  16  17
ATOM     17  C   UNL     1       2.050   8.318  18.019  0.00  0.00    +0.000 C 
BRANCH  17  18
ATOM     18  C   UNL     1       2.662   7.312  18.992  0.00  0.00    +0.000 C 
BRANCH  18  19
ATOM     19  C   UNL     1       2.956   5.981  18.333  0.00  0.00    +0.000 A 
ATOM     20  C   UNL     1       2.199   4.854  18.588  0.00  0.00    +0.000 A 
ATOM     21  S   UNL     1       2.719   3.481  17.733  0.00  0.00    +0.000 S 
ATOM     22  C   UNL     1       3.996   4.346  16.978  0.00  0.00    +0.000 A 
ATOM     23  C   UNL     1       4.924   3.823  16.054  0.00  0.00    +0.000 A 
ATOM     24  C   UNL     1       5.920   4.652  15.540  0.00  0.00    +0.000 A 
ATOM     25  C   UNL     1       5.996   5.977  15.935  0.00  0.00    +0.000 A 
ATOM     26  C   UNL     1       5.067   6.496  16.845  0.00  0.00    +0.000 A 
ATOM     27  C   UNL     1       4.032   5.685  17.391  0.00  0.00    +0.000 A 
ENDBRANCH  18  19
BRANCH  18  28
ATOM     28  O   UNL     1       1.815   7.152  20.131  0.00  0.00    +0.000 OA
ATOM     29  H   UNL     1       0.896   7.236  19.829  0.00  0.00    +0.000 HD
ENDBRANCH  18  28
ENDBRANCH  17  18
ENDBRANCH  16  17
ENDBRANCH   4  16
TORSDOF 7
ENDMDL
MODEL 8
REMARK VINA RESULT:      -7.2      4.152      8.046
REMARK  Name = 
REMARK  8 active torsions:
REMARK  status: ('A' for Active; 'I' for Inactive)
REMARK    1  A    between atoms: C_1  and  O_2
REMARK    2  A    between atoms: O_2  and  C_3
REMARK    3  A    between atoms: C_9  and  N_10
REMARK    4  A    between atoms: N_13  and  C_14
REMARK    5  A    between atoms: C_14  and  C_15
REMARK    6  A    between atoms: C_15  and  C_16
REMARK    7  A    between atoms: C_16  and  O_17
REMARK    8  A    between atoms: C_16  and  C_18
REMARK                            x       y       z     vdW  Elec       q    Type
REMARK                         _______ _______ _______ _____ _____    ______ ____
ROOT
ATOM      1  N   UNL     1       0.768   9.594  18.924  0.00  0.00    +0.000 N 
ATOM      2  C   UNL     1       1.360   8.871  17.794  0.00  0.00    +0.000 C 
ATOM      3  C   UNL     1       2.683   8.217  18.237  0.00  0.00    +0.000 C 
ATOM      4  N   UNL     1       2.524   7.264  19.365  0.00  0.00    +0.000 NA
ATOM      5  C   UNL     1       1.934   8.036  20.493  0.00  0.00    +0.000 C 
ATOM      6  C   UNL     1       0.633   8.829  20.176  0.00  0.00    +0.000 C 
ENDROOT
BRANCH   1  13
ATOM      7  C   UNL     1      -0.781  11.493  18.571  0.00  0.00    +0.000 A 
ATOM      8  C   UNL     1      -0.970  12.882  18.498  0.00  0.00    +0.000 A 
ATOM      9  C   UNL     1       0.104  13.748  18.688  0.00  0.00    +0.000 A 
ATOM     10 CL   UNL     1      -0.136  15.449  18.579  0.00  0.00    +0.000 Cl
ATOM     11  C   UNL     1       1.365  13.252  18.970  0.00  0.00    +0.000 A 
ATOM     12  C   UNL     1       1.553  11.875  19.062  0.00  0.00    +0.000 A 
ATOM     13  C   UNL     1       0.502  10.956  18.863  0.00  0.00    +0.000 A 
BRANCH   7  15
ATOM     14  C   UNL     1      -3.099  11.120  18.090  0.00  0.00    +0.000 C 
ATOM     15  O   UNL     1      -1.808  10.595  18.374  0.00  0.00    +0.000 OA
ENDBRANCH   7  15
ENDBRANCH   1  13
BRANCH   4  16
ATOM     16  C   UNL     1       1.675   6.101  19.028  0.00  0.00    +0.000 C 
BRANCH  16  17
ATOM     17  C   UNL     1       2.387   5.122  18.085  0.00  0.00    +0.000 C 
BRANCH  17  18
ATOM     18  C   UNL     1       3.474   4.302  18.780  0.00  0.00    +0.000 C 
BRANCH  18  19
ATOM     19  C   UNL     1       4.866   4.698  18.332  0.00  0.00    +0.000 A 
ATOM     20  C   UNL     1       5.802   5.203  19.213  0.00  0.00    +0.000 A 
ATOM     21  S   UNL     1       7.290   5.573  18.481  0.00  0.00    +0.000 S 
ATOM     22  C   UNL     1       6.736   5.070  16.935  0.00  0.00    +0.000 A 
ATOM     23  C   UNL     1       7.483   5.081  15.739  0.00  0.00    +0.000 A 
ATOM     24  C   UNL     1       6.884   4.655  14.554  0.00  0.00    +0.000 A 
ATOM     25  C   UNL     1       5.568   4.226  14.554  0.00  0.00    +0.000 A 
ATOM     26  C   UNL     1       4.832   4.206  15.745  0.00  0.00    +0.000 A 
ATOM     27  C   UNL     1       5.407   4.629  16.977  0.00  0.00    +0.000 A 
ENDBRANCH  18  19
BRANCH  18  28
ATOM     28  O   UNL     1       3.241   2.908  18.579  0.00  0.00    +0.000 OA
ATOM     29  H   UNL     1       4.046   2.527  18.195  0.00  0.00    +0.000 HD
ENDBRANCH  18  28
ENDBRANCH  17  18
ENDBRANCH  16  17
ENDBRANCH   4  16
TORSDOF 7
ENDMDL
MODEL 9
REMARK VINA RESULT:      -7.2      2.219      3.036
REMARK  Name = 
REMARK  8 active torsions:
REMARK  status: ('A' for Active; 'I' for Inactive)
REMARK    1  A    between atoms: C_1  and  O_2
REMARK    2  A    between atoms: O_2  and  C_3
REMARK    3  A    between atoms: C_9  and  N_10
REMARK    4  A    between atoms: N_13  and  C_14
REMARK    5  A    between atoms: C_14  and  C_15
REMARK    6  A    between atoms: C_15  and  C_16
REMARK    7  A    between atoms: C_16  and  O_17
REMARK    8  A    between atoms: C_16  and  C_18
REMARK                            x       y       z     vdW  Elec       q    Type
REMARK                         _______ _______ _______ _____ _____    ______ ____
ROOT
ATOM      1  N   UNL     1       4.500   5.362  17.639  0.00  0.00    +0.000 N 
ATOM      2  C   UNL     1       3.598   6.517  17.703  0.00  0.00    +0.000 C 
ATOM      3  C   UNL     1       2.154   6.031  17.930  0.00  0.00    +0.000 C 
ATOM      4  N   UNL     1       1.983   5.239  19.174  0.00  0.00    +0.000 NA
ATOM      5  C   UNL     1       2.901   4.073  19.065  0.00  0.00    +0.000 C 
ATOM      6  C   UNL     1       4.390   4.399  18.749  0.00  0.00    +0.000 C 
ENDROOT
BRANCH   1  13
ATOM      7  C   UNL     1       6.662   5.464  16.439  0.00  0.00    +0.000 A 
ATOM      8  C   UNL     1       7.391   5.205  15.268  0.00  0.00    +0.000 A 
ATOM      9  C   UNL     1       6.769   4.619  14.168  0.00  0.00    +0.000 A 
ATOM     10 CL   UNL     1       7.669   4.320  12.731  0.00  0.00    +0.000 Cl
ATOM     11  C   UNL     1       5.432   4.267  14.222  0.00  0.00    +0.000 A 
ATOM     12  C   UNL     1       4.709   4.507  15.389  0.00  0.00    +0.000 A 
ATOM     13  C   UNL     1       5.288   5.111  16.524  0.00  0.00    +0.000 A 
BRANCH   7  15
ATOM     14  C   UNL     1       7.525   7.446  17.473  0.00  0.00    +0.000 C 
ATOM     15  O   UNL     1       7.229   6.057  17.547  0.00  0.00    +0.000 OA
ENDBRANCH   7  15
ENDBRANCH   1  13
BRANCH   4  16
ATOM     16  C   UNL     1       2.267   6.016  20.400  0.00  0.00    +0.000 C 
BRANCH  16  17
ATOM     17  C   UNL     1       2.132   7.527  20.169  0.00  0.00    +0.000 C 
BRANCH  17  18
ATOM     18  C   UNL     1       1.238   8.215  21.199  0.00  0.00    +0.000 C 
BRANCH  18  19
ATOM     19  C   UNL     1       0.481   9.388  20.610  0.00  0.00    +0.000 A 
ATOM     20  C   UNL     1       0.563   9.715  19.271  0.00  0.00    +0.000 A 
ATOM     21  S   UNL     1      -0.374  11.066  18.845  0.00  0.00    +0.000 S 
ATOM     22  C   UNL     1      -0.933  11.276  20.455  0.00  0.00    +0.000 A 
ATOM     23  C   UNL     1      -1.824  12.274  20.904  0.00  0.00    +0.000 A 
ATOM     24  C   UNL     1      -2.172  12.324  22.253  0.00  0.00    +0.000 A 
ATOM     25  C   UNL     1      -1.646  11.402  23.142  0.00  0.00    +0.000 A 
ATOM     26  C   UNL     1      -0.771  10.406  22.691  0.00  0.00    +0.000 A 
ATOM     27  C   UNL     1      -0.393  10.317  21.322  0.00  0.00    +0.000 A 
ENDBRANCH  18  19
BRANCH  18  28
ATOM     28  O   UNL     1       2.009   8.613  22.333  0.00  0.00    +0.000 OA
ATOM     29  H   UNL     1       2.586   7.870  22.572  0.00  0.00    +0.000 HD
ENDBRANCH  18  28
ENDBRANCH  17  18
ENDBRANCH  16  17
ENDBRANCH   4  16
TORSDOF 7
ENDMDL
