MODEL 1
REMARK VINA RESULT:      -6.8      0.000      0.000
REMARK  Name = 
REMARK  4 active torsions:
REMARK  status: ('A' for Active; 'I' for Inactive)
REMARK    1  A    between atoms: C_1  and  C_2
REMARK    2  A    between atoms: C_2  and  C_3
REMARK    3  A    between atoms: C_2  and  N_6
REMARK    4  A    between atoms: C_3  and  O_5
REMARK                            x       y       z     vdW  Elec       q    Type
REMARK                         _______ _______ _______ _____ _____    ______ ____
ROOT
ATOM      1  N   UNL     1       4.766   4.866  16.444  0.00  0.00    +0.000 N 
ATOM      2  C   UNL     1       4.785   6.260  16.366  0.00  0.00    +0.000 C 
ATOM      3  O   UNL     1       5.225   6.842  15.372  0.00  0.00    +0.000 OA
ATOM      4  C   UNL     1       4.422   7.035  17.609  0.00  0.00    +0.000 C 
ATOM      5  S   UNL     1       2.824   6.586  18.263  0.00  0.00    +0.000 S 
ATOM      6  C   UNL     1       2.998   4.822  18.215  0.00  0.00    +0.000 A 
ATOM      7  N   UNL     1       2.153   4.183  19.063  0.00  0.00    +0.000 NA
ATOM      8  C   UNL     1       2.112   2.840  19.022  0.00  0.00    +0.000 A 
ATOM      9  C   UNL     1       2.880   2.092  18.156  0.00  0.00    +0.000 A 
ATOM     10  C   UNL     1       3.773   2.760  17.319  0.00  0.00    +0.000 A 
ATOM     11  C   UNL     1       3.876   4.160  17.338  0.00  0.00    +0.000 A 
ENDROOT
BRANCH   1  13
ATOM     12  C   UNL     1       5.508   4.023  14.212  0.00  0.00    +0.000 C 
ATOM     13  C   UNL     1       5.847   4.163  15.702  0.00  0.00    +0.000 C 
BRANCH  13  14
ATOM     14  C   UNL     1       7.278   4.640  15.961  0.00  0.00    +0.000 C 
ATOM     15  O   UNL     1       7.910   4.409  16.983  0.00  0.00    +0.000 OA
BRANCH  14  16
ATOM     16  O   UNL     1       7.778   5.417  14.967  0.00  0.00    +0.000 OA
ATOM     17  H   UNL     1       8.458   6.036  15.292  0.00  0.00    +0.000 HD
ENDBRANCH  14  16
ENDBRANCH  13  14
ENDBRANCH   1  13
TORSDOF 3
ENDMDL
MODEL 2
REMARK VINA RESULT:      -6.5      2.873      4.938
REMARK  Name = 
REMARK  4 active torsions:
REMARK  status: ('A' for Active; 'I' for Inactive)
REMARK    1  A    between atoms: C_1  and  C_2
REMARK    2  A    between atoms: C_2  and  C_3
REMARK    3  A    between atoms: C_2  and  N_6
REMARK    4  A    between atoms: C_3  and  O_5
REMARK                            x       y       z     vdW  Elec       q    Type
REMARK                         _______ _______ _______ _____ _____    ______ ____
ROOT
ATOM      1  N   UNL     1       4.802   3.826  17.680  0.00  0.00    +0.000 N 
ATOM      2  C   UNL     1       5.235   4.076  18.984  0.00  0.00    +0.000 C 
ATOM      3  O   UNL     1       4.818   3.414  19.937  0.00  0.00    +0.000 OA
ATOM      4  C   UNL     1       6.089   5.298  19.215  0.00  0.00    +0.000 C 
ATOM      5  S   UNL     1       7.543   5.333  18.181  0.00  0.00    +0.000 S 
ATOM      6  C   UNL     1       6.781   4.940  16.630  0.00  0.00    +0.000 A 
ATOM      7  N   UNL     1       7.520   5.333  15.562  0.00  0.00    +0.000 NA
ATOM      8  C   UNL     1       7.098   4.978  14.335  0.00  0.00    +0.000 A 
ATOM      9  C   UNL     1       5.961   4.232  14.120  0.00  0.00    +0.000 A 
ATOM     10  C   UNL     1       5.189   3.869  15.224  0.00  0.00    +0.000 A 
ATOM     11  C   UNL     1       5.569   4.234  16.526  0.00  0.00    +0.000 A 
ENDROOT
BRANCH   1  13
ATOM     12  C   UNL     1       3.353   1.802  17.893  0.00  0.00    +0.000 C 
ATOM     13  C   UNL     1       3.417   3.296  17.551  0.00  0.00    +0.000 C 
BRANCH  13  14
ATOM     14  C   UNL     1       2.303   4.120  18.201  0.00  0.00    +0.000 C 
ATOM     15  O   UNL     1       1.948   5.227  17.819  0.00  0.00    +0.000 OA
BRANCH  14  16
ATOM     16  O   UNL     1       1.775   3.538  19.308  0.00  0.00    +0.000 OA
ATOM     17  H   UNL     1       2.273   2.744  19.578  0.00  0.00    +0.000 HD
ENDBRANCH  14  16
ENDBRANCH  13  14
ENDBRANCH   1  13
TORSDOF 3
ENDMDL
MODEL 3
REMARK VINA RESULT:      -6.4      0.671      1.028
REMARK  Name = 
REMARK  4 active torsions:
REMARK  status: ('A' for Active; 'I' for Inactive)
REMARK    1  A    between atoms: C_1  and  C_2
REMARK    2  A    between atoms: C_2  and  C_3
REMARK    3  A    between atoms: C_2  and  N_6
REMARK    4  A    between atoms: C_3  and  O_5
REMARK                            x       y       z     vdW  Elec       q    Type
REMARK                         _______ _______ _______ _____ _____    ______ ____
ROOT
ATOM      1  N   UNL     1       4.490   4.846  16.733  0.00  0.00    +0.000 N 
ATOM      2  C   UNL     1       4.633   6.233  16.664  0.00  0.00    +0.000 C 
ATOM      3  O   UNL     1       5.256   6.770  15.745  0.00  0.00    +0.000 OA
ATOM      4  C   UNL     1       4.158   7.045  17.844  0.00  0.00    +0.000 C 
ATOM      5  S   UNL     1       2.452   6.730  18.260  0.00  0.00    +0.000 S 
ATOM      6  C   UNL     1       2.489   4.958  18.231  0.00  0.00    +0.000 A 
ATOM      7  N   UNL     1       1.483   4.395  18.946  0.00  0.00    +0.000 NA
ATOM      8  C   UNL     1       1.340   3.060  18.895  0.00  0.00    +0.000 A 
ATOM      9  C   UNL     1       2.161   2.246  18.147  0.00  0.00    +0.000 A 
ATOM     10  C   UNL     1       3.216   2.833  17.449  0.00  0.00    +0.000 A 
ATOM     11  C   UNL     1       3.428   4.221  17.487  0.00  0.00    +0.000 A 
ENDROOT
BRANCH   1  13
ATOM     12  C   UNL     1       5.538   4.024  14.619  0.00  0.00    +0.000 C 
ATOM     13  C   UNL     1       5.607   4.052  16.152  0.00  0.00    +0.000 C 
BRANCH  13  14
ATOM     14  C   UNL     1       7.009   4.340  16.695  0.00  0.00    +0.000 C 
ATOM     15  O   UNL     1       7.961   4.678  16.006  0.00  0.00    +0.000 OA
BRANCH  14  16
ATOM     16  O   UNL     1       7.129   4.118  18.029  0.00  0.00    +0.000 OA
ATOM     17  H   UNL     1       7.298   4.941  18.524  0.00  0.00    +0.000 HD
ENDBRANCH  14  16
ENDBRANCH  13  14
ENDBRANCH   1  13
TORSDOF 3
ENDMDL
MODEL 4
REMARK VINA RESULT:      -6.1      2.773      4.253
REMARK  Name = 
REMARK  4 active torsions:
REMARK  status: ('A' for Active; 'I' for Inactive)
REMARK    1  A    between atoms: C_1  and  C_2
REMARK    2  A    between atoms: C_2  and  C_3
REMARK    3  A    between atoms: C_2  and  N_6
REMARK    4  A    between atoms: C_3  and  O_5
REMARK                            x       y       z     vdW  Elec       q    Type
REMARK                         _______ _______ _______ _____ _____    ______ ____
ROOT
ATOM      1  N   UNL     1       3.527   4.347  18.441  0.00  0.00    +0.000 N 
ATOM      2  C   UNL     1       2.935   5.347  19.217  0.00  0.00    +0.000 C 
ATOM      3  O   UNL     1       2.600   5.139  20.385  0.00  0.00    +0.000 OA
ATOM      4  C   UNL     1       2.553   6.633  18.527  0.00  0.00    +0.000 C 
ATOM      5  S   UNL     1       3.921   7.395  17.673  0.00  0.00    +0.000 S 
ATOM      6  C   UNL     1       4.542   5.967  16.827  0.00  0.00    +0.000 A 
ATOM      7  N   UNL     1       5.291   6.279  15.739  0.00  0.00    +0.000 NA
ATOM      8  C   UNL     1       5.913   5.280  15.091  0.00  0.00    +0.000 A 
ATOM      9  C   UNL     1       5.829   3.963  15.486  0.00  0.00    +0.000 A 
ATOM     10  C   UNL     1       5.022   3.651  16.580  0.00  0.00    +0.000 A 
ATOM     11  C   UNL     1       4.329   4.652  17.279  0.00  0.00    +0.000 A 
ENDROOT
BRANCH   1  13
ATOM     12  C   UNL     1       2.282   2.336  17.637  0.00  0.00    +0.000 C 
ATOM     13  C   UNL     1       3.119   2.953  18.765  0.00  0.00    +0.000 C 
BRANCH  13  14
ATOM     14  C   UNL     1       4.213   2.023  19.293  0.00  0.00    +0.000 C 
ATOM     15  O   UNL     1       4.987   2.309  20.197  0.00  0.00    +0.000 OA
BRANCH  14  16
ATOM     16  O   UNL     1       4.304   0.852  18.613  0.00  0.00    +0.000 OA
ATOM     17  H   UNL     1       5.069   0.319  18.901  0.00  0.00    +0.000 HD
ENDBRANCH  14  16
ENDBRANCH  13  14
ENDBRANCH   1  13
TORSDOF 3
ENDMDL
MODEL 5
REMARK VINA RESULT:      -6.0      2.080      3.592
REMARK  Name = 
REMARK  4 active torsions:
REMARK  status: ('A' for Active; 'I' for Inactive)
REMARK    1  A    between atoms: C_1  and  C_2
REMARK    2  A    between atoms: C_2  and  C_3
REMARK    3  A    between atoms: C_2  and  N_6
REMARK    4  A    between atoms: C_3  and  O_5
REMARK                            x       y       z     vdW  Elec       q    Type
REMARK                         _______ _______ _______ _____ _____    ______ ____
ROOT
ATOM      1  N   UNL     1       4.623   4.522  18.493  0.00  0.00    +0.000 N 
ATOM      2  C   UNL     1       4.392   3.537  19.456  0.00  0.00    +0.000 C 
ATOM      3  O   UNL     1       5.266   2.723  19.764  0.00  0.00    +0.000 OA
ATOM      4  C   UNL     1       2.984   3.383  19.975  0.00  0.00    +0.000 C 
ATOM      5  S   UNL     1       2.317   4.902  20.632  0.00  0.00    +0.000 S 
ATOM      6  C   UNL     1       2.769   5.991  19.309  0.00  0.00    +0.000 A 
ATOM      7  N   UNL     1       2.018   7.121  19.272  0.00  0.00    +0.000 NA
ATOM      8  C   UNL     1       2.351   8.074  18.385  0.00  0.00    +0.000 A 
ATOM      9  C   UNL     1       3.419   7.957  17.524  0.00  0.00    +0.000 A 
ATOM     10  C   UNL     1       4.158   6.774  17.544  0.00  0.00    +0.000 A 
ATOM     11  C   UNL     1       3.838   5.734  18.432  0.00  0.00    +0.000 A 
ENDROOT
BRANCH   1  13
ATOM     12  C   UNL     1       4.934   4.228  16.031  0.00  0.00    +0.000 C 
ATOM     13  C   UNL     1       5.587   4.161  17.418  0.00  0.00    +0.000 C 
BRANCH  13  14
ATOM     14  C   UNL     1       6.963   4.829  17.479  0.00  0.00    +0.000 C 
ATOM     15  O   UNL     1       7.438   5.516  16.585  0.00  0.00    +0.000 OA
BRANCH  14  16
ATOM     16  O   UNL     1       7.660   4.531  18.605  0.00  0.00    +0.000 OA
ATOM     17  H   UNL     1       8.623   4.624  18.476  0.00  0.00    +0.000 HD
ENDBRANCH  14  16
ENDBRANCH  13  14
ENDBRANCH   1  13
TORSDOF 3
ENDMDL
MODEL 6
REMARK VINA RESULT:      -5.9      1.920      2.364
REMARK  Name = 
REMARK  4 active torsions:
REMARK  status: ('A' for Active; 'I' for Inactive)
REMARK    1  A    between atoms: C_1  and  C_2
REMARK    2  A    between atoms: C_2  and  C_3
REMARK    3  A    between atoms: C_2  and  N_6
REMARK    4  A    between atoms: C_3  and  O_5
REMARK                            x       y       z     vdW  Elec       q    Type
REMARK                         _______ _______ _______ _____ _____    ______ ____
ROOT
ATOM      1  N   UNL     1       5.363   5.228  18.077  0.00  0.00    +0.000 N 
ATOM      2  C   UNL     1       5.051   6.370  17.336  0.00  0.00    +0.000 C 
ATOM      3  O   UNL     1       5.770   6.751  16.410  0.00  0.00    +0.000 OA
ATOM      4  C   UNL     1       3.906   7.225  17.820  0.00  0.00    +0.000 C 
ATOM      5  S   UNL     1       2.386   6.309  18.007  0.00  0.00    +0.000 S 
ATOM      6  C   UNL     1       3.020   4.913  18.895  0.00  0.00    +0.000 A 
ATOM      7  N   UNL     1       2.063   4.249  19.592  0.00  0.00    +0.000 NA
ATOM      8  C   UNL     1       2.406   3.104  20.206  0.00  0.00    +0.000 A 
ATOM      9  C   UNL     1       3.677   2.575  20.150  0.00  0.00    +0.000 A 
ATOM     10  C   UNL     1       4.661   3.288  19.465  0.00  0.00    +0.000 A 
ATOM     11  C   UNL     1       4.364   4.503  18.827  0.00  0.00    +0.000 A 
ENDROOT
BRANCH   1  13
ATOM     12  C   UNL     1       7.443   4.591  16.847  0.00  0.00    +0.000 C 
ATOM     13  C   UNL     1       6.814   4.921  18.207  0.00  0.00    +0.000 C 
BRANCH  13  14
ATOM     14  C   UNL     1       7.648   5.891  19.047  0.00  0.00    +0.000 C 
ATOM     15  O   UNL     1       8.166   6.911  18.614  0.00  0.00    +0.000 OA
BRANCH  14  16
ATOM     16  O   UNL     1       7.828   5.481  20.329  0.00  0.00    +0.000 OA
ATOM     17  H   UNL     1       7.015   5.096  20.708  0.00  0.00    +0.000 HD
ENDBRANCH  14  16
ENDBRANCH  13  14
ENDBRANCH   1  13
TORSDOF 3
ENDMDL
MODEL 7
REMARK VINA RESULT:      -5.9      3.118      4.842
REMARK  Name = 
REMARK  4 active torsions:
REMARK  status: ('A' for Active; 'I' for Inactive)
REMARK    1  A    between atoms: C_1  and  C_2
REMARK    2  A    between atoms: C_2  and  C_3
REMARK    3  A    between atoms: C_2  and  N_6
REMARK    4  A    between atoms: C_3  and  O_5
REMARK                            x       y       z     vdW  Elec       q    Type
REMARK                         _______ _______ _______ _____ _____    ______ ____
ROOT
ATOM      1  N   UNL     1       3.710   4.307  18.429  0.00  0.00    +0.000 N 
ATOM      2  C   UNL     1       3.094   5.286  19.212  0.00  0.00    +0.000 C 
ATOM      3  O   UNL     1       2.814   5.080  20.395  0.00  0.00    +0.000 OA
ATOM      4  C   UNL     1       2.617   6.538  18.518  0.00  0.00    +0.000 C 
ATOM      5  S   UNL     1       3.909   7.358  17.602  0.00  0.00    +0.000 S 
ATOM      6  C   UNL     1       4.574   5.952  16.753  0.00  0.00    +0.000 A 
ATOM      7  N   UNL     1       5.265   6.285  15.634  0.00  0.00    +0.000 NA
ATOM      8  C   UNL     1       5.916   5.310  14.977  0.00  0.00    +0.000 A 
ATOM      9  C   UNL     1       5.918   3.997  15.394  0.00  0.00    +0.000 A 
ATOM     10  C   UNL     1       5.171   3.661  16.523  0.00  0.00    +0.000 A 
ATOM     11  C   UNL     1       4.451   4.635  17.233  0.00  0.00    +0.000 A 
ENDROOT
BRANCH   1  13
ATOM     12  C   UNL     1       4.320   2.375  19.892  0.00  0.00    +0.000 C 
ATOM     13  C   UNL     1       3.391   2.898  18.789  0.00  0.00    +0.000 C 
BRANCH  13  14
ATOM     14  C   UNL     1       1.915   2.568  19.025  0.00  0.00    +0.000 C 
ATOM     15  O   UNL     1       1.048   2.619  18.163  0.00  0.00    +0.000 OA
BRANCH  14  16
ATOM     16  O   UNL     1       1.627   2.273  20.318  0.00  0.00    +0.000 OA
ATOM     17  H   UNL     1       1.385   1.335  20.435  0.00  0.00    +0.000 HD
ENDBRANCH  14  16
ENDBRANCH  13  14
ENDBRANCH   1  13
TORSDOF 3
ENDMDL
MODEL 8
REMARK VINA RESULT:      -5.9      3.095      4.617
REMARK  Name = 
REMARK  4 active torsions:
REMARK  status: ('A' for Active; 'I' for Inactive)
REMARK    1  A    between atoms: C_1  and  C_2
REMARK    2  A    between atoms: C_2  and  C_3
REMARK    3  A    between atoms: C_2  and  N_6
REMARK    4  A    between atoms: C_3  and  O_5
REMARK                            x       y       z     vdW  Elec       q    Type
REMARK                         _______ _______ _______ _____ _____    ______ ____
ROOT
ATOM      1  N   UNL     1       2.882   3.961  19.502  0.00  0.00    +0.000 N 
ATOM      2  C   UNL     1       2.151   4.426  20.598  0.00  0.00    +0.000 C 
ATOM      3  O   UNL     1       2.010   3.741  21.613  0.00  0.00    +0.000 OA
ATOM      4  C   UNL     1       1.386   5.716  20.431  0.00  0.00    +0.000 C 
ATOM      5  S   UNL     1       2.418   7.070  19.898  0.00  0.00    +0.000 S 
ATOM      6  C   UNL     1       3.276   6.253  18.579  0.00  0.00    +0.000 A 
ATOM      7  N   UNL     1       3.798   7.117  17.671  0.00  0.00    +0.000 NA
ATOM      8  C   UNL     1       4.573   6.615  16.694  0.00  0.00    +0.000 A 
ATOM      9  C   UNL     1       4.863   5.274  16.581  0.00  0.00    +0.000 A 
ATOM     10  C   UNL     1       4.287   4.393  17.496  0.00  0.00    +0.000 A 
ATOM     11  C   UNL     1       3.449   4.859  18.522  0.00  0.00    +0.000 A 
ENDROOT
BRANCH   1  13
ATOM     12  C   UNL     1       2.154   2.104  17.998  0.00  0.00    +0.000 C 
ATOM     13  C   UNL     1       2.872   2.487  19.299  0.00  0.00    +0.000 C 
BRANCH  13  14
ATOM     14  C   UNL     1       4.203   1.758  19.499  0.00  0.00    +0.000 C 
ATOM     15  O   UNL     1       5.049   2.079  20.322  0.00  0.00    +0.000 OA
BRANCH  14  16
ATOM     16  O   UNL     1       4.402   0.743  18.621  0.00  0.00    +0.000 OA
ATOM     17  H   UNL     1       4.609  -0.097  19.072  0.00  0.00    +0.000 HD
ENDBRANCH  14  16
ENDBRANCH  13  14
ENDBRANCH   1  13
TORSDOF 3
ENDMDL
MODEL 9
REMARK VINA RESULT:      -5.8      1.210      1.333
REMARK  Name = 
REMARK  4 active torsions:
REMARK  status: ('A' for Active; 'I' for Inactive)
REMARK    1  A    between atoms: C_1  and  C_2
REMARK    2  A    between atoms: C_2  and  C_3
REMARK    3  A    between atoms: C_2  and  N_6
REMARK    4  A    between atoms: C_3  and  O_5
REMARK                            x       y       z     vdW  Elec       q    Type
REMARK                         _______ _______ _______ _____ _____    ______ ____
ROOT
ATOM      1  N   UNL     1       4.661   4.952  17.487  0.00  0.00    +0.000 N 
ATOM      2  C   UNL     1       4.542   6.215  16.902  0.00  0.00    +0.000 C 
ATOM      3  O   UNL     1       4.925   6.427  15.750  0.00  0.00    +0.000 OA
ATOM      4  C   UNL     1       4.100   7.355  17.786  0.00  0.00    +0.000 C 
ATOM      5  S   UNL     1       2.553   7.031  18.614  0.00  0.00    +0.000 S 
ATOM      6  C   UNL     1       2.901   5.398  19.209  0.00  0.00    +0.000 A 
ATOM      7  N   UNL     1       2.122   5.040  20.261  0.00  0.00    +0.000 NA
ATOM      8  C   UNL     1       2.215   3.779  20.716  0.00  0.00    +0.000 A 
ATOM      9  C   UNL     1       3.055   2.840  20.160  0.00  0.00    +0.000 A 
ATOM     10  C   UNL     1       3.880   3.233  19.106  0.00  0.00    +0.000 A 
ATOM     11  C   UNL     1       3.844   4.545  18.607  0.00  0.00    +0.000 A 
ENDROOT
BRANCH   1  13
ATOM     12  C   UNL     1       5.596   3.633  15.581  0.00  0.00    +0.000 C 
ATOM     13  C   UNL     1       5.809   4.129  17.018  0.00  0.00    +0.000 C 
BRANCH  13  14
ATOM     14  C   UNL     1       7.208   4.699  17.266  0.00  0.00    +0.000 C 
ATOM     15  O   UNL     1       7.809   4.616  18.329  0.00  0.00    +0.000 OA
BRANCH  14  16
ATOM     16  O   UNL     1       7.712   5.380  16.206  0.00  0.00    +0.000 OA
ATOM     17  H   UNL     1       8.128   6.220  16.474  0.00  0.00    +0.000 HD
ENDBRANCH  14  16
ENDBRANCH  13  14
ENDBRANCH   1  13
TORSDOF 3
ENDMDL
