MODEL 1
REMARK VINA RESULT:      -7.5      0.000      0.000
REMARK  Name = 
REMARK  8 active torsions:
REMARK  status: ('A' for Active; 'I' for Inactive)
REMARK    1  A    between atoms: C_1  and  C_2
REMARK    2  A    between atoms: C_4  and  S_5
REMARK    3  A    between atoms: S_5  and  N_8
REMARK    4  A    between atoms: N_8  and  C_9
REMARK    5  A    between atoms: C_11  and  C_12
REMARK    6  A    between atoms: C_12  and  N_13
REMARK    7  A    between atoms: C_29  and  C_30
REMARK    8  A    between atoms: C_31  and  C_32
REMARK                            x       y       z     vdW  Elec       q    Type
REMARK                         _______ _______ _______ _____ _____    ______ ____
ROOT
ATOM      1  C   UNL     1      -0.269  11.364  21.329  0.00  0.00    +0.000 A 
ATOM      2  N   UNL     1      -1.261  11.370  22.227  0.00  0.00    +0.000 NA
ATOM      3  C   UNL     1      -1.528  12.539  22.862  0.00  0.00    +0.000 A 
ATOM      4  N   UNL     1      -0.760  13.638  22.832  0.00  0.00    +0.000 NA
ATOM      5  C   UNL     1       0.188  13.590  21.887  0.00  0.00    +0.000 A 
ATOM      6  S   UNL     1       1.133  14.979  21.531  0.00  0.00    +0.000 S 
ATOM      7  C   UNL     1       1.733  14.227  20.165  0.00  0.00    +0.000 A 
ATOM      8  C   UNL     1       1.359  12.918  20.029  0.00  0.00    +0.000 A 
ATOM      9  C   UNL     1       0.459  12.514  21.047  0.00  0.00    +0.000 A 
ATOM     10  C   UNL     1       1.870  12.342  18.759  0.00  0.00    +0.000 C 
ATOM     11  C   UNL     1       2.816  13.466  18.226  0.00  0.00    +0.000 C 
ATOM     12  C   UNL     1       2.501  14.765  19.027  0.00  0.00    +0.000 C 
ENDROOT
BRANCH   1  13
ATOM     13  N   UNL     1      -0.043  10.110  20.700  0.00  0.00    +0.000 N 
ATOM     14  H   UNL     1      -0.885   9.811  20.208  0.00  0.00    +0.000 HD
BRANCH  13  15
ATOM     15  S   UNL     1       0.430   8.903  21.775  0.00  0.00    +0.000 S 
ATOM     16  O   UNL     1      -0.718   8.234  22.326  0.00  0.00    +0.000 OA
ATOM     17  O   UNL     1       1.416   9.502  22.663  0.00  0.00    +0.000 OA
BRANCH  15  21
ATOM     18  C   UNL     1       3.196   7.884  17.447  0.00  0.00    +0.000 C 
ATOM     19  C   UNL     1       2.561   7.338  18.700  0.00  0.00    +0.000 A 
ATOM     20  C   UNL     1       1.907   8.231  19.559  0.00  0.00    +0.000 A 
ATOM     21  C   UNL     1       1.306   7.760  20.726  0.00  0.00    +0.000 A 
ATOM     22  C   UNL     1       1.358   6.408  21.062  0.00  0.00    +0.000 A 
ATOM     23  C   UNL     1       1.996   5.493  20.207  0.00  0.00    +0.000 A 
ATOM     24  C   UNL     1       1.986   4.036  20.586  0.00  0.00    +0.000 C 
ATOM     25  C   UNL     1       2.623   5.960  19.026  0.00  0.00    +0.000 A 
ATOM     26  C   UNL     1       3.375   5.022  18.110  0.00  0.00    +0.000 C 
ENDBRANCH  15  21
ENDBRANCH  13  15
ENDBRANCH   1  13
BRANCH   3  27
ATOM     27  C   UNL     1      -2.950  12.742  23.413  0.00  0.00    +0.000 C 
BRANCH  27  28
ATOM     28  N   UNL     1      -3.647  13.885  22.762  0.00  0.00    +0.000 NA
ATOM     29  C   UNL     1      -4.825  14.381  23.496  0.00  0.00    +0.000 C 
ATOM     30  C   UNL     1      -6.181  13.683  23.221  0.00  0.00    +0.000 C 
ATOM     31  O   UNL     1      -6.387  13.268  21.863  0.00  0.00    +0.000 OA
ATOM     32  C   UNL     1      -5.231  12.611  21.340  0.00  0.00    +0.000 C 
ATOM     33  C   UNL     1      -4.062  13.595  21.377  0.00  0.00    +0.000 C 
ENDBRANCH  27  28
ENDBRANCH   3  27
TORSDOF 5
ENDMDL
MODEL 2
REMARK VINA RESULT:      -7.4      0.280      1.565
REMARK  Name = 
REMARK  8 active torsions:
REMARK  status: ('A' for Active; 'I' for Inactive)
REMARK    1  A    between atoms: C_1  and  C_2
REMARK    2  A    between atoms: C_4  and  S_5
REMARK    3  A    between atoms: S_5  and  N_8
REMARK    4  A    between atoms: N_8  and  C_9
REMARK    5  A    between atoms: C_11  and  C_12
REMARK    6  A    between atoms: C_12  and  N_13
REMARK    7  A    between atoms: C_29  and  C_30
REMARK    8  A    between atoms: C_31  and  C_32
REMARK                            x       y       z     vdW  Elec       q    Type
REMARK                         _______ _______ _______ _____ _____    ______ ____
ROOT
ATOM      1  C   UNL     1      -0.068  11.323  21.243  0.00  0.00    +0.000 A 
ATOM      2  N   UNL     1      -1.072  11.212  22.122  0.00  0.00    +0.000 NA
ATOM      3  C   UNL     1      -1.457  12.332  22.782  0.00  0.00    +0.000 A 
ATOM      4  N   UNL     1      -0.794  13.499  22.796  0.00  0.00    +0.000 NA
ATOM      5  C   UNL     1       0.170  13.565  21.869  0.00  0.00    +0.000 A 
ATOM      6  S   UNL     1       0.988  15.045  21.568  0.00  0.00    +0.000 S 
ATOM      7  C   UNL     1       1.678  14.389  20.194  0.00  0.00    +0.000 A 
ATOM      8  C   UNL     1       1.430  13.055  20.016  0.00  0.00    +0.000 A 
ATOM      9  C   UNL     1       0.554  12.542  21.006  0.00  0.00    +0.000 A 
ATOM     10  C   UNL     1       2.013  12.564  18.742  0.00  0.00    +0.000 C 
ATOM     11  C   UNL     1       2.859  13.786  18.256  0.00  0.00    +0.000 C 
ATOM     12  C   UNL     1       2.412  15.028  19.085  0.00  0.00    +0.000 C 
ENDROOT
BRANCH   1  13
ATOM     13  N   UNL     1       0.283  10.113  20.586  0.00  0.00    +0.000 N 
ATOM     14  H   UNL     1      -0.456   9.842  19.937  0.00  0.00    +0.000 HD
BRANCH  13  15
ATOM     15  S   UNL     1       0.581   8.841  21.649  0.00  0.00    +0.000 S 
ATOM     16  O   UNL     1      -0.653   8.291  22.143  0.00  0.00    +0.000 OA
ATOM     17  O   UNL     1       1.591   9.312  22.586  0.00  0.00    +0.000 OA
BRANCH  15  21
ATOM     18  C   UNL     1       1.995   3.896  20.671  0.00  0.00    +0.000 C 
ATOM     19  C   UNL     1       2.018   5.331  20.215  0.00  0.00    +0.000 A 
ATOM     20  C   UNL     1       1.364   6.291  20.998  0.00  0.00    +0.000 A 
ATOM     21  C   UNL     1       1.368   7.630  20.607  0.00  0.00    +0.000 A 
ATOM     22  C   UNL     1       2.003   8.029  19.433  0.00  0.00    +0.000 A 
ATOM     23  C   UNL     1       2.677   7.085  18.639  0.00  0.00    +0.000 A 
ATOM     24  C   UNL     1       3.391   7.571  17.404  0.00  0.00    +0.000 C 
ATOM     25  C   UNL     1       2.670   5.721  19.017  0.00  0.00    +0.000 A 
ATOM     26  C   UNL     1       3.327   4.663  18.161  0.00  0.00    +0.000 C 
ENDBRANCH  15  21
ENDBRANCH  13  15
ENDBRANCH   1  13
BRANCH   3  27
ATOM     27  C   UNL     1      -2.900  12.389  23.311  0.00  0.00    +0.000 C 
BRANCH  27  28
ATOM     28  N   UNL     1      -3.602  13.635  22.899  0.00  0.00    +0.000 NA
ATOM     29  C   UNL     1      -4.638  14.095  23.842  0.00  0.00    +0.000 C 
ATOM     30  C   UNL     1      -6.061  13.502  23.681  0.00  0.00    +0.000 C 
ATOM     31  O   UNL     1      -6.472  13.266  22.327  0.00  0.00    +0.000 OA
ATOM     32  C   UNL     1      -5.441  12.623  21.576  0.00  0.00    +0.000 C 
ATOM     33  C   UNL     1      -4.215  13.536  21.562  0.00  0.00    +0.000 C 
ENDBRANCH  27  28
ENDBRANCH   3  27
TORSDOF 5
ENDMDL
MODEL 3
REMARK VINA RESULT:      -7.3      0.633      1.041
REMARK  Name = 
REMARK  8 active torsions:
REMARK  status: ('A' for Active; 'I' for Inactive)
REMARK    1  A    between atoms: C_1  and  C_2
REMARK    2  A    between atoms: C_4  and  S_5
REMARK    3  A    between atoms: S_5  and  N_8
REMARK    4  A    between atoms: N_8  and  C_9
REMARK    5  A    between atoms: C_11  and  C_12
REMARK    6  A    between atoms: C_12  and  N_13
REMARK    7  A    between atoms: C_29  and  C_30
REMARK    8  A    between atoms: C_31  and  C_32
REMARK                            x       y       z     vdW  Elec       q    Type
REMARK                         _______ _______ _______ _____ _____    ______ ____
ROOT
ATOM      1  C   UNL     1      -0.321  11.494  21.299  0.00  0.00    +0.000 A 
ATOM      2  N   UNL     1      -1.278  11.680  22.217  0.00  0.00    +0.000 NA
ATOM      3  C   UNL     1      -1.378  12.910  22.780  0.00  0.00    +0.000 A 
ATOM      4  N   UNL     1      -0.480  13.901  22.662  0.00  0.00    +0.000 NA
ATOM      5  C   UNL     1       0.425  13.675  21.701  0.00  0.00    +0.000 A 
ATOM      6  S   UNL     1       1.524  14.909  21.235  0.00  0.00    +0.000 S 
ATOM      7  C   UNL     1       1.985  14.005  19.908  0.00  0.00    +0.000 A 
ATOM      8  C   UNL     1       1.447  12.747  19.865  0.00  0.00    +0.000 A 
ATOM      9  C   UNL     1       0.534  12.523  20.927  0.00  0.00    +0.000 A 
ATOM     10  C   UNL     1       1.843  12.034  18.624  0.00  0.00    +0.000 C 
ATOM     11  C   UNL     1       2.905  12.995  17.998  0.00  0.00    +0.000 C 
ATOM     12  C   UNL     1       2.779  14.371  18.719  0.00  0.00    +0.000 C 
ENDROOT
BRANCH   1  13
ATOM     13  N   UNL     1      -0.272  10.185  20.748  0.00  0.00    +0.000 N 
ATOM     14  H   UNL     1      -1.200   9.909  20.424  0.00  0.00    +0.000 HD
BRANCH  13  15
ATOM     15  S   UNL     1       0.304   9.030  21.829  0.00  0.00    +0.000 S 
ATOM     16  O   UNL     1      -0.786   8.310  22.434  0.00  0.00    +0.000 OA
ATOM     17  O   UNL     1       1.284   9.702  22.671  0.00  0.00    +0.000 OA
BRANCH  15  21
ATOM     18  C   UNL     1       3.079   8.101  17.488  0.00  0.00    +0.000 C 
ATOM     19  C   UNL     1       2.465   7.534  18.741  0.00  0.00    +0.000 A 
ATOM     20  C   UNL     1       1.790   8.406  19.606  0.00  0.00    +0.000 A 
ATOM     21  C   UNL     1       1.207   7.915  20.774  0.00  0.00    +0.000 A 
ATOM     22  C   UNL     1       1.298   6.564  21.105  0.00  0.00    +0.000 A 
ATOM     23  C   UNL     1       1.958   5.670  20.245  0.00  0.00    +0.000 A 
ATOM     24  C   UNL     1       1.989   4.211  20.620  0.00  0.00    +0.000 C 
ATOM     25  C   UNL     1       2.566   6.157  19.063  0.00  0.00    +0.000 A 
ATOM     26  C   UNL     1       3.340   5.243  18.141  0.00  0.00    +0.000 C 
ENDBRANCH  15  21
ENDBRANCH  13  15
ENDBRANCH   1  13
BRANCH   3  27
ATOM     27  C   UNL     1      -2.746  13.325  23.349  0.00  0.00    +0.000 C 
BRANCH  27  28
ATOM     28  N   UNL     1      -3.861  13.013  22.414  0.00  0.00    +0.000 NA
ATOM     29  C   UNL     1      -3.899  13.853  21.203  0.00  0.00    +0.000 C 
ATOM     30  C   UNL     1      -4.650  15.205  21.298  0.00  0.00    +0.000 C 
ATOM     31  O   UNL     1      -5.827  15.191  22.118  0.00  0.00    +0.000 OA
ATOM     32  C   UNL     1      -5.589  14.522  23.358  0.00  0.00    +0.000 C 
ATOM     33  C   UNL     1      -5.187  13.079  23.056  0.00  0.00    +0.000 C 
ENDBRANCH  27  28
ENDBRANCH   3  27
TORSDOF 5
ENDMDL
MODEL 4
REMARK VINA RESULT:      -7.3      4.970     10.882
REMARK  Name = 
REMARK  8 active torsions:
REMARK  status: ('A' for Active; 'I' for Inactive)
REMARK    1  A    between atoms: C_1  and  C_2
REMARK    2  A    between atoms: C_4  and  S_5
REMARK    3  A    between atoms: S_5  and  N_8
REMARK    4  A    between atoms: N_8  and  C_9
REMARK    5  A    between atoms: C_11  and  C_12
REMARK    6  A    between atoms: C_12  and  N_13
REMARK    7  A    between atoms: C_29  and  C_30
REMARK    8  A    between atoms: C_31  and  C_32
REMARK                            x       y       z     vdW  Elec       q    Type
REMARK                         _______ _______ _______ _____ _____    ______ ____
ROOT
ATOM      1  C   UNL     1       3.841   6.243  18.311  0.00  0.00    +0.000 A 
ATOM      2  N   UNL     1       4.625   6.455  17.247  0.00  0.00    +0.000 NA
ATOM      3  C   UNL     1       5.187   5.372  16.654  0.00  0.00    +0.000 A 
ATOM      4  N   UNL     1       5.203   4.127  17.153  0.00  0.00    +0.000 NA
ATOM      5  C   UNL     1       4.368   3.967  18.188  0.00  0.00    +0.000 A 
ATOM      6  S   UNL     1       4.069   2.402  18.830  0.00  0.00    +0.000 S 
ATOM      7  C   UNL     1       2.803   3.011  19.735  0.00  0.00    +0.000 A 
ATOM      8  C   UNL     1       2.672   4.372  19.684  0.00  0.00    +0.000 A 
ATOM      9  C   UNL     1       3.600   4.961  18.788  0.00  0.00    +0.000 A 
ATOM     10  C   UNL     1       1.486   4.828  20.452  0.00  0.00    +0.000 C 
ATOM     11  C   UNL     1       1.020   3.523  21.174  0.00  0.00    +0.000 C 
ATOM     12  C   UNL     1       1.736   2.322  20.487  0.00  0.00    +0.000 C 
ENDROOT
BRANCH   1  13
ATOM     13  N   UNL     1       3.284   7.418  18.883  0.00  0.00    +0.000 N 
ATOM     14  H   UNL     1       2.922   7.214  19.815  0.00  0.00    +0.000 HD
BRANCH  13  15
ATOM     15  S   UNL     1       2.059   8.097  17.948  0.00  0.00    +0.000 S 
ATOM     16  O   UNL     1       1.182   7.076  17.439  0.00  0.00    +0.000 OA
ATOM     17  O   UNL     1       2.704   9.023  17.029  0.00  0.00    +0.000 OA
BRANCH  15  21
ATOM     18  C   UNL     1       0.722   9.206  22.887  0.00  0.00    +0.000 C 
ATOM     19  C   UNL     1       0.555   9.539  21.427  0.00  0.00    +0.000 A 
ATOM     20  C   UNL     1       1.291   8.804  20.488  0.00  0.00    +0.000 A 
ATOM     21  C   UNL     1       1.160   9.083  19.128  0.00  0.00    +0.000 A 
ATOM     22  C   UNL     1       0.314  10.098  18.685  0.00  0.00    +0.000 A 
ATOM     23  C   UNL     1      -0.444  10.839  19.609  0.00  0.00    +0.000 A 
ATOM     24  C   UNL     1      -1.381  11.893  19.081  0.00  0.00    +0.000 C 
ATOM     25  C   UNL     1      -0.310  10.575  20.994  0.00  0.00    +0.000 A 
ATOM     26  C   UNL     1      -1.056  11.388  22.026  0.00  0.00    +0.000 C 
ENDBRANCH  15  21
ENDBRANCH  13  15
ENDBRANCH   1  13
BRANCH   3  27
ATOM     27  C   UNL     1       5.573   5.492  15.170  0.00  0.00    +0.000 C 
BRANCH  27  28
ATOM     28  N   UNL     1       6.679   4.567  14.799  0.00  0.00    +0.000 NA
ATOM     29  C   UNL     1       7.764   5.191  14.020  0.00  0.00    +0.000 C 
ATOM     30  C   UNL     1       7.592   5.249  12.481  0.00  0.00    +0.000 C 
ATOM     31  O   UNL     1       6.943   4.109  11.898  0.00  0.00    +0.000 OA
ATOM     32  C   UNL     1       5.781   3.737  12.641  0.00  0.00    +0.000 C 
ATOM     33  C   UNL     1       6.214   3.378  14.062  0.00  0.00    +0.000 C 
ENDBRANCH  27  28
ENDBRANCH   3  27
TORSDOF 5
ENDMDL
MODEL 5
REMARK VINA RESULT:      -7.2      4.959     10.798
REMARK  Name = 
REMARK  8 active torsions:
REMARK  status: ('A' for Active; 'I' for Inactive)
REMARK    1  A    between atoms: C_1  and  C_2
REMARK    2  A    between atoms: C_4  and  S_5
REMARK    3  A    between atoms: S_5  and  N_8
REMARK    4  A    between atoms: N_8  and  C_9
REMARK    5  A    between atoms: C_11  and  C_12
REMARK    6  A    between atoms: C_12  and  N_13
REMARK    7  A    between atoms: C_29  and  C_30
REMARK    8  A    between atoms: C_31  and  C_32
REMARK                            x       y       z     vdW  Elec       q    Type
REMARK                         _______ _______ _______ _____ _____    ______ ____
ROOT
ATOM      1  C   UNL     1       3.827   6.215  18.357  0.00  0.00    +0.000 A 
ATOM      2  N   UNL     1       4.607   6.439  17.291  0.00  0.00    +0.000 NA
ATOM      3  C   UNL     1       5.182   5.365  16.696  0.00  0.00    +0.000 A 
ATOM      4  N   UNL     1       5.217   4.119  17.193  0.00  0.00    +0.000 NA
ATOM      5  C   UNL     1       4.387   3.946  18.230  0.00  0.00    +0.000 A 
ATOM      6  S   UNL     1       4.111   2.377  18.871  0.00  0.00    +0.000 S 
ATOM      7  C   UNL     1       2.838   2.966  19.780  0.00  0.00    +0.000 A 
ATOM      8  C   UNL     1       2.688   4.326  19.730  0.00  0.00    +0.000 A 
ATOM      9  C   UNL     1       3.606   4.929  18.833  0.00  0.00    +0.000 A 
ATOM     10  C   UNL     1       1.497   4.765  20.501  0.00  0.00    +0.000 C 
ATOM     11  C   UNL     1       1.051   3.452  21.223  0.00  0.00    +0.000 C 
ATOM     12  C   UNL     1       1.783   2.262  20.532  0.00  0.00    +0.000 C 
ENDROOT
BRANCH   1  13
ATOM     13  N   UNL     1       3.255   7.381  18.931  0.00  0.00    +0.000 N 
ATOM     14  H   UNL     1       2.851   7.159  19.841  0.00  0.00    +0.000 HD
BRANCH  13  15
ATOM     15  S   UNL     1       2.077   8.092  17.960  0.00  0.00    +0.000 S 
ATOM     16  O   UNL     1       1.215   7.091  17.391  0.00  0.00    +0.000 OA
ATOM     17  O   UNL     1       2.768   9.032  17.090  0.00  0.00    +0.000 OA
BRANCH  15  21
ATOM     18  C   UNL     1      -1.190  12.046  19.013  0.00  0.00    +0.000 C 
ATOM     19  C   UNL     1      -0.357  10.915  19.557  0.00  0.00    +0.000 A 
ATOM     20  C   UNL     1       0.353  10.114  18.653  0.00  0.00    +0.000 A 
ATOM     21  C   UNL     1       1.136   9.060  19.122  0.00  0.00    +0.000 A 
ATOM     22  C   UNL     1       1.213   8.778  20.486  0.00  0.00    +0.000 A 
ATOM     23  C   UNL     1       0.520   9.577  21.411  0.00  0.00    +0.000 A 
ATOM     24  C   UNL     1       0.671   9.265  22.877  0.00  0.00    +0.000 C 
ATOM     25  C   UNL     1      -0.289  10.642  20.947  0.00  0.00    +0.000 A 
ATOM     26  C   UNL     1      -1.102  11.487  21.901  0.00  0.00    +0.000 C 
ENDBRANCH  15  21
ENDBRANCH  13  15
ENDBRANCH   1  13
BRANCH   3  27
ATOM     27  C   UNL     1       5.564   5.492  15.211  0.00  0.00    +0.000 C 
BRANCH  27  28
ATOM     28  N   UNL     1       6.667   4.567  14.832  0.00  0.00    +0.000 NA
ATOM     29  C   UNL     1       7.752   5.193  14.055  0.00  0.00    +0.000 C 
ATOM     30  C   UNL     1       7.578   5.263  12.517  0.00  0.00    +0.000 C 
ATOM     31  O   UNL     1       6.925   4.130  11.927  0.00  0.00    +0.000 OA
ATOM     32  C   UNL     1       5.762   3.755  12.669  0.00  0.00    +0.000 C 
ATOM     33  C   UNL     1       6.197   3.384  14.087  0.00  0.00    +0.000 C 
ENDBRANCH  27  28
ENDBRANCH   3  27
TORSDOF 5
ENDMDL
MODEL 6
REMARK VINA RESULT:      -7.1      2.130      2.832
REMARK  Name = 
REMARK  8 active torsions:
REMARK  status: ('A' for Active; 'I' for Inactive)
REMARK    1  A    between atoms: C_1  and  C_2
REMARK    2  A    between atoms: C_4  and  S_5
REMARK    3  A    between atoms: S_5  and  N_8
REMARK    4  A    between atoms: N_8  and  C_9
REMARK    5  A    between atoms: C_11  and  C_12
REMARK    6  A    between atoms: C_12  and  N_13
REMARK    7  A    between atoms: C_29  and  C_30
REMARK    8  A    between atoms: C_31  and  C_32
REMARK                            x       y       z     vdW  Elec       q    Type
REMARK                         _______ _______ _______ _____ _____    ______ ____
ROOT
ATOM      1  C   UNL     1      -0.476  11.123  19.024  0.00  0.00    +0.000 A 
ATOM      2  N   UNL     1      -1.789  10.867  19.079  0.00  0.00    +0.000 NA
ATOM      3  C   UNL     1      -2.631  11.922  19.209  0.00  0.00    +0.000 A 
ATOM      4  N   UNL     1      -2.269  13.182  19.498  0.00  0.00    +0.000 NA
ATOM      5  C   UNL     1      -0.950  13.386  19.385  0.00  0.00    +0.000 A 
ATOM      6  S   UNL     1      -0.304  14.974  19.492  0.00  0.00    +0.000 S 
ATOM      7  C   UNL     1       1.175  14.413  18.951  0.00  0.00    +0.000 A 
ATOM      8  C   UNL     1       1.251  13.053  18.818  0.00  0.00    +0.000 A 
ATOM      9  C   UNL     1       0.010  12.423  19.087  0.00  0.00    +0.000 A 
ATOM     10  C   UNL     1       2.566  12.640  18.266  0.00  0.00    +0.000 C 
ATOM     11  C   UNL     1       3.382  13.974  18.280  0.00  0.00    +0.000 C 
ATOM     12  C   UNL     1       2.370  15.141  18.485  0.00  0.00    +0.000 C 
ENDROOT
BRANCH   1  13
ATOM     13  N   UNL     1       0.349   9.975  18.886  0.00  0.00    +0.000 N 
ATOM     14  H   UNL     1      -0.105   9.291  18.279  0.00  0.00    +0.000 HD
BRANCH  13  15
ATOM     15  S   UNL     1       0.726   9.247  20.357  0.00  0.00    +0.000 S 
ATOM     16  O   UNL     1      -0.469   8.814  21.032  0.00  0.00    +0.000 OA
ATOM     17  O   UNL     1       1.658  10.137  21.033  0.00  0.00    +0.000 OA
BRANCH  15  21
ATOM     18  C   UNL     1       2.198   4.282  21.126  0.00  0.00    +0.000 C 
ATOM     19  C   UNL     1       2.320   5.519  20.276  0.00  0.00    +0.000 A 
ATOM     20  C   UNL     1       1.563   6.645  20.625  0.00  0.00    +0.000 A 
ATOM     21  C   UNL     1       1.652   7.809  19.861  0.00  0.00    +0.000 A 
ATOM     22  C   UNL     1       2.479   7.866  18.740  0.00  0.00    +0.000 A 
ATOM     23  C   UNL     1       3.258   6.753  18.381  0.00  0.00    +0.000 A 
ATOM     24  C   UNL     1       4.173   6.877  17.190  0.00  0.00    +0.000 C 
ATOM     25  C   UNL     1       3.166   5.561  19.139  0.00  0.00    +0.000 A 
ATOM     26  C   UNL     1       3.937   4.319  18.752  0.00  0.00    +0.000 C 
ENDBRANCH  15  21
ENDBRANCH  13  15
ENDBRANCH   1  13
BRANCH   3  27
ATOM     27  C   UNL     1      -4.072  11.752  18.699  0.00  0.00    +0.000 C 
BRANCH  27  28
ATOM     28  N   UNL     1      -5.003  12.748  19.297  0.00  0.00    +0.000 NA
ATOM     29  C   UNL     1      -5.510  12.386  20.634  0.00  0.00    +0.000 C 
ATOM     30  C   UNL     1      -6.775  11.494  20.698  0.00  0.00    +0.000 C 
ATOM     31  O   UNL     1      -7.752  11.748  19.678  0.00  0.00    +0.000 OA
ATOM     32  C   UNL     1      -7.140  11.871  18.392  0.00  0.00    +0.000 C 
ATOM     33  C   UNL     1      -6.162  13.045  18.435  0.00  0.00    +0.000 C 
ENDBRANCH  27  28
ENDBRANCH   3  27
TORSDOF 5
ENDMDL
MODEL 7
REMARK VINA RESULT:      -7.1      2.033      2.507
REMARK  Name = 
REMARK  8 active torsions:
REMARK  status: ('A' for Active; 'I' for Inactive)
REMARK    1  A    between atoms: C_1  and  C_2
REMARK    2  A    between atoms: C_4  and  S_5
REMARK    3  A    between atoms: S_5  and  N_8
REMARK    4  A    between atoms: N_8  and  C_9
REMARK    5  A    between atoms: C_11  and  C_12
REMARK    6  A    between atoms: C_12  and  N_13
REMARK    7  A    between atoms: C_29  and  C_30
REMARK    8  A    between atoms: C_31  and  C_32
REMARK                            x       y       z     vdW  Elec       q    Type
REMARK                         _______ _______ _______ _____ _____    ______ ____
ROOT
ATOM      1  C   UNL     1      -0.840  11.642  19.699  0.00  0.00    +0.000 A 
ATOM      2  N   UNL     1      -2.146  11.597  19.992  0.00  0.00    +0.000 NA
ATOM      3  C   UNL     1      -2.778  12.773  20.231  0.00  0.00    +0.000 A 
ATOM      4  N   UNL     1      -2.180  13.961  20.409  0.00  0.00    +0.000 NA
ATOM      5  C   UNL     1      -0.887  13.954  20.060  0.00  0.00    +0.000 A 
ATOM      6  S   UNL     1       0.006  15.420  19.999  0.00  0.00    +0.000 S 
ATOM      7  C   UNL     1       1.260  14.629  19.227  0.00  0.00    +0.000 A 
ATOM      8  C   UNL     1       1.100  13.274  19.129  0.00  0.00    +0.000 A 
ATOM      9  C   UNL     1      -0.156  12.849  19.632  0.00  0.00    +0.000 A 
ATOM     10  C   UNL     1       2.216  12.654  18.370  0.00  0.00    +0.000 C 
ATOM     11  C   UNL     1       3.217  13.842  18.196  0.00  0.00    +0.000 C 
ATOM     12  C   UNL     1       2.451  15.156  18.535  0.00  0.00    +0.000 C 
ENDROOT
BRANCH   1  13
ATOM     13  N   UNL     1      -0.241  10.377  19.458  0.00  0.00    +0.000 N 
ATOM     14  H   UNL     1      -0.916   9.749  19.022  0.00  0.00    +0.000 HD
BRANCH  13  15
ATOM     15  S   UNL     1       0.368   9.654  20.852  0.00  0.00    +0.000 S 
ATOM     16  O   UNL     1      -0.698   9.118  21.655  0.00  0.00    +0.000 OA
ATOM     17  O   UNL     1       1.308  10.602  21.434  0.00  0.00    +0.000 OA
BRANCH  15  21
ATOM     18  C   UNL     1       3.521   7.636  17.191  0.00  0.00    +0.000 C 
ATOM     19  C   UNL     1       2.768   7.409  18.476  0.00  0.00    +0.000 A 
ATOM     20  C   UNL     1       2.042   8.476  19.021  0.00  0.00    +0.000 A 
ATOM     21  C   UNL     1       1.332   8.301  20.208  0.00  0.00    +0.000 A 
ATOM     22  C   UNL     1       1.343   7.076  20.874  0.00  0.00    +0.000 A 
ATOM     23  C   UNL     1       2.053   5.988  20.338  0.00  0.00    +0.000 A 
ATOM     24  C   UNL     1       1.998   4.671  21.066  0.00  0.00    +0.000 C 
ATOM     25  C   UNL     1       2.790   6.157  19.140  0.00  0.00    +0.000 A 
ATOM     26  C   UNL     1       3.619   5.033  18.561  0.00  0.00    +0.000 C 
ENDBRANCH  15  21
ENDBRANCH  13  15
ENDBRANCH   1  13
BRANCH   3  27
ATOM     27  C   UNL     1      -4.296  12.829  19.987  0.00  0.00    +0.000 C 
BRANCH  27  28
ATOM     28  N   UNL     1      -4.774  11.693  19.152  0.00  0.00    +0.000 NA
ATOM     29  C   UNL     1      -4.795  11.965  17.703  0.00  0.00    +0.000 C 
ATOM     30  C   UNL     1      -6.066  12.638  17.124  0.00  0.00    +0.000 C 
ATOM     31  O   UNL     1      -7.301  12.228  17.728  0.00  0.00    +0.000 OA
ATOM     32  C   UNL     1      -7.201  12.209  19.153  0.00  0.00    +0.000 C 
ATOM     33  C   UNL     1      -6.111  11.211  19.545  0.00  0.00    +0.000 C 
ENDBRANCH  27  28
ENDBRANCH   3  27
TORSDOF 5
ENDMDL
MODEL 8
REMARK VINA RESULT:      -7.1      2.002      2.243
REMARK  Name = 
REMARK  8 active torsions:
REMARK  status: ('A' for Active; 'I' for Inactive)
REMARK    1  A    between atoms: C_1  and  C_2
REMARK    2  A    between atoms: C_4  and  S_5
REMARK    3  A    between atoms: S_5  and  N_8
REMARK    4  A    between atoms: N_8  and  C_9
REMARK    5  A    between atoms: C_11  and  C_12
REMARK    6  A    between atoms: C_12  and  N_13
REMARK    7  A    between atoms: C_29  and  C_30
REMARK    8  A    between atoms: C_31  and  C_32
REMARK                            x       y       z     vdW  Elec       q    Type
REMARK                         _______ _______ _______ _____ _____    ______ ____
ROOT
ATOM      1  C   UNL     1      -0.519  11.216  19.211  0.00  0.00    +0.000 A 
ATOM      2  N   UNL     1      -1.833  10.981  19.304  0.00  0.00    +0.000 NA
ATOM      3  C   UNL     1      -2.655  12.052  19.441  0.00  0.00    +0.000 A 
ATOM      4  N   UNL     1      -2.266  13.309  19.703  0.00  0.00    +0.000 NA
ATOM      5  C   UNL     1      -0.948  13.491  19.553  0.00  0.00    +0.000 A 
ATOM      6  S   UNL     1      -0.274  15.069  19.621  0.00  0.00    +0.000 S 
ATOM      7  C   UNL     1       1.181  14.478  19.050  0.00  0.00    +0.000 A 
ATOM      8  C   UNL     1       1.233  13.116  18.934  0.00  0.00    +0.000 A 
ATOM      9  C   UNL     1      -0.011  12.508  19.244  0.00  0.00    +0.000 A 
ATOM     10  C   UNL     1       2.526  12.674  18.354  0.00  0.00    +0.000 C 
ATOM     11  C   UNL     1       3.362  13.995  18.329  0.00  0.00    +0.000 C 
ATOM     12  C   UNL     1       2.375  15.181  18.544  0.00  0.00    +0.000 C 
ENDROOT
BRANCH   1  13
ATOM     13  N   UNL     1       0.284  10.053  19.068  0.00  0.00    +0.000 N 
ATOM     14  H   UNL     1      -0.184   9.378  18.462  0.00  0.00    +0.000 HD
BRANCH  13  15
ATOM     15  S   UNL     1       0.655   9.316  20.536  0.00  0.00    +0.000 S 
ATOM     16  O   UNL     1      -0.541   8.856  21.191  0.00  0.00    +0.000 OA
ATOM     17  O   UNL     1       1.563  10.215  21.234  0.00  0.00    +0.000 OA
BRANCH  15  21
ATOM     18  C   UNL     1       3.959   6.985  17.210  0.00  0.00    +0.000 C 
ATOM     19  C   UNL     1       3.123   6.860  18.457  0.00  0.00    +0.000 A 
ATOM     20  C   UNL     1       2.399   7.979  18.889  0.00  0.00    +0.000 A 
ATOM     21  C   UNL     1       1.612   7.899  20.038  0.00  0.00    +0.000 A 
ATOM     22  C   UNL     1       1.545   6.719  20.777  0.00  0.00    +0.000 A 
ATOM     23  C   UNL     1       2.251   5.580  20.353  0.00  0.00    +0.000 A 
ATOM     24  C   UNL     1       2.110   4.313  21.156  0.00  0.00    +0.000 C 
ATOM     25  C   UNL     1       3.065   5.652  19.197  0.00  0.00    +0.000 A 
ATOM     26  C   UNL     1       3.891   4.472  18.741  0.00  0.00    +0.000 C 
ENDBRANCH  15  21
ENDBRANCH  13  15
ENDBRANCH   1  13
BRANCH   3  27
ATOM     27  C   UNL     1      -4.112  11.897  18.971  0.00  0.00    +0.000 C 
BRANCH  27  28
ATOM     28  N   UNL     1      -5.023  12.871  19.632  0.00  0.00    +0.000 NA
ATOM     29  C   UNL     1      -5.603  12.401  20.904  0.00  0.00    +0.000 C 
ATOM     30  C   UNL     1      -6.907  11.568  20.827  0.00  0.00    +0.000 C 
ATOM     31  O   UNL     1      -7.827  11.970  19.801  0.00  0.00    +0.000 OA
ATOM     32  C   UNL     1      -7.155  12.193  18.559  0.00  0.00    +0.000 C 
ATOM     33  C   UNL     1      -6.130  13.309  18.761  0.00  0.00    +0.000 C 
ENDBRANCH  27  28
ENDBRANCH   3  27
TORSDOF 5
ENDMDL
MODEL 9
REMARK VINA RESULT:      -7.0      0.923      1.936
REMARK  Name = 
REMARK  8 active torsions:
REMARK  status: ('A' for Active; 'I' for Inactive)
REMARK    1  A    between atoms: C_1  and  C_2
REMARK    2  A    between atoms: C_4  and  S_5
REMARK    3  A    between atoms: S_5  and  N_8
REMARK    4  A    between atoms: N_8  and  C_9
REMARK    5  A    between atoms: C_11  and  C_12
REMARK    6  A    between atoms: C_12  and  N_13
REMARK    7  A    between atoms: C_29  and  C_30
REMARK    8  A    between atoms: C_31  and  C_32
REMARK                            x       y       z     vdW  Elec       q    Type
REMARK                         _______ _______ _______ _____ _____    ______ ____
ROOT
ATOM      1  C   UNL     1      -0.754  11.704  20.828  0.00  0.00    +0.000 A 
ATOM      2  N   UNL     1      -1.901  11.855  21.502  0.00  0.00    +0.000 NA
ATOM      3  C   UNL     1      -2.223  13.103  21.924  0.00  0.00    +0.000 A 
ATOM      4  N   UNL     1      -1.407  14.167  21.915  0.00  0.00    +0.000 NA
ATOM      5  C   UNL     1      -0.297  13.970  21.191  0.00  0.00    +0.000 A 
ATOM      6  S   UNL     1       0.772  15.274  20.865  0.00  0.00    +0.000 S 
ATOM      7  C   UNL     1       1.586  14.333  19.749  0.00  0.00    +0.000 A 
ATOM      8  C   UNL     1       1.176  13.028  19.701  0.00  0.00    +0.000 A 
ATOM      9  C   UNL     1       0.074  12.786  20.560  0.00  0.00    +0.000 A 
ATOM     10  C   UNL     1       1.893  12.278  18.638  0.00  0.00    +0.000 C 
ATOM     11  C   UNL     1       2.983  13.297  18.172  0.00  0.00    +0.000 C 
ATOM     12  C   UNL     1       2.588  14.697  18.729  0.00  0.00    +0.000 C 
ENDROOT
BRANCH   1  13
ATOM     13  N   UNL     1      -0.478  10.373  20.415  0.00  0.00    +0.000 N 
ATOM     14  H   UNL     1      -1.345   9.902  20.155  0.00  0.00    +0.000 HD
BRANCH  13  15
ATOM     15  S   UNL     1       0.316   9.464  21.588  0.00  0.00    +0.000 S 
ATOM     16  O   UNL     1      -0.630   8.816  22.457  0.00  0.00    +0.000 OA
ATOM     17  O   UNL     1       1.347  10.323  22.152  0.00  0.00    +0.000 OA
BRANCH  15  21
ATOM     18  C   UNL     1       1.971   4.536  20.958  0.00  0.00    +0.000 C 
ATOM     19  C   UNL     1       1.915   5.933  20.396  0.00  0.00    +0.000 A 
ATOM     20  C   UNL     1       1.222   6.914  21.116  0.00  0.00    +0.000 A 
ATOM     21  C   UNL     1       1.151   8.218  20.627  0.00  0.00    +0.000 A 
ATOM     22  C   UNL     1       1.752   8.561  19.416  0.00  0.00    +0.000 A 
ATOM     23  C   UNL     1       2.463   7.595  18.684  0.00  0.00    +0.000 A 
ATOM     24  C   UNL     1       3.136   8.022  17.405  0.00  0.00    +0.000 C 
ATOM     25  C   UNL     1       2.531   6.264  19.162  0.00  0.00    +0.000 A 
ATOM     26  C   UNL     1       3.231   5.179  18.377  0.00  0.00    +0.000 C 
ENDBRANCH  15  21
ENDBRANCH  13  15
ENDBRANCH   1  13
BRANCH   3  27
ATOM     27  C   UNL     1      -3.712  13.417  22.151  0.00  0.00    +0.000 C 
BRANCH  27  28
ATOM     28  N   UNL     1      -4.019  13.687  23.582  0.00  0.00    +0.000 NA
ATOM     29  C   UNL     1      -4.857  12.664  24.233  0.00  0.00    +0.000 C 
ATOM     30  C   UNL     1      -6.394  12.815  24.103  0.00  0.00    +0.000 C 
ATOM     31  O   UNL     1      -6.877  14.166  24.130  0.00  0.00    +0.000 OA
ATOM     32  C   UNL     1      -6.095  15.014  23.287  0.00  0.00    +0.000 C 
ATOM     33  C   UNL     1      -4.654  15.001  23.797  0.00  0.00    +0.000 C 
ENDBRANCH  27  28
ENDBRANCH   3  27
TORSDOF 5
ENDMDL
