MODEL 1
REMARK VINA RESULT:      -7.8      0.000      0.000
REMARK  Name = 
REMARK  11 active torsions:
REMARK  status: ('A' for Active; 'I' for Inactive)
REMARK    1  A    between atoms: C_1  and  O_2
REMARK    2  A    between atoms: O_2  and  C_3
REMARK    3  A    between atoms: C_8  and  N_9
REMARK    4  A    between atoms: C_11  and  O_12
REMARK    5  A    between atoms: O_12  and  C_13
REMARK    6  A    between atoms: C_15  and  C_16
REMARK    7  A    between atoms: C_15  and  C_17
REMARK    8  A    between atoms: C_18  and  O_19
REMARK    9  A    between atoms: C_20  and  C_21
REMARK   10  A    between atoms: C_20  and  C_22
REMARK   11  A    between atoms: C_25  and  C_26
REMARK                            x       y       z     vdW  Elec       q    Type
REMARK                         _______ _______ _______ _____ _____    ______ ____
ROOT
ATOM      1  N   UNL     1       2.165   6.226  20.007  0.00  0.00    +0.000 N 
ATOM      2  N   UNL     1       1.332   7.114  20.646  0.00  0.00    +0.000 NA
ATOM      3  C   UNL     1       1.460   8.249  19.974  0.00  0.00    +0.000 A 
ATOM      4  C   UNL     1       2.459   8.189  18.998  0.00  0.00    +0.000 A 
ATOM      5  C   UNL     1       2.977   6.902  19.062  0.00  0.00    +0.000 A 
ENDROOT
BRANCH   5   6
ATOM      6  C   UNL     1       4.072   6.342  18.241  0.00  0.00    +0.000 A 
ATOM      7  C   UNL     1       4.950   5.356  18.735  0.00  0.00    +0.000 A 
ATOM      8  C   UNL     1       5.876   4.745  17.879  0.00  0.00    +0.000 A 
ATOM      9  C   UNL     1       5.982   5.138  16.554  0.00  0.00    +0.000 A 
ATOM     10 CL   UNL     1       7.089   4.350  15.496  0.00  0.00    +0.000 Cl
ATOM     11  C   UNL     1       5.166   6.161  16.068  0.00  0.00    +0.000 A 
ATOM     12  C   UNL     1       4.220   6.752  16.903  0.00  0.00    +0.000 A 
ENDBRANCH   5   6
BRANCH   1  18
ATOM     13  C   UNL     1       1.696   3.873  19.267  0.00  0.00    +0.000 A 
ATOM     14  C   UNL     1       1.590   2.512  19.618  0.00  0.00    +0.000 A 
ATOM     15  C   UNL     1       1.795   2.074  20.926  0.00  0.00    +0.000 A 
ATOM     16  C   UNL     1       2.167   2.982  21.898  0.00  0.00    +0.000 A 
ATOM     17  C   UNL     1       2.338   4.323  21.557  0.00  0.00    +0.000 A 
ATOM     18  C   UNL     1       2.061   4.806  20.262  0.00  0.00    +0.000 A 
BRANCH  13  20
ATOM     19  C   UNL     1       2.140   3.670  16.927  0.00  0.00    +0.000 C 
ATOM     20  O   UNL     1       1.448   4.310  17.993  0.00  0.00    +0.000 OA
ENDBRANCH  13  20
ENDBRANCH   1  18
BRANCH   3  21
ATOM     21  O   UNL     1       0.620   9.295  20.161  0.00  0.00    +0.000 OA
BRANCH  21  22
ATOM     22  C   UNL     1       1.046  10.578  19.698  0.00  0.00    +0.000 C 
ATOM     23  C   UNL     1       0.208  10.956  18.448  0.00  0.00    +0.000 C 
ATOM     24  C   UNL     1      -1.303  11.212  18.702  0.00  0.00    +0.000 C 
ATOM     25  C   UNL     1      -2.067   9.868  18.754  0.00  0.00    +0.000 C 
ATOM     26  C   UNL     1      -1.905  11.938  17.451  0.00  0.00    +0.000 C 
ATOM     27  C   UNL     1      -1.528  12.112  19.974  0.00  0.00    +0.000 C 
ATOM     28  C   UNL     1      -0.531  12.034  21.186  0.00  0.00    +0.000 C 
ATOM     29  C   UNL     1      -0.978  11.025  22.267  0.00  0.00    +0.000 C 
ATOM     30  C   UNL     1      -0.495  13.413  21.923  0.00  0.00    +0.000 C 
ATOM     31  C   UNL     1       0.910  11.714  20.725  0.00  0.00    +0.000 C 
BRANCH  27  32
ATOM     32  O   UNL     1      -1.518  13.482  19.518  0.00  0.00    +0.000 OA
ATOM     33  H   UNL     1      -2.357  13.638  19.051  0.00  0.00    +0.000 HD
ENDBRANCH  27  32
ENDBRANCH  21  22
ENDBRANCH   3  21
TORSDOF 6
ENDMDL
MODEL 2
REMARK VINA RESULT:      -7.7      0.984      1.902
REMARK  Name = 
REMARK  11 active torsions:
REMARK  status: ('A' for Active; 'I' for Inactive)
REMARK    1  A    between atoms: C_1  and  O_2
REMARK    2  A    between atoms: O_2  and  C_3
REMARK    3  A    between atoms: C_8  and  N_9
REMARK    4  A    between atoms: C_11  and  O_12
REMARK    5  A    between atoms: O_12  and  C_13
REMARK    6  A    between atoms: C_15  and  C_16
REMARK    7  A    between atoms: C_15  and  C_17
REMARK    8  A    between atoms: C_18  and  O_19
REMARK    9  A    between atoms: C_20  and  C_21
REMARK   10  A    between atoms: C_20  and  C_22
REMARK   11  A    between atoms: C_25  and  C_26
REMARK                            x       y       z     vdW  Elec       q    Type
REMARK                         _______ _______ _______ _____ _____    ______ ____
ROOT
ATOM      1  N   UNL     1       2.212   6.568  19.497  0.00  0.00    +0.000 N 
ATOM      2  N   UNL     1       1.362   7.539  19.971  0.00  0.00    +0.000 NA
ATOM      3  C   UNL     1       1.538   8.574  19.162  0.00  0.00    +0.000 A 
ATOM      4  C   UNL     1       2.583   8.379  18.254  0.00  0.00    +0.000 A 
ATOM      5  C   UNL     1       3.079   7.108  18.512  0.00  0.00    +0.000 A 
ENDROOT
BRANCH   5   6
ATOM      6  C   UNL     1       4.204   6.436  17.829  0.00  0.00    +0.000 A 
ATOM      7  C   UNL     1       5.016   5.485  18.479  0.00  0.00    +0.000 A 
ATOM      8  C   UNL     1       5.974   4.763  17.754  0.00  0.00    +0.000 A 
ATOM      9  C   UNL     1       6.177   5.010  16.406  0.00  0.00    +0.000 A 
ATOM     10 CL   UNL     1       7.322   4.087  15.512  0.00  0.00    +0.000 Cl
ATOM     11  C   UNL     1       5.428   5.998  15.764  0.00  0.00    +0.000 A 
ATOM     12  C   UNL     1       4.450   6.698  16.468  0.00  0.00    +0.000 A 
ENDBRANCH   5   6
BRANCH   1  18
ATOM     13  C   UNL     1       1.712   4.148  19.058  0.00  0.00    +0.000 A 
ATOM     14  C   UNL     1       1.574   2.845  19.580  0.00  0.00    +0.000 A 
ATOM     15  C   UNL     1       1.745   2.578  20.938  0.00  0.00    +0.000 A 
ATOM     16  C   UNL     1       2.115   3.599  21.792  0.00  0.00    +0.000 A 
ATOM     17  C   UNL     1       2.319   4.881  21.284  0.00  0.00    +0.000 A 
ATOM     18  C   UNL     1       2.076   5.196  19.931  0.00  0.00    +0.000 A 
BRANCH  13  20
ATOM     19  C   UNL     1       2.230   3.663  16.775  0.00  0.00    +0.000 C 
ATOM     20  O   UNL     1       1.497   4.419  17.733  0.00  0.00    +0.000 OA
ENDBRANCH  13  20
ENDBRANCH   1  18
BRANCH   3  21
ATOM     21  O   UNL     1       0.704   9.642  19.167  0.00  0.00    +0.000 OA
BRANCH  21  22
ATOM     22  C   UNL     1       0.391  10.232  20.430  0.00  0.00    +0.000 C 
ATOM     23  C   UNL     1       1.416  11.361  20.717  0.00  0.00    +0.000 C 
ATOM     24  C   UNL     1       1.339  12.596  19.777  0.00  0.00    +0.000 C 
ATOM     25  C   UNL     1       2.093  12.306  18.457  0.00  0.00    +0.000 C 
ATOM     26  C   UNL     1       2.154  13.769  20.423  0.00  0.00    +0.000 C 
ATOM     27  C   UNL     1      -0.149  13.063  19.561  0.00  0.00    +0.000 C 
ATOM     28  C   UNL     1      -1.318  12.013  19.574  0.00  0.00    +0.000 C 
ATOM     29  C   UNL     1      -1.662  11.481  18.167  0.00  0.00    +0.000 C 
ATOM     30  C   UNL     1      -2.632  12.702  20.070  0.00  0.00    +0.000 C 
ATOM     31  C   UNL     1      -1.020  10.834  20.530  0.00  0.00    +0.000 C 
BRANCH  27  32
ATOM     32  O   UNL     1      -0.438  14.018  20.606  0.00  0.00    +0.000 OA
ATOM     33  H   UNL     1      -1.139  13.634  21.162  0.00  0.00    +0.000 HD
ENDBRANCH  27  32
ENDBRANCH  21  22
ENDBRANCH   3  21
TORSDOF 6
ENDMDL
MODEL 3
REMARK VINA RESULT:      -7.7      3.212      8.765
REMARK  Name = 
REMARK  11 active torsions:
REMARK  status: ('A' for Active; 'I' for Inactive)
REMARK    1  A    between atoms: C_1  and  O_2
REMARK    2  A    between atoms: O_2  and  C_3
REMARK    3  A    between atoms: C_8  and  N_9
REMARK    4  A    between atoms: C_11  and  O_12
REMARK    5  A    between atoms: O_12  and  C_13
REMARK    6  A    between atoms: C_15  and  C_16
REMARK    7  A    between atoms: C_15  and  C_17
REMARK    8  A    between atoms: C_18  and  O_19
REMARK    9  A    between atoms: C_20  and  C_21
REMARK   10  A    between atoms: C_20  and  C_22
REMARK   11  A    between atoms: C_25  and  C_26
REMARK                            x       y       z     vdW  Elec       q    Type
REMARK                         _______ _______ _______ _____ _____    ______ ____
ROOT
ATOM      1  N   UNL     1       1.244  10.222  18.808  0.00  0.00    +0.000 N 
ATOM      2  N   UNL     1       2.244   9.294  18.973  0.00  0.00    +0.000 NA
ATOM      3  C   UNL     1       1.883   8.262  18.224  0.00  0.00    +0.000 A 
ATOM      4  C   UNL     1       0.603   8.411  17.681  0.00  0.00    +0.000 A 
ATOM      5  C   UNL     1       0.146   9.648  18.116  0.00  0.00    +0.000 A 
ENDROOT
BRANCH   5   6
ATOM      6  C   UNL     1      -1.166  10.265  17.827  0.00  0.00    +0.000 A 
ATOM      7  C   UNL     1      -1.912   9.934  16.678  0.00  0.00    +0.000 A 
ATOM      8  C   UNL     1      -3.214  10.427  16.518  0.00  0.00    +0.000 A 
ATOM      9  C   UNL     1      -3.766  11.287  17.453  0.00  0.00    +0.000 A 
ATOM     10 CL   UNL     1      -5.383  11.850  17.274  0.00  0.00    +0.000 Cl
ATOM     11  C   UNL     1      -3.014  11.678  18.562  0.00  0.00    +0.000 A 
ATOM     12  C   UNL     1      -1.730  11.168  18.747  0.00  0.00    +0.000 A 
ENDBRANCH   5   6
BRANCH   1  18
ATOM     13  C   UNL     1       1.228  12.031  20.548  0.00  0.00    +0.000 A 
ATOM     14  C   UNL     1       1.412  13.396  20.850  0.00  0.00    +0.000 A 
ATOM     15  C   UNL     1       1.752  14.325  19.868  0.00  0.00    +0.000 A 
ATOM     16  C   UNL     1       1.972  13.897  18.572  0.00  0.00    +0.000 A 
ATOM     17  C   UNL     1       1.857  12.542  18.267  0.00  0.00    +0.000 A 
ATOM     18  C   UNL     1       1.437  11.593  19.222  0.00  0.00    +0.000 A 
BRANCH  13  20
ATOM     19  C   UNL     1      -0.416  11.318  22.130  0.00  0.00    +0.000 C 
ATOM     20  O   UNL     1       0.847  11.127  21.504  0.00  0.00    +0.000 OA
ENDBRANCH  13  20
ENDBRANCH   1  18
BRANCH   3  21
ATOM     21  O   UNL     1       2.730   7.243  17.944  0.00  0.00    +0.000 OA
BRANCH  21  22
ATOM     22  C   UNL     1       3.448   6.660  19.033  0.00  0.00    +0.000 C 
ATOM     23  C   UNL     1       2.663   5.419  19.536  0.00  0.00    +0.000 C 
ATOM     24  C   UNL     1       2.588   4.224  18.547  0.00  0.00    +0.000 C 
ATOM     25  C   UNL     1       1.463   4.461  17.512  0.00  0.00    +0.000 C 
ATOM     26  C   UNL     1       2.111   2.954  19.333  0.00  0.00    +0.000 C 
ATOM     27  C   UNL     1       3.989   3.926  17.895  0.00  0.00    +0.000 C 
ATOM     28  C   UNL     1       5.005   5.097  17.633  0.00  0.00    +0.000 C 
ATOM     29  C   UNL     1       4.877   5.698  16.217  0.00  0.00    +0.000 C 
ATOM     30  C   UNL     1       6.467   4.544  17.699  0.00  0.00    +0.000 C 
ATOM     31  C   UNL     1       4.881   6.213  18.697  0.00  0.00    +0.000 C 
BRANCH  27  32
ATOM     32  O   UNL     1       4.657   2.984  18.762  0.00  0.00    +0.000 OA
ATOM     33  H   UNL     1       5.294   3.488  19.299  0.00  0.00    +0.000 HD
ENDBRANCH  27  32
ENDBRANCH  21  22
ENDBRANCH   3  21
TORSDOF 6
ENDMDL
MODEL 4
REMARK VINA RESULT:      -7.5      0.870      1.487
REMARK  Name = 
REMARK  11 active torsions:
REMARK  status: ('A' for Active; 'I' for Inactive)
REMARK    1  A    between atoms: C_1  and  O_2
REMARK    2  A    between atoms: O_2  and  C_3
REMARK    3  A    between atoms: C_8  and  N_9
REMARK    4  A    between atoms: C_11  and  O_12
REMARK    5  A    between atoms: O_12  and  C_13
REMARK    6  A    between atoms: C_15  and  C_16
REMARK    7  A    between atoms: C_15  and  C_17
REMARK    8  A    between atoms: C_18  and  O_19
REMARK    9  A    between atoms: C_20  and  C_21
REMARK   10  A    between atoms: C_20  and  C_22
REMARK   11  A    between atoms: C_25  and  C_26
REMARK                            x       y       z     vdW  Elec       q    Type
REMARK                         _______ _______ _______ _____ _____    ______ ____
ROOT
ATOM      1  N   UNL     1       2.195   6.433  19.873  0.00  0.00    +0.000 N 
ATOM      2  N   UNL     1       1.394   7.374  20.476  0.00  0.00    +0.000 NA
ATOM      3  C   UNL     1       1.564   8.478  19.762  0.00  0.00    +0.000 A 
ATOM      4  C   UNL     1       2.563   8.345  18.792  0.00  0.00    +0.000 A 
ATOM      5  C   UNL     1       3.034   7.044  18.906  0.00  0.00    +0.000 A 
ENDROOT
BRANCH   5   6
ATOM      6  C   UNL     1       4.109   6.414  18.110  0.00  0.00    +0.000 A 
ATOM      7  C   UNL     1       4.939   5.405  18.638  0.00  0.00    +0.000 A 
ATOM      8  C   UNL     1       5.844   4.731  17.808  0.00  0.00    +0.000 A 
ATOM      9  C   UNL     1       5.977   5.081  16.473  0.00  0.00    +0.000 A 
ATOM     10 CL   UNL     1       7.056   4.217  15.448  0.00  0.00    +0.000 Cl
ATOM     11  C   UNL     1       5.211   6.125  15.953  0.00  0.00    +0.000 A 
ATOM     12  C   UNL     1       4.284   6.779  16.762  0.00  0.00    +0.000 A 
ENDBRANCH   5   6
BRANCH   1  18
ATOM     13  C   UNL     1       1.636   4.074  19.221  0.00  0.00    +0.000 A 
ATOM     14  C   UNL     1       1.481   2.731  19.622  0.00  0.00    +0.000 A 
ATOM     15  C   UNL     1       1.674   2.335  20.946  0.00  0.00    +0.000 A 
ATOM     16  C   UNL     1       2.083   3.264  21.883  0.00  0.00    +0.000 A 
ATOM     17  C   UNL     1       2.303   4.584  21.492  0.00  0.00    +0.000 A 
ATOM     18  C   UNL     1       2.039   5.029  20.180  0.00  0.00    +0.000 A 
BRANCH  13  20
ATOM     19  C   UNL     1       2.056   3.760  16.889  0.00  0.00    +0.000 C 
ATOM     20  O   UNL     1       1.401   4.472  17.932  0.00  0.00    +0.000 OA
ENDBRANCH  13  20
ENDBRANCH   1  18
BRANCH   3  21
ATOM     21  O   UNL     1       0.762   9.560  19.906  0.00  0.00    +0.000 OA
BRANCH  21  22
ATOM     22  C   UNL     1       0.273  10.185  18.719  0.00  0.00    +0.000 C 
ATOM     23  C   UNL     1      -1.196  10.624  18.960  0.00  0.00    +0.000 C 
ATOM     24  C   UNL     1      -1.397  11.756  20.004  0.00  0.00    +0.000 C 
ATOM     25  C   UNL     1      -1.384  11.168  21.435  0.00  0.00    +0.000 C 
ATOM     26  C   UNL     1      -2.848  12.329  19.848  0.00  0.00    +0.000 C 
ATOM     27  C   UNL     1      -0.361  12.923  19.795  0.00  0.00    +0.000 C 
ATOM     28  C   UNL     1       1.076  12.615  19.240  0.00  0.00    +0.000 C 
ATOM     29  C   UNL     1       2.115  12.379  20.358  0.00  0.00    +0.000 C 
ATOM     30  C   UNL     1       1.612  13.860  18.458  0.00  0.00    +0.000 C 
ATOM     31  C   UNL     1       1.069  11.418  18.261  0.00  0.00    +0.000 C 
BRANCH  27  32
ATOM     32  O   UNL     1      -0.969  13.856  18.876  0.00  0.00    +0.000 OA
ATOM     33  H   UNL     1      -1.910  13.924  19.113  0.00  0.00    +0.000 HD
ENDBRANCH  27  32
ENDBRANCH  21  22
ENDBRANCH   3  21
TORSDOF 6
ENDMDL
MODEL 5
REMARK VINA RESULT:      -7.3      1.521      2.467
REMARK  Name = 
REMARK  11 active torsions:
REMARK  status: ('A' for Active; 'I' for Inactive)
REMARK    1  A    between atoms: C_1  and  O_2
REMARK    2  A    between atoms: O_2  and  C_3
REMARK    3  A    between atoms: C_8  and  N_9
REMARK    4  A    between atoms: C_11  and  O_12
REMARK    5  A    between atoms: O_12  and  C_13
REMARK    6  A    between atoms: C_15  and  C_16
REMARK    7  A    between atoms: C_15  and  C_17
REMARK    8  A    between atoms: C_18  and  O_19
REMARK    9  A    between atoms: C_20  and  C_21
REMARK   10  A    between atoms: C_20  and  C_22
REMARK   11  A    between atoms: C_25  and  C_26
REMARK                            x       y       z     vdW  Elec       q    Type
REMARK                         _______ _______ _______ _____ _____    ______ ____
ROOT
ATOM      1  N   UNL     1       2.467   6.585  19.221  0.00  0.00    +0.000 N 
ATOM      2  N   UNL     1       1.819   7.665  19.771  0.00  0.00    +0.000 NA
ATOM      3  C   UNL     1       1.833   8.593  18.826  0.00  0.00    +0.000 A 
ATOM      4  C   UNL     1       2.598   8.222  17.716  0.00  0.00    +0.000 A 
ATOM      5  C   UNL     1       3.078   6.949  17.993  0.00  0.00    +0.000 A 
ENDROOT
BRANCH   5   6
ATOM      6  C   UNL     1       3.955   6.123  17.136  0.00  0.00    +0.000 A 
ATOM      7  C   UNL     1       3.691   4.761  16.887  0.00  0.00    +0.000 A 
ATOM      8  C   UNL     1       4.459   4.055  15.951  0.00  0.00    +0.000 A 
ATOM      9  C   UNL     1       5.520   4.664  15.300  0.00  0.00    +0.000 A 
ATOM     10 CL   UNL     1       6.428   3.805  14.118  0.00  0.00    +0.000 Cl
ATOM     11  C   UNL     1       5.836   5.993  15.588  0.00  0.00    +0.000 A 
ATOM     12  C   UNL     1       5.058   6.714  16.492  0.00  0.00    +0.000 A 
ENDBRANCH   5   6
BRANCH   1  18
ATOM     13  C   UNL     1       3.512   4.551  20.256  0.00  0.00    +0.000 A 
ATOM     14  C   UNL     1       3.327   3.271  20.818  0.00  0.00    +0.000 A 
ATOM     15  C   UNL     1       2.061   2.696  20.930  0.00  0.00    +0.000 A 
ATOM     16  C   UNL     1       0.949   3.413  20.534  0.00  0.00    +0.000 A 
ATOM     17  C   UNL     1       1.106   4.705  20.035  0.00  0.00    +0.000 A 
ATOM     18  C   UNL     1       2.378   5.280  19.836  0.00  0.00    +0.000 A 
BRANCH  13  20
ATOM     19  C   UNL     1       5.737   4.328  19.410  0.00  0.00    +0.000 C 
ATOM     20  O   UNL     1       4.758   5.096  20.102  0.00  0.00    +0.000 OA
ENDBRANCH  13  20
ENDBRANCH   1  18
BRANCH   3  21
ATOM     21  O   UNL     1       1.084   9.719  18.910  0.00  0.00    +0.000 OA
BRANCH  21  22
ATOM     22  C   UNL     1       0.680  10.150  20.211  0.00  0.00    +0.000 C 
ATOM     23  C   UNL     1       1.571  11.349  20.634  0.00  0.00    +0.000 C 
ATOM     24  C   UNL     1       1.382  12.652  19.810  0.00  0.00    +0.000 C 
ATOM     25  C   UNL     1       2.192  12.570  18.494  0.00  0.00    +0.000 C 
ATOM     26  C   UNL     1       2.050  13.837  20.588  0.00  0.00    +0.000 C 
ATOM     27  C   UNL     1      -0.143  12.978  19.589  0.00  0.00    +0.000 C 
ATOM     28  C   UNL     1      -1.191  11.814  19.468  0.00  0.00    +0.000 C 
ATOM     29  C   UNL     1      -1.445  11.384  18.006  0.00  0.00    +0.000 C 
ATOM     30  C   UNL     1      -2.583  12.309  19.981  0.00  0.00    +0.000 C 
ATOM     31  C   UNL     1      -0.790  10.587  20.320  0.00  0.00    +0.000 C 
BRANCH  27  32
ATOM     32  O   UNL     1      -0.557  13.793  20.708  0.00  0.00    +0.000 OA
ATOM     33  H   UNL     1      -0.325  13.309  21.519  0.00  0.00    +0.000 HD
ENDBRANCH  27  32
ENDBRANCH  21  22
ENDBRANCH   3  21
TORSDOF 6
ENDMDL
MODEL 6
REMARK VINA RESULT:      -7.2      0.787      2.095
REMARK  Name = 
REMARK  11 active torsions:
REMARK  status: ('A' for Active; 'I' for Inactive)
REMARK    1  A    between atoms: C_1  and  O_2
REMARK    2  A    between atoms: O_2  and  C_3
REMARK    3  A    between atoms: C_8  and  N_9
REMARK    4  A    between atoms: C_11  and  O_12
REMARK    5  A    between atoms: O_12  and  C_13
REMARK    6  A    between atoms: C_15  and  C_16
REMARK    7  A    between atoms: C_15  and  C_17
REMARK    8  A    between atoms: C_18  and  O_19
REMARK    9  A    between atoms: C_20  and  C_21
REMARK   10  A    between atoms: C_20  and  C_22
REMARK   11  A    between atoms: C_25  and  C_26
REMARK                            x       y       z     vdW  Elec       q    Type
REMARK                         _______ _______ _______ _____ _____    ______ ____
ROOT
ATOM      1  N   UNL     1       2.242   6.593  19.574  0.00  0.00    +0.000 N 
ATOM      2  N   UNL     1       1.434   7.565  20.113  0.00  0.00    +0.000 NA
ATOM      3  C   UNL     1       1.608   8.626  19.339  0.00  0.00    +0.000 A 
ATOM      4  C   UNL     1       2.617   8.440  18.389  0.00  0.00    +0.000 A 
ATOM      5  C   UNL     1       3.089   7.149  18.582  0.00  0.00    +0.000 A 
ENDROOT
BRANCH   5   6
ATOM      6  C   UNL     1       4.174   6.477  17.835  0.00  0.00    +0.000 A 
ATOM      7  C   UNL     1       4.981   5.480  18.420  0.00  0.00    +0.000 A 
ATOM      8  C   UNL     1       5.895   4.764  17.636  0.00  0.00    +0.000 A 
ATOM      9  C   UNL     1       6.061   5.060  16.292  0.00  0.00    +0.000 A 
ATOM     10 CL   UNL     1       7.151   4.145  15.325  0.00  0.00    +0.000 Cl
ATOM     11  C   UNL     1       5.318   6.091  15.715  0.00  0.00    +0.000 A 
ATOM     12  C   UNL     1       4.382   6.787  16.478  0.00  0.00    +0.000 A 
ENDBRANCH   5   6
BRANCH   1  18
ATOM     13  C   UNL     1       1.720   4.194  19.049  0.00  0.00    +0.000 A 
ATOM     14  C   UNL     1       1.561   2.877  19.525  0.00  0.00    +0.000 A 
ATOM     15  C   UNL     1       1.714   2.562  20.875  0.00  0.00    +0.000 A 
ATOM     16  C   UNL     1       2.086   3.550  21.767  0.00  0.00    +0.000 A 
ATOM     17  C   UNL     1       2.310   4.845  21.305  0.00  0.00    +0.000 A 
ATOM     18  C   UNL     1       2.086   5.208  19.961  0.00  0.00    +0.000 A 
BRANCH  13  20
ATOM     19  C   UNL     1       2.193   3.725  16.753  0.00  0.00    +0.000 C 
ATOM     20  O   UNL     1       1.524   4.512  17.731  0.00  0.00    +0.000 OA
ENDBRANCH  13  20
ENDBRANCH   1  18
BRANCH   3  21
ATOM     21  O   UNL     1       0.803   9.713  19.412  0.00  0.00    +0.000 OA
BRANCH  21  22
ATOM     22  C   UNL     1      -0.401   9.594  20.172  0.00  0.00    +0.000 C 
ATOM     23  C   UNL     1      -0.305  10.537  21.401  0.00  0.00    +0.000 C 
ATOM     24  C   UNL     1      -0.294  12.057  21.085  0.00  0.00    +0.000 C 
ATOM     25  C   UNL     1       1.132  12.506  20.685  0.00  0.00    +0.000 C 
ATOM     26  C   UNL     1      -0.576  12.846  22.409  0.00  0.00    +0.000 C 
ATOM     27  C   UNL     1      -1.392  12.433  20.021  0.00  0.00    +0.000 C 
ATOM     28  C   UNL     1      -1.797  11.403  18.905  0.00  0.00    +0.000 C 
ATOM     29  C   UNL     1      -0.990  11.580  17.601  0.00  0.00    +0.000 C 
ATOM     30  C   UNL     1      -3.285  11.646  18.486  0.00  0.00    +0.000 C 
ATOM     31  C   UNL     1      -1.687   9.943  19.404  0.00  0.00    +0.000 C 
BRANCH  27  32
ATOM     32  O   UNL     1      -2.595  12.739  20.758  0.00  0.00    +0.000 OA
ATOM     33  H   UNL     1      -2.447  13.586  21.214  0.00  0.00    +0.000 HD
ENDBRANCH  27  32
ENDBRANCH  21  22
ENDBRANCH   3  21
TORSDOF 6
ENDMDL
MODEL 7
REMARK VINA RESULT:      -7.2      1.106      1.530
REMARK  Name = 
REMARK  11 active torsions:
REMARK  status: ('A' for Active; 'I' for Inactive)
REMARK    1  A    between atoms: C_1  and  O_2
REMARK    2  A    between atoms: O_2  and  C_3
REMARK    3  A    between atoms: C_8  and  N_9
REMARK    4  A    between atoms: C_11  and  O_12
REMARK    5  A    between atoms: O_12  and  C_13
REMARK    6  A    between atoms: C_15  and  C_16
REMARK    7  A    between atoms: C_15  and  C_17
REMARK    8  A    between atoms: C_18  and  O_19
REMARK    9  A    between atoms: C_20  and  C_21
REMARK   10  A    between atoms: C_20  and  C_22
REMARK   11  A    between atoms: C_25  and  C_26
REMARK                            x       y       z     vdW  Elec       q    Type
REMARK                         _______ _______ _______ _____ _____    ______ ____
ROOT
ATOM      1  N   UNL     1       2.305   6.312  19.754  0.00  0.00    +0.000 N 
ATOM      2  N   UNL     1       1.679   7.262  20.525  0.00  0.00    +0.000 NA
ATOM      3  C   UNL     1       1.578   8.327  19.743  0.00  0.00    +0.000 A 
ATOM      4  C   UNL     1       2.247   8.169  18.525  0.00  0.00    +0.000 A 
ATOM      5  C   UNL     1       2.788   6.890  18.552  0.00  0.00    +0.000 A 
ENDROOT
BRANCH   5   6
ATOM      6  C   UNL     1       3.605   6.248  17.500  0.00  0.00    +0.000 A 
ATOM      7  C   UNL     1       4.712   6.893  16.912  0.00  0.00    +0.000 A 
ATOM      8  C   UNL     1       5.547   6.194  16.030  0.00  0.00    +0.000 A 
ATOM      9  C   UNL     1       5.270   4.882  15.681  0.00  0.00    +0.000 A 
ATOM     10 CL   UNL     1       6.327   4.015  14.635  0.00  0.00    +0.000 Cl
ATOM     11  C   UNL     1       4.139   4.252  16.202  0.00  0.00    +0.000 A 
ATOM     12  C   UNL     1       3.320   4.927  17.106  0.00  0.00    +0.000 A 
ENDBRANCH   5   6
BRANCH   1  18
ATOM     13  C   UNL     1       3.500   4.185  20.346  0.00  0.00    +0.000 A 
ATOM     14  C   UNL     1       3.405   2.826  20.710  0.00  0.00    +0.000 A 
ATOM     15  C   UNL     1       2.173   2.188  20.847  0.00  0.00    +0.000 A 
ATOM     16  C   UNL     1       1.008   2.912  20.678  0.00  0.00    +0.000 A 
ATOM     17  C   UNL     1       1.081   4.272  20.380  0.00  0.00    +0.000 A 
ATOM     18  C   UNL     1       2.312   4.924  20.158  0.00  0.00    +0.000 A 
BRANCH  13  20
ATOM     19  C   UNL     1       5.698   4.108  19.409  0.00  0.00    +0.000 C 
ATOM     20  O   UNL     1       4.710   4.799  20.165  0.00  0.00    +0.000 OA
ENDBRANCH  13  20
ENDBRANCH   1  18
BRANCH   3  21
ATOM     21  O   UNL     1       0.807   9.392  20.071  0.00  0.00    +0.000 OA
BRANCH  21  22
ATOM     22  C   UNL     1       1.193  10.670  19.563  0.00  0.00    +0.000 C 
ATOM     23  C   UNL     1       0.309  11.000  18.331  0.00  0.00    +0.000 C 
ATOM     24  C   UNL     1      -1.198  11.232  18.626  0.00  0.00    +0.000 C 
ATOM     25  C   UNL     1      -1.933   9.875  18.736  0.00  0.00    +0.000 C 
ATOM     26  C   UNL     1      -1.854  11.913  17.376  0.00  0.00    +0.000 C 
ATOM     27  C   UNL     1      -1.403  12.161  19.882  0.00  0.00    +0.000 C 
ATOM     28  C   UNL     1      -0.367  12.133  21.063  0.00  0.00    +0.000 C 
ATOM     29  C   UNL     1      -0.759  11.144  22.182  0.00  0.00    +0.000 C 
ATOM     30  C   UNL     1      -0.336  13.531  21.763  0.00  0.00    +0.000 C 
ATOM     31  C   UNL     1       1.065  11.830  20.565  0.00  0.00    +0.000 C 
BRANCH  27  32
ATOM     32  O   UNL     1      -1.435  13.518  19.391  0.00  0.00    +0.000 OA
ATOM     33  H   UNL     1      -0.513  13.792  19.237  0.00  0.00    +0.000 HD
ENDBRANCH  27  32
ENDBRANCH  21  22
ENDBRANCH   3  21
TORSDOF 6
ENDMDL
MODEL 8
REMARK VINA RESULT:      -7.2      1.447      2.147
REMARK  Name = 
REMARK  11 active torsions:
REMARK  status: ('A' for Active; 'I' for Inactive)
REMARK    1  A    between atoms: C_1  and  O_2
REMARK    2  A    between atoms: O_2  and  C_3
REMARK    3  A    between atoms: C_8  and  N_9
REMARK    4  A    between atoms: C_11  and  O_12
REMARK    5  A    between atoms: O_12  and  C_13
REMARK    6  A    between atoms: C_15  and  C_16
REMARK    7  A    between atoms: C_15  and  C_17
REMARK    8  A    between atoms: C_18  and  O_19
REMARK    9  A    between atoms: C_20  and  C_21
REMARK   10  A    between atoms: C_20  and  C_22
REMARK   11  A    between atoms: C_25  and  C_26
REMARK                            x       y       z     vdW  Elec       q    Type
REMARK                         _______ _______ _______ _____ _____    ______ ____
ROOT
ATOM      1  N   UNL     1       2.382   6.602  19.576  0.00  0.00    +0.000 N 
ATOM      2  N   UNL     1       1.804   7.634  20.277  0.00  0.00    +0.000 NA
ATOM      3  C   UNL     1       1.767   8.649  19.426  0.00  0.00    +0.000 A 
ATOM      4  C   UNL     1       2.434   8.374  18.228  0.00  0.00    +0.000 A 
ATOM      5  C   UNL     1       2.904   7.072  18.344  0.00  0.00    +0.000 A 
ENDROOT
BRANCH   5   6
ATOM      6  C   UNL     1       3.691   6.318  17.346  0.00  0.00    +0.000 A 
ATOM      7  C   UNL     1       4.816   6.872  16.704  0.00  0.00    +0.000 A 
ATOM      8  C   UNL     1       5.620   6.075  15.879  0.00  0.00    +0.000 A 
ATOM      9  C   UNL     1       5.294   4.750  15.637  0.00  0.00    +0.000 A 
ATOM     10 CL   UNL     1       6.312   3.764  14.661  0.00  0.00    +0.000 Cl
ATOM     11  C   UNL     1       4.144   4.206  16.211  0.00  0.00    +0.000 A 
ATOM     12  C   UNL     1       3.355   4.981  17.059  0.00  0.00    +0.000 A 
ENDBRANCH   5   6
BRANCH   1  18
ATOM     13  C   UNL     1       3.453   4.459  20.324  0.00  0.00    +0.000 A 
ATOM     14  C   UNL     1       3.282   3.134  20.776  0.00  0.00    +0.000 A 
ATOM     15  C   UNL     1       2.015   2.573  20.937  0.00  0.00    +0.000 A 
ATOM     16  C   UNL     1       0.893   3.346  20.704  0.00  0.00    +0.000 A 
ATOM     17  C   UNL     1       1.042   4.677  20.318  0.00  0.00    +0.000 A 
ATOM     18  C   UNL     1       2.309   5.246  20.071  0.00  0.00    +0.000 A 
BRANCH  13  20
ATOM     19  C   UNL     1       5.664   4.190  19.454  0.00  0.00    +0.000 C 
ATOM     20  O   UNL     1       4.697   4.995  20.120  0.00  0.00    +0.000 OA
ENDBRANCH  13  20
ENDBRANCH   1  18
BRANCH   3  21
ATOM     21  O   UNL     1       1.055   9.774  19.676  0.00  0.00    +0.000 OA
BRANCH  21  22
ATOM     22  C   UNL     1       0.529  10.488  18.555  0.00  0.00    +0.000 C 
ATOM     23  C   UNL     1      -0.969  10.792  18.820  0.00  0.00    +0.000 C 
ATOM     24  C   UNL     1      -1.261  11.785  19.977  0.00  0.00    +0.000 C 
ATOM     25  C   UNL     1      -1.215  11.046  21.336  0.00  0.00    +0.000 C 
ATOM     26  C   UNL     1      -2.748  12.265  19.862  0.00  0.00    +0.000 C 
ATOM     27  C   UNL     1      -0.311  13.040  19.912  0.00  0.00    +0.000 C 
ATOM     28  C   UNL     1       1.149  12.899  19.349  0.00  0.00    +0.000 C 
ATOM     29  C   UNL     1       2.193  12.617  20.451  0.00  0.00    +0.000 C 
ATOM     30  C   UNL     1       1.598  14.256  18.716  0.00  0.00    +0.000 C 
ATOM     31  C   UNL     1       1.237  11.818  18.246  0.00  0.00    +0.000 C 
BRANCH  27  32
ATOM     32  O   UNL     1      -0.979  14.021  19.090  0.00  0.00    +0.000 OA
ATOM     33  H   UNL     1      -0.963  14.865  19.576  0.00  0.00    +0.000 HD
ENDBRANCH  27  32
ENDBRANCH  21  22
ENDBRANCH   3  21
TORSDOF 6
ENDMDL
MODEL 9
REMARK VINA RESULT:      -7.2      3.180      8.737
REMARK  Name = 
REMARK  11 active torsions:
REMARK  status: ('A' for Active; 'I' for Inactive)
REMARK    1  A    between atoms: C_1  and  O_2
REMARK    2  A    between atoms: O_2  and  C_3
REMARK    3  A    between atoms: C_8  and  N_9
REMARK    4  A    between atoms: C_11  and  O_12
REMARK    5  A    between atoms: O_12  and  C_13
REMARK    6  A    between atoms: C_15  and  C_16
REMARK    7  A    between atoms: C_15  and  C_17
REMARK    8  A    between atoms: C_18  and  O_19
REMARK    9  A    between atoms: C_20  and  C_21
REMARK   10  A    between atoms: C_20  and  C_22
REMARK   11  A    between atoms: C_25  and  C_26
REMARK                            x       y       z     vdW  Elec       q    Type
REMARK                         _______ _______ _______ _____ _____    ______ ____
ROOT
ATOM      1  N   UNL     1       0.517   9.569  19.064  0.00  0.00    +0.000 N 
ATOM      2  N   UNL     1       1.375   8.663  18.489  0.00  0.00    +0.000 NA
ATOM      3  C   UNL     1       1.958   8.047  19.508  0.00  0.00    +0.000 A 
ATOM      4  C   UNL     1       1.627   8.614  20.743  0.00  0.00    +0.000 A 
ATOM      5  C   UNL     1       0.749   9.653  20.461  0.00  0.00    +0.000 A 
ENDROOT
BRANCH   5   6
ATOM      6  C   UNL     1       0.121  10.574  21.432  0.00  0.00    +0.000 A 
ATOM      7  C   UNL     1       0.350  11.964  21.402  0.00  0.00    +0.000 A 
ATOM      8  C   UNL     1      -0.379  12.817  22.241  0.00  0.00    +0.000 A 
ATOM      9  C   UNL     1      -1.293  12.306  23.149  0.00  0.00    +0.000 A 
ATOM     10 CL   UNL     1      -2.220  13.362  24.143  0.00  0.00    +0.000 Cl
ATOM     11  C   UNL     1      -1.481  10.926  23.238  0.00  0.00    +0.000 A 
ATOM     12  C   UNL     1      -0.785  10.072  22.385  0.00  0.00    +0.000 A 
ENDBRANCH   5   6
BRANCH   1  18
ATOM     13  C   UNL     1      -0.490  11.579  17.948  0.00  0.00    +0.000 A 
ATOM     14  C   UNL     1      -1.559  12.118  17.202  0.00  0.00    +0.000 A 
ATOM     15  C   UNL     1      -2.653  11.342  16.822  0.00  0.00    +0.000 A 
ATOM     16  C   UNL     1      -2.673   9.995  17.131  0.00  0.00    +0.000 A 
ATOM     17  C   UNL     1      -1.596   9.430  17.812  0.00  0.00    +0.000 A 
ATOM     18  C   UNL     1      -0.515  10.207  18.278  0.00  0.00    +0.000 A 
BRANCH  13  20
ATOM     19  C   UNL     1       0.343  13.753  18.491  0.00  0.00    +0.000 C 
ATOM     20  O   UNL     1       0.561  12.352  18.362  0.00  0.00    +0.000 OA
ENDBRANCH  13  20
ENDBRANCH   1  18
BRANCH   3  21
ATOM     21  O   UNL     1       2.698   6.925  19.344  0.00  0.00    +0.000 OA
BRANCH  21  22
ATOM     22  C   UNL     1       2.435   6.120  18.192  0.00  0.00    +0.000 C 
ATOM     23  C   UNL     1       3.784   5.799  17.494  0.00  0.00    +0.000 C 
ATOM     24  C   UNL     1       4.752   4.883  18.290  0.00  0.00    +0.000 C 
ATOM     25  C   UNL     1       5.539   5.717  19.330  0.00  0.00    +0.000 C 
ATOM     26  C   UNL     1       5.861   4.359  17.314  0.00  0.00    +0.000 C 
ATOM     27  C   UNL     1       3.997   3.651  18.916  0.00  0.00    +0.000 C 
ATOM     28  C   UNL     1       2.498   3.788  19.368  0.00  0.00    +0.000 C 
ATOM     29  C   UNL     1       2.353   4.172  20.856  0.00  0.00    +0.000 C 
ATOM     30  C   UNL     1       1.787   2.401  19.245  0.00  0.00    +0.000 C 
ATOM     31  C   UNL     1       1.721   4.790  18.482  0.00  0.00    +0.000 C 
BRANCH  27  32
ATOM     32  O   UNL     1       4.036   2.597  17.929  0.00  0.00    +0.000 OA
ATOM     33  H   UNL     1       4.825   2.747  17.378  0.00  0.00    +0.000 HD
ENDBRANCH  27  32
ENDBRANCH  21  22
ENDBRANCH   3  21
TORSDOF 6
ENDMDL
