MODEL 1
REMARK VINA RESULT:      -7.9      0.000      0.000
REMARK  Name = 
REMARK  10 active torsions:
REMARK  status: ('A' for Active; 'I' for Inactive)
REMARK    1  A    between atoms: C_1  and  C_2
REMARK    2  A    between atoms: C_2  and  C_3
REMARK    3  A    between atoms: C_5  and  C_6
REMARK    4  A    between atoms: N_8  and  C_9
REMARK    5  A    between atoms: C_9  and  C_10
REMARK    6  A    between atoms: C_10  and  C_11
REMARK    7  A    between atoms: C_11  and  N_12
REMARK    8  A    between atoms: C_23  and  C_24
REMARK    9  A    between atoms: C_23  and  C_25
REMARK   10  A    between atoms: N_26  and  O_27
REMARK                            x       y       z     vdW  Elec       q    Type
REMARK                         _______ _______ _______ _____ _____    ______ ____
ROOT
ATOM      1  C   UNL     1       3.964   4.807  17.577  0.00  0.00    +0.000 C 
ATOM      2  O   UNL     1       4.311   3.738  18.080  0.00  0.00    +0.000 OA
ATOM      3  N   UNL     1       2.809   5.434  17.987  0.00  0.00    +0.000 N 
ATOM      4  H   UNL     1       2.500   6.285  17.540  0.00  0.00    +0.000 HD
ENDROOT
BRANCH   1   9
ATOM      5  C   UNL     1       7.884   7.372  17.839  0.00  0.00    +0.000 C 
ATOM      6  C   UNL     1       6.857   6.238  17.707  0.00  0.00    +0.000 C 
ATOM      7  C   UNL     1       6.746   5.554  19.084  0.00  0.00    +0.000 C 
ATOM      8  C   UNL     1       5.505   6.783  17.221  0.00  0.00    +0.000 C 
ATOM      9  C   UNL     1       4.823   5.572  16.564  0.00  0.00    +0.000 C 
ATOM     10  C   UNL     1       6.018   4.823  15.919  0.00  0.00    +0.000 C 
ATOM     11  C   UNL     1       6.165   5.305  14.450  0.00  0.00    +0.000 C 
ATOM     12  C   UNL     1       5.924   3.290  15.855  0.00  0.00    +0.000 C 
ATOM     13  N   UNL     1       7.244   5.332  16.597  0.00  0.00    +0.000 NA
BRANCH  13  14
ATOM     14  O   UNL     1       8.011   4.236  17.158  0.00  0.00    +0.000 OA
ATOM     15  H   UNL     1       8.858   4.319  16.683  0.00  0.00    +0.000 HD
ENDBRANCH  13  14
ENDBRANCH   1   9
BRANCH   3  16
ATOM     16  C   UNL     1       1.956   4.815  18.982  0.00  0.00    +0.000 C 
BRANCH  16  17
ATOM     17  C   UNL     1       1.775   5.692  20.217  0.00  0.00    +0.000 C 
BRANCH  17  18
ATOM     18  C   UNL     1       2.576   6.987  20.080  0.00  0.00    +0.000 C 
BRANCH  18  19
ATOM     19  N   UNL     1       1.718   8.152  19.962  0.00  0.00    +0.000 N 
ATOM     20  C   UNL     1       1.410   8.751  18.771  0.00  0.00    +0.000 C 
ATOM     21  O   UNL     1       1.767   8.458  17.644  0.00  0.00    +0.000 OA
ATOM     22  C   UNL     1       0.520   9.866  19.085  0.00  0.00    +0.000 A 
ATOM     23  C   UNL     1      -0.095  10.785  18.256  0.00  0.00    +0.000 A 
ATOM     24  C   UNL     1      -0.907  11.750  18.862  0.00  0.00    +0.000 A 
ATOM     25  C   UNL     1      -1.080  11.774  20.261  0.00  0.00    +0.000 A 
ATOM     26  C   UNL     1      -0.445  10.835  21.079  0.00  0.00    +0.000 A 
ATOM     27  C   UNL     1       0.352   9.892  20.458  0.00  0.00    +0.000 A 
ATOM     28  C   UNL     1       1.135   8.795  21.015  0.00  0.00    +0.000 C 
ATOM     29  O   UNL     1       1.222   8.549  22.211  0.00  0.00    +0.000 OA
ENDBRANCH  18  19
ENDBRANCH  17  18
ENDBRANCH  16  17
ENDBRANCH   3  16
TORSDOF 6
ENDMDL
MODEL 2
REMARK VINA RESULT:      -7.7      2.473      3.833
REMARK  Name = 
REMARK  10 active torsions:
REMARK  status: ('A' for Active; 'I' for Inactive)
REMARK    1  A    between atoms: C_1  and  C_2
REMARK    2  A    between atoms: C_2  and  C_3
REMARK    3  A    between atoms: C_5  and  C_6
REMARK    4  A    between atoms: N_8  and  C_9
REMARK    5  A    between atoms: C_9  and  C_10
REMARK    6  A    between atoms: C_10  and  C_11
REMARK    7  A    between atoms: C_11  and  N_12
REMARK    8  A    between atoms: C_23  and  C_24
REMARK    9  A    between atoms: C_23  and  C_25
REMARK   10  A    between atoms: N_26  and  O_27
REMARK                            x       y       z     vdW  Elec       q    Type
REMARK                         _______ _______ _______ _____ _____    ______ ____
ROOT
ATOM      1  C   UNL     1       5.882   4.811  19.043  0.00  0.00    +0.000 C 
ATOM      2  O   UNL     1       5.141   5.450  19.791  0.00  0.00    +0.000 OA
ATOM      3  N   UNL     1       5.712   3.455  18.876  0.00  0.00    +0.000 N 
ATOM      4  H   UNL     1       6.350   2.925  18.301  0.00  0.00    +0.000 HD
ENDROOT
BRANCH   1   9
ATOM      5  C   UNL     1       7.148   4.447  14.540  0.00  0.00    +0.000 C 
ATOM      6  C   UNL     1       6.489   4.838  15.870  0.00  0.00    +0.000 C 
ATOM      7  C   UNL     1       5.149   4.079  15.961  0.00  0.00    +0.000 C 
ATOM      8  C   UNL     1       7.416   4.517  17.053  0.00  0.00    +0.000 C 
ATOM      9  C   UNL     1       6.953   5.469  18.167  0.00  0.00    +0.000 C 
ATOM     10  C   UNL     1       6.556   6.743  17.376  0.00  0.00    +0.000 C 
ATOM     11  C   UNL     1       7.784   7.693  17.328  0.00  0.00    +0.000 C 
ATOM     12  C   UNL     1       5.397   7.579  17.941  0.00  0.00    +0.000 C 
ATOM     13  N   UNL     1       6.368   6.314  15.961  0.00  0.00    +0.000 NA
BRANCH  13  14
ATOM     14  O   UNL     1       5.051   6.689  15.485  0.00  0.00    +0.000 OA
ATOM     15  H   UNL     1       5.244   7.004  14.582  0.00  0.00    +0.000 HD
ENDBRANCH  13  14
ENDBRANCH   1   9
BRANCH   3  16
ATOM     16  C   UNL     1       4.688   2.751  19.621  0.00  0.00    +0.000 C 
BRANCH  16  17
ATOM     17  C   UNL     1       3.681   2.057  18.709  0.00  0.00    +0.000 C 
BRANCH  17  18
ATOM     18  C   UNL     1       2.254   2.466  19.072  0.00  0.00    +0.000 C 
BRANCH  18  19
ATOM     19  N   UNL     1       2.121   3.902  19.238  0.00  0.00    +0.000 N 
ATOM     20  C   UNL     1       2.172   4.794  18.201  0.00  0.00    +0.000 C 
ATOM     21  O   UNL     1       2.331   4.588  17.012  0.00  0.00    +0.000 OA
ATOM     22  C   UNL     1       1.984   6.121  18.785  0.00  0.00    +0.000 A 
ATOM     23  C   UNL     1       1.935   7.366  18.188  0.00  0.00    +0.000 A 
ATOM     24  C   UNL     1       1.736   8.469  19.025  0.00  0.00    +0.000 A 
ATOM     25  C   UNL     1       1.594   8.303  20.418  0.00  0.00    +0.000 A 
ATOM     26  C   UNL     1       1.650   7.033  20.999  0.00  0.00    +0.000 A 
ATOM     27  C   UNL     1       1.848   5.958  20.152  0.00  0.00    +0.000 A 
ATOM     28  C   UNL     1       1.950   4.532  20.436  0.00  0.00    +0.000 C 
ATOM     29  O   UNL     1       1.892   4.048  21.559  0.00  0.00    +0.000 OA
ENDBRANCH  18  19
ENDBRANCH  17  18
ENDBRANCH  16  17
ENDBRANCH   3  16
TORSDOF 6
ENDMDL
MODEL 3
REMARK VINA RESULT:      -7.6      0.239      1.699
REMARK  Name = 
REMARK  10 active torsions:
REMARK  status: ('A' for Active; 'I' for Inactive)
REMARK    1  A    between atoms: C_1  and  C_2
REMARK    2  A    between atoms: C_2  and  C_3
REMARK    3  A    between atoms: C_5  and  C_6
REMARK    4  A    between atoms: N_8  and  C_9
REMARK    5  A    between atoms: C_9  and  C_10
REMARK    6  A    between atoms: C_10  and  C_11
REMARK    7  A    between atoms: C_11  and  N_12
REMARK    8  A    between atoms: C_23  and  C_24
REMARK    9  A    between atoms: C_23  and  C_25
REMARK   10  A    between atoms: N_26  and  O_27
REMARK                            x       y       z     vdW  Elec       q    Type
REMARK                         _______ _______ _______ _____ _____    ______ ____
ROOT
ATOM      1  C   UNL     1       4.002   4.770  17.550  0.00  0.00    +0.000 C 
ATOM      2  O   UNL     1       4.214   3.601  17.876  0.00  0.00    +0.000 OA
ATOM      3  N   UNL     1       3.011   5.501  18.165  0.00  0.00    +0.000 N 
ATOM      4  H   UNL     1       2.805   6.442  17.864  0.00  0.00    +0.000 HD
ENDROOT
BRANCH   1   9
ATOM      5  C   UNL     1       7.913   7.343  17.847  0.00  0.00    +0.000 C 
ATOM      6  C   UNL     1       6.890   6.207  17.709  0.00  0.00    +0.000 C 
ATOM      7  C   UNL     1       6.761   5.532  19.090  0.00  0.00    +0.000 C 
ATOM      8  C   UNL     1       5.544   6.745  17.201  0.00  0.00    +0.000 C 
ATOM      9  C   UNL     1       4.873   5.527  16.543  0.00  0.00    +0.000 C 
ATOM     10  C   UNL     1       6.079   4.776  15.921  0.00  0.00    +0.000 C 
ATOM     11  C   UNL     1       6.245   5.247  14.451  0.00  0.00    +0.000 C 
ATOM     12  C   UNL     1       5.988   3.242  15.867  0.00  0.00    +0.000 C 
ATOM     13  N   UNL     1       7.294   5.292  16.612  0.00  0.00    +0.000 NA
BRANCH  13  14
ATOM     14  O   UNL     1       8.055   4.203  17.192  0.00  0.00    +0.000 OA
ATOM     15  H   UNL     1       8.153   3.598  16.433  0.00  0.00    +0.000 HD
ENDBRANCH  13  14
ENDBRANCH   1   9
BRANCH   3  16
ATOM     16  C   UNL     1       2.168   4.887  19.171  0.00  0.00    +0.000 C 
BRANCH  16  17
ATOM     17  C   UNL     1       1.634   5.901  20.179  0.00  0.00    +0.000 C 
BRANCH  17  18
ATOM     18  C   UNL     1       2.415   7.212  20.089  0.00  0.00    +0.000 C 
BRANCH  18  19
ATOM     19  N   UNL     1       1.540   8.366  19.999  0.00  0.00    +0.000 N 
ATOM     20  C   UNL     1       0.911   8.929  21.077  0.00  0.00    +0.000 C 
ATOM     21  O   UNL     1       0.948   8.602  22.249  0.00  0.00    +0.000 OA
ATOM     22  C   UNL     1       0.146  10.064  20.565  0.00  0.00    +0.000 A 
ATOM     23  C   UNL     1      -0.653  10.978  21.225  0.00  0.00    +0.000 A 
ATOM     24  C   UNL     1      -1.262  11.971  20.450  0.00  0.00    +0.000 A 
ATOM     25  C   UNL     1      -1.061  12.024  19.054  0.00  0.00    +0.000 A 
ATOM     26  C   UNL     1      -0.250  11.086  18.410  0.00  0.00    +0.000 A 
ATOM     27  C   UNL     1       0.340  10.114  19.196  0.00  0.00    +0.000 A 
ATOM     28  C   UNL     1       1.226   9.013  18.839  0.00  0.00    +0.000 C 
ATOM     29  O   UNL     1       1.583   8.759  17.696  0.00  0.00    +0.000 OA
ENDBRANCH  18  19
ENDBRANCH  17  18
ENDBRANCH  16  17
ENDBRANCH   3  16
TORSDOF 6
ENDMDL
MODEL 4
REMARK VINA RESULT:      -7.5      5.023      8.101
REMARK  Name = 
REMARK  10 active torsions:
REMARK  status: ('A' for Active; 'I' for Inactive)
REMARK    1  A    between atoms: C_1  and  C_2
REMARK    2  A    between atoms: C_2  and  C_3
REMARK    3  A    between atoms: C_5  and  C_6
REMARK    4  A    between atoms: N_8  and  C_9
REMARK    5  A    between atoms: C_9  and  C_10
REMARK    6  A    between atoms: C_10  and  C_11
REMARK    7  A    between atoms: C_11  and  N_12
REMARK    8  A    between atoms: C_23  and  C_24
REMARK    9  A    between atoms: C_23  and  C_25
REMARK   10  A    between atoms: N_26  and  O_27
REMARK                            x       y       z     vdW  Elec       q    Type
REMARK                         _______ _______ _______ _____ _____    ______ ____
ROOT
ATOM      1  C   UNL     1       9.141  11.130  17.945  0.00  0.00    +0.000 C 
ATOM      2  O   UNL     1       8.190  11.773  17.499  0.00  0.00    +0.000 OA
ATOM      3  N   UNL     1       9.035   9.773  18.149  0.00  0.00    +0.000 N 
ATOM      4  H   UNL     1       9.798   9.255  18.560  0.00  0.00    +0.000 HD
ENDROOT
BRANCH   1   9
ATOM      5  C   UNL     1      10.904  15.475  17.774  0.00  0.00    +0.000 C 
ATOM      6  C   UNL     1      10.245  14.155  18.200  0.00  0.00    +0.000 C 
ATOM      7  C   UNL     1       8.718  14.350  18.106  0.00  0.00    +0.000 C 
ATOM      8  C   UNL     1      10.735  12.993  17.322  0.00  0.00    +0.000 C 
ATOM      9  C   UNL     1      10.522  11.744  18.193  0.00  0.00    +0.000 C 
ATOM     10  C   UNL     1      10.833  12.271  19.618  0.00  0.00    +0.000 C 
ATOM     11  C   UNL     1      12.332  12.004  19.924  0.00  0.00    +0.000 C 
ATOM     12  C   UNL     1      10.045  11.643  20.779  0.00  0.00    +0.000 C 
ATOM     13  N   UNL     1      10.733  13.757  19.544  0.00  0.00    +0.000 NA
BRANCH  13  14
ATOM     14  O   UNL     1       9.794  14.255  20.530  0.00  0.00    +0.000 OA
ATOM     15  H   UNL     1       8.989  13.749  20.317  0.00  0.00    +0.000 HD
ENDBRANCH  13  14
ENDBRANCH   1   9
BRANCH   3  16
ATOM     16  C   UNL     1       7.783   9.091  17.890  0.00  0.00    +0.000 C 
BRANCH  16  17
ATOM     17  C   UNL     1       7.892   7.582  18.089  0.00  0.00    +0.000 C 
BRANCH  17  18
ATOM     18  C   UNL     1       7.084   6.839  17.025  0.00  0.00    +0.000 C 
BRANCH  18  19
ATOM     19  N   UNL     1       6.021   6.039  17.605  0.00  0.00    +0.000 N 
ATOM     20  C   UNL     1       4.695   6.372  17.534  0.00  0.00    +0.000 C 
ATOM     21  O   UNL     1       4.169   7.338  17.014  0.00  0.00    +0.000 OA
ATOM     22  C   UNL     1       3.963   5.309  18.220  0.00  0.00    +0.000 A 
ATOM     23  C   UNL     1       2.607   5.143  18.428  0.00  0.00    +0.000 A 
ATOM     24  C   UNL     1       2.203   4.003  19.129  0.00  0.00    +0.000 A 
ATOM     25  C   UNL     1       3.151   3.071  19.602  0.00  0.00    +0.000 A 
ATOM     26  C   UNL     1       4.517   3.263  19.382  0.00  0.00    +0.000 A 
ATOM     27  C   UNL     1       4.892   4.397  18.687  0.00  0.00    +0.000 A 
ATOM     28  C   UNL     1       6.213   4.879  18.298  0.00  0.00    +0.000 C 
ATOM     29  O   UNL     1       7.262   4.313  18.576  0.00  0.00    +0.000 OA
ENDBRANCH  18  19
ENDBRANCH  17  18
ENDBRANCH  16  17
ENDBRANCH   3  16
TORSDOF 6
ENDMDL
MODEL 5
REMARK VINA RESULT:      -7.5      2.229      3.612
REMARK  Name = 
REMARK  10 active torsions:
REMARK  status: ('A' for Active; 'I' for Inactive)
REMARK    1  A    between atoms: C_1  and  C_2
REMARK    2  A    between atoms: C_2  and  C_3
REMARK    3  A    between atoms: C_5  and  C_6
REMARK    4  A    between atoms: N_8  and  C_9
REMARK    5  A    between atoms: C_9  and  C_10
REMARK    6  A    between atoms: C_10  and  C_11
REMARK    7  A    between atoms: C_11  and  N_12
REMARK    8  A    between atoms: C_23  and  C_24
REMARK    9  A    between atoms: C_23  and  C_25
REMARK   10  A    between atoms: N_26  and  O_27
REMARK                            x       y       z     vdW  Elec       q    Type
REMARK                         _______ _______ _______ _____ _____    ______ ____
ROOT
ATOM      1  C   UNL     1       2.266   5.807  19.854  0.00  0.00    +0.000 C 
ATOM      2  O   UNL     1       2.378   5.322  20.980  0.00  0.00    +0.000 OA
ATOM      3  N   UNL     1       2.097   7.164  19.689  0.00  0.00    +0.000 N 
ATOM      4  H   UNL     1       1.957   7.555  18.769  0.00  0.00    +0.000 HD
ENDROOT
BRANCH   1   9
ATOM      5  C   UNL     1       5.814   4.877  16.929  0.00  0.00    +0.000 C 
ATOM      6  C   UNL     1       4.790   4.864  18.073  0.00  0.00    +0.000 C 
ATOM      7  C   UNL     1       5.456   5.528  19.295  0.00  0.00    +0.000 C 
ATOM      8  C   UNL     1       3.499   5.585  17.656  0.00  0.00    +0.000 C 
ATOM      9  C   UNL     1       2.418   4.985  18.571  0.00  0.00    +0.000 C 
ATOM     10  C   UNL     1       2.876   3.510  18.708  0.00  0.00    +0.000 C 
ATOM     11  C   UNL     1       2.158   2.670  17.616  0.00  0.00    +0.000 C 
ATOM     12  C   UNL     1       2.578   2.811  20.044  0.00  0.00    +0.000 C 
ATOM     13  N   UNL     1       4.312   3.480  18.309  0.00  0.00    +0.000 NA
BRANCH  13  14
ATOM     14  O   UNL     1       5.122   2.896  19.360  0.00  0.00    +0.000 OA
ATOM     15  H   UNL     1       5.088   3.586  20.049  0.00  0.00    +0.000 HD
ENDBRANCH  13  14
ENDBRANCH   1   9
BRANCH   3  16
ATOM     16  C   UNL     1       1.997   8.033  20.844  0.00  0.00    +0.000 C 
BRANCH  16  17
ATOM     17  C   UNL     1       0.646   8.739  20.923  0.00  0.00    +0.000 C 
BRANCH  17  18
ATOM     18  C   UNL     1       0.721  10.119  20.270  0.00  0.00    +0.000 C 
BRANCH  18  19
ATOM     19  N   UNL     1      -0.371  10.345  19.341  0.00  0.00    +0.000 N 
ATOM     20  C   UNL     1      -0.418   9.817  18.079  0.00  0.00    +0.000 C 
ATOM     21  O   UNL     1       0.389   9.103  17.511  0.00  0.00    +0.000 OA
ATOM     22  C   UNL     1      -1.675  10.268  17.486  0.00  0.00    +0.000 A 
ATOM     23  C   UNL     1      -2.222  10.015  16.243  0.00  0.00    +0.000 A 
ATOM     24  C   UNL     1      -3.464  10.595  15.961  0.00  0.00    +0.000 A 
ATOM     25  C   UNL     1      -4.118  11.403  16.915  0.00  0.00    +0.000 A 
ATOM     26  C   UNL     1      -3.541  11.646  18.165  0.00  0.00    +0.000 A 
ATOM     27  C   UNL     1      -2.314  11.063  18.420  0.00  0.00    +0.000 A 
ATOM     28  C   UNL     1      -1.465  11.118  19.604  0.00  0.00    +0.000 C 
ATOM     29  O   UNL     1      -1.730  11.759  20.612  0.00  0.00    +0.000 OA
ENDBRANCH  18  19
ENDBRANCH  17  18
ENDBRANCH  16  17
ENDBRANCH   3  16
TORSDOF 6
ENDMDL
MODEL 6
REMARK VINA RESULT:      -7.5      4.969      8.056
REMARK  Name = 
REMARK  10 active torsions:
REMARK  status: ('A' for Active; 'I' for Inactive)
REMARK    1  A    between atoms: C_1  and  C_2
REMARK    2  A    between atoms: C_2  and  C_3
REMARK    3  A    between atoms: C_5  and  C_6
REMARK    4  A    between atoms: N_8  and  C_9
REMARK    5  A    between atoms: C_9  and  C_10
REMARK    6  A    between atoms: C_10  and  C_11
REMARK    7  A    between atoms: C_11  and  N_12
REMARK    8  A    between atoms: C_23  and  C_24
REMARK    9  A    between atoms: C_23  and  C_25
REMARK   10  A    between atoms: N_26  and  O_27
REMARK                            x       y       z     vdW  Elec       q    Type
REMARK                         _______ _______ _______ _____ _____    ______ ____
ROOT
ATOM      1  C   UNL     1       9.141  11.018  18.003  0.00  0.00    +0.000 C 
ATOM      2  O   UNL     1       8.172  11.688  17.644  0.00  0.00    +0.000 OA
ATOM      3  N   UNL     1       9.044   9.649  18.113  0.00  0.00    +0.000 N 
ATOM      4  H   UNL     1       9.823   9.105  18.453  0.00  0.00    +0.000 HD
ENDROOT
BRANCH   1   9
ATOM      5  C   UNL     1      10.987  15.317  17.653  0.00  0.00    +0.000 C 
ATOM      6  C   UNL     1      10.299  14.030  18.132  0.00  0.00    +0.000 C 
ATOM      7  C   UNL     1       8.778  14.248  18.012  0.00  0.00    +0.000 C 
ATOM      8  C   UNL     1      10.776  12.820  17.313  0.00  0.00    +0.000 C 
ATOM      9  C   UNL     1      10.531  11.617  18.237  0.00  0.00    +0.000 C 
ATOM     10  C   UNL     1      10.838  12.203  19.640  0.00  0.00    +0.000 C 
ATOM     11  C   UNL     1      12.329  11.922  19.974  0.00  0.00    +0.000 C 
ATOM     12  C   UNL     1      10.027  11.643  20.820  0.00  0.00    +0.000 C 
ATOM     13  N   UNL     1      10.767  13.685  19.497  0.00  0.00    +0.000 NA
BRANCH  13  14
ATOM     14  O   UNL     1       9.828  14.245  20.450  0.00  0.00    +0.000 OA
ATOM     15  H   UNL     1      10.166  15.153  20.557  0.00  0.00    +0.000 HD
ENDBRANCH  13  14
ENDBRANCH   1   9
BRANCH   3  16
ATOM     16  C   UNL     1       7.782   8.983  17.858  0.00  0.00    +0.000 C 
BRANCH  16  17
ATOM     17  C   UNL     1       7.867   7.475  18.079  0.00  0.00    +0.000 C 
BRANCH  17  18
ATOM     18  C   UNL     1       7.082   6.728  17.001  0.00  0.00    +0.000 C 
BRANCH  18  19
ATOM     19  N   UNL     1       5.945   6.012  17.548  0.00  0.00    +0.000 N 
ATOM     20  C   UNL     1       6.053   4.858  18.277  0.00  0.00    +0.000 C 
ATOM     21  O   UNL     1       7.050   4.235  18.593  0.00  0.00    +0.000 OA
ATOM     22  C   UNL     1       4.693   4.473  18.648  0.00  0.00    +0.000 A 
ATOM     23  C   UNL     1       4.235   3.402  19.392  0.00  0.00    +0.000 A 
ATOM     24  C   UNL     1       2.853   3.302  19.583  0.00  0.00    +0.000 A 
ATOM     25  C   UNL     1       1.975   4.258  19.031  0.00  0.00    +0.000 A 
ATOM     26  C   UNL     1       2.463   5.331  18.280  0.00  0.00    +0.000 A 
ATOM     27  C   UNL     1       3.832   5.409  18.105  0.00  0.00    +0.000 A 
ATOM     28  C   UNL     1       4.643   6.387  17.389  0.00  0.00    +0.000 C 
ATOM     29  O   UNL     1       4.186   7.342  16.773  0.00  0.00    +0.000 OA
ENDBRANCH  18  19
ENDBRANCH  17  18
ENDBRANCH  16  17
ENDBRANCH   3  16
TORSDOF 6
ENDMDL
MODEL 7
REMARK VINA RESULT:      -7.5      4.994      7.953
REMARK  Name = 
REMARK  10 active torsions:
REMARK  status: ('A' for Active; 'I' for Inactive)
REMARK    1  A    between atoms: C_1  and  C_2
REMARK    2  A    between atoms: C_2  and  C_3
REMARK    3  A    between atoms: C_5  and  C_6
REMARK    4  A    between atoms: N_8  and  C_9
REMARK    5  A    between atoms: C_9  and  C_10
REMARK    6  A    between atoms: C_10  and  C_11
REMARK    7  A    between atoms: C_11  and  N_12
REMARK    8  A    between atoms: C_23  and  C_24
REMARK    9  A    between atoms: C_23  and  C_25
REMARK   10  A    between atoms: N_26  and  O_27
REMARK                            x       y       z     vdW  Elec       q    Type
REMARK                         _______ _______ _______ _____ _____    ______ ____
ROOT
ATOM      1  C   UNL     1       9.390  10.712  18.515  0.00  0.00    +0.000 C 
ATOM      2  O   UNL     1       9.624  10.478  19.701  0.00  0.00    +0.000 OA
ATOM      3  N   UNL     1       8.693   9.808  17.746  0.00  0.00    +0.000 N 
ATOM      4  H   UNL     1       8.544   9.978  16.762  0.00  0.00    +0.000 HD
ENDROOT
BRANCH   1   9
ATOM      5  C   UNL     1       8.604  15.228  19.515  0.00  0.00    +0.000 C 
ATOM      6  C   UNL     1       9.181  13.809  19.408  0.00  0.00    +0.000 C 
ATOM      7  C   UNL     1       8.780  13.051  20.689  0.00  0.00    +0.000 C 
ATOM      8  C   UNL     1       8.673  13.109  18.138  0.00  0.00    +0.000 C 
ATOM      9  C   UNL     1       9.740  12.043  17.841  0.00  0.00    +0.000 C 
ATOM     10  C   UNL     1      11.050  12.750  18.274  0.00  0.00    +0.000 C 
ATOM     11  C   UNL     1      11.665  13.448  17.031  0.00  0.00    +0.000 C 
ATOM     12  C   UNL     1      12.162  11.859  18.853  0.00  0.00    +0.000 C 
ATOM     13  N   UNL     1      10.643  13.875  19.163  0.00  0.00    +0.000 NA
BRANCH  13  14
ATOM     14  O   UNL     1      11.319  13.785  20.443  0.00  0.00    +0.000 OA
ATOM     15  H   UNL     1      11.314  14.713  20.740  0.00  0.00    +0.000 HD
ENDBRANCH  13  14
ENDBRANCH   1   9
BRANCH   3  16
ATOM     16  C   UNL     1       8.271   8.541  18.311  0.00  0.00    +0.000 C 
BRANCH  16  17
ATOM     17  C   UNL     1       7.263   7.817  17.423  0.00  0.00    +0.000 C 
BRANCH  17  18
ATOM     18  C   UNL     1       7.463   6.304  17.504  0.00  0.00    +0.000 C 
BRANCH  18  19
ATOM     19  N   UNL     1       6.231   5.605  17.819  0.00  0.00    +0.000 N 
ATOM     20  C   UNL     1       5.211   5.423  16.925  0.00  0.00    +0.000 C 
ATOM     21  O   UNL     1       5.126   5.786  15.766  0.00  0.00    +0.000 OA
ATOM     22  C   UNL     1       4.174   4.667  17.625  0.00  0.00    +0.000 A 
ATOM     23  C   UNL     1       2.948   4.207  17.186  0.00  0.00    +0.000 A 
ATOM     24  C   UNL     1       2.165   3.498  18.104  0.00  0.00    +0.000 A 
ATOM     25  C   UNL     1       2.621   3.272  19.420  0.00  0.00    +0.000 A 
ATOM     26  C   UNL     1       3.865   3.751  19.841  0.00  0.00    +0.000 A 
ATOM     27  C   UNL     1       4.620   4.448  18.916  0.00  0.00    +0.000 A 
ATOM     28  C   UNL     1       5.936   5.065  19.036  0.00  0.00    +0.000 C 
ATOM     29  O   UNL     1       6.602   5.071  20.063  0.00  0.00    +0.000 OA
ENDBRANCH  18  19
ENDBRANCH  17  18
ENDBRANCH  16  17
ENDBRANCH   3  16
TORSDOF 6
ENDMDL
MODEL 8
REMARK VINA RESULT:      -7.4      2.216      4.054
REMARK  Name = 
REMARK  10 active torsions:
REMARK  status: ('A' for Active; 'I' for Inactive)
REMARK    1  A    between atoms: C_1  and  C_2
REMARK    2  A    between atoms: C_2  and  C_3
REMARK    3  A    between atoms: C_5  and  C_6
REMARK    4  A    between atoms: N_8  and  C_9
REMARK    5  A    between atoms: C_9  and  C_10
REMARK    6  A    between atoms: C_10  and  C_11
REMARK    7  A    between atoms: C_11  and  N_12
REMARK    8  A    between atoms: C_23  and  C_24
REMARK    9  A    between atoms: C_23  and  C_25
REMARK   10  A    between atoms: N_26  and  O_27
REMARK                            x       y       z     vdW  Elec       q    Type
REMARK                         _______ _______ _______ _____ _____    ______ ____
ROOT
ATOM      1  C   UNL     1       2.058   5.614  20.049  0.00  0.00    +0.000 C 
ATOM      2  O   UNL     1       2.106   5.248  21.224  0.00  0.00    +0.000 OA
ATOM      3  N   UNL     1       2.070   6.953  19.730  0.00  0.00    +0.000 N 
ATOM      4  H   UNL     1       1.981   7.253  18.770  0.00  0.00    +0.000 HD
ENDROOT
BRANCH   1   9
ATOM      5  C   UNL     1       5.268   4.463  16.826  0.00  0.00    +0.000 C 
ATOM      6  C   UNL     1       4.395   4.556  18.086  0.00  0.00    +0.000 C 
ATOM      7  C   UNL     1       5.166   5.400  19.121  0.00  0.00    +0.000 C 
ATOM      8  C   UNL     1       3.022   5.160  17.754  0.00  0.00    +0.000 C 
ATOM      9  C   UNL     1       2.099   4.639  18.868  0.00  0.00    +0.000 C 
ATOM     10  C   UNL     1       2.656   3.215  19.126  0.00  0.00    +0.000 C 
ATOM     11  C   UNL     1       1.860   2.210  18.248  0.00  0.00    +0.000 C 
ATOM     12  C   UNL     1       2.566   2.684  20.565  0.00  0.00    +0.000 C 
ATOM     13  N   UNL     1       4.031   3.194  18.551  0.00  0.00    +0.000 NA
BRANCH  13  14
ATOM     14  O   UNL     1       4.997   2.787  19.553  0.00  0.00    +0.000 OA
ATOM     15  H   UNL     1       4.424   2.415  20.248  0.00  0.00    +0.000 HD
ENDBRANCH  13  14
ENDBRANCH   1   9
BRANCH   3  16
ATOM     16  C   UNL     1       2.086   7.953  20.779  0.00  0.00    +0.000 C 
BRANCH  16  17
ATOM     17  C   UNL     1       0.745   8.669  20.919  0.00  0.00    +0.000 C 
BRANCH  17  18
ATOM     18  C   UNL     1       0.811  10.062  20.296  0.00  0.00    +0.000 C 
BRANCH  18  19
ATOM     19  N   UNL     1      -0.308  10.318  19.407  0.00  0.00    +0.000 N 
ATOM     20  C   UNL     1      -1.408  11.052  19.761  0.00  0.00    +0.000 C 
ATOM     21  O   UNL     1      -1.663  11.599  20.819  0.00  0.00    +0.000 OA
ATOM     22  C   UNL     1      -2.282  11.083  18.591  0.00  0.00    +0.000 A 
ATOM     23  C   UNL     1      -3.506  11.694  18.400  0.00  0.00    +0.000 A 
ATOM     24  C   UNL     1      -4.107  11.545  17.146  0.00  0.00    +0.000 A 
ATOM     25  C   UNL     1      -3.479  10.797  16.128  0.00  0.00    +0.000 A 
ATOM     26  C   UNL     1      -2.241  10.186  16.346  0.00  0.00    +0.000 A 
ATOM     27  C   UNL     1      -1.667  10.348  17.593  0.00  0.00    +0.000 A 
ATOM     28  C   UNL     1      -0.406   9.849  18.129  0.00  0.00    +0.000 C 
ATOM     29  O   UNL     1       0.375   9.141  17.507  0.00  0.00    +0.000 OA
ENDBRANCH  18  19
ENDBRANCH  17  18
ENDBRANCH  16  17
ENDBRANCH   3  16
TORSDOF 6
ENDMDL
MODEL 9
REMARK VINA RESULT:      -7.4      2.137      3.481
REMARK  Name = 
REMARK  10 active torsions:
REMARK  status: ('A' for Active; 'I' for Inactive)
REMARK    1  A    between atoms: C_1  and  C_2
REMARK    2  A    between atoms: C_2  and  C_3
REMARK    3  A    between atoms: C_5  and  C_6
REMARK    4  A    between atoms: N_8  and  C_9
REMARK    5  A    between atoms: C_9  and  C_10
REMARK    6  A    between atoms: C_10  and  C_11
REMARK    7  A    between atoms: C_11  and  N_12
REMARK    8  A    between atoms: C_23  and  C_24
REMARK    9  A    between atoms: C_23  and  C_25
REMARK   10  A    between atoms: N_26  and  O_27
REMARK                            x       y       z     vdW  Elec       q    Type
REMARK                         _______ _______ _______ _____ _____    ______ ____
ROOT
ATOM      1  C   UNL     1       2.466   6.016  18.722  0.00  0.00    +0.000 C 
ATOM      2  O   UNL     1       2.332   5.856  19.936  0.00  0.00    +0.000 OA
ATOM      3  N   UNL     1       2.368   7.271  18.164  0.00  0.00    +0.000 N 
ATOM      4  H   UNL     1       2.430   7.395  17.164  0.00  0.00    +0.000 HD
ENDROOT
BRANCH   1   9
ATOM      5  C   UNL     1       6.531   4.336  17.089  0.00  0.00    +0.000 C 
ATOM      6  C   UNL     1       5.269   4.629  17.913  0.00  0.00    +0.000 C 
ATOM      7  C   UNL     1       5.673   5.591  19.049  0.00  0.00    +0.000 C 
ATOM      8  C   UNL     1       4.163   5.217  17.023  0.00  0.00    +0.000 C 
ATOM      9  C   UNL     1       2.860   4.884  17.769  0.00  0.00    +0.000 C 
ATOM     10  C   UNL     1       3.173   3.496  18.386  0.00  0.00    +0.000 C 
ATOM     11  C   UNL     1       2.677   2.399  17.404  0.00  0.00    +0.000 C 
ATOM     12  C   UNL     1       2.523   3.176  19.742  0.00  0.00    +0.000 C 
ATOM     13  N   UNL     1       4.657   3.357  18.371  0.00  0.00    +0.000 NA
BRANCH  13  14
ATOM     14  O   UNL     1       5.156   3.070  19.701  0.00  0.00    +0.000 OA
ATOM     15  H   UNL     1       4.426   2.549  20.084  0.00  0.00    +0.000 HD
ENDBRANCH  13  14
ENDBRANCH   1   9
BRANCH   3  16
ATOM     16  C   UNL     1       2.053   8.416  18.995  0.00  0.00    +0.000 C 
BRANCH  16  17
ATOM     17  C   UNL     1       1.119   9.401  18.295  0.00  0.00    +0.000 C 
BRANCH  17  18
ATOM     18  C   UNL     1       1.331  10.816  18.830  0.00  0.00    +0.000 C 
BRANCH  18  19
ATOM     19  N   UNL     1       0.297  11.207  19.770  0.00  0.00    +0.000 N 
ATOM     20  C   UNL     1      -0.835  11.890  19.414  0.00  0.00    +0.000 C 
ATOM     21  O   UNL     1      -1.184  12.287  18.317  0.00  0.00    +0.000 OA
ATOM     22  C   UNL     1      -1.614  12.071  20.638  0.00  0.00    +0.000 A 
ATOM     23  C   UNL     1      -2.838  12.678  20.841  0.00  0.00    +0.000 A 
ATOM     24  C   UNL     1      -3.335  12.692  22.148  0.00  0.00    +0.000 A 
ATOM     25  C   UNL     1      -2.606  12.107  23.206  0.00  0.00    +0.000 A 
ATOM     26  C   UNL     1      -1.368  11.501  22.974  0.00  0.00    +0.000 A 
ATOM     27  C   UNL     1      -0.897  11.501  21.675  0.00  0.00    +0.000 A 
ATOM     28  C   UNL     1       0.334  10.960  21.111  0.00  0.00    +0.000 C 
ATOM     29  O   UNL     1       1.205  10.404  21.768  0.00  0.00    +0.000 OA
ENDBRANCH  18  19
ENDBRANCH  17  18
ENDBRANCH  16  17
ENDBRANCH   3  16
TORSDOF 6
ENDMDL
