MODEL 1
REMARK VINA RESULT:      -8.8      0.000      0.000
REMARK  Name = 
REMARK  8 active torsions:
REMARK  status: ('A' for Active; 'I' for Inactive)
REMARK    1  A    between atoms: O_1  and  C_2
REMARK    2  A    between atoms: C_2  and  C_3
REMARK    3  A    between atoms: N_12  and  C_13
REMARK    4  A    between atoms: C_13  and  C_14
REMARK    5  A    between atoms: C_14  and  O_15
REMARK    6  A    between atoms: O_15  and  C_16
REMARK    7  A    between atoms: C_16  and  C_17
REMARK    8  A    between atoms: C_16  and  C_23
REMARK                            x       y       z     vdW  Elec       q    Type
REMARK                         _______ _______ _______ _____ _____    ______ ____
ROOT
ATOM      1  C   UNL     1       2.101   9.418  17.970  0.00  0.00    +0.000 C 
ENDROOT
BRANCH   1   5
ATOM      2  C   UNL     1      -0.294  11.426  20.985  0.00  0.00    +0.000 C 
ATOM      3  C   UNL     1      -0.241   9.893  20.862  0.00  0.00    +0.000 C 
ATOM      4  C   UNL     1       0.993   9.409  20.117  0.00  0.00    +0.000 C 
ATOM      5  N   UNL     1       1.028  10.018  18.780  0.00  0.00    +0.000 NA
ATOM      6  C   UNL     1       1.201  11.471  18.927  0.00  0.00    +0.000 C 
ATOM      7  C   UNL     1      -0.024  12.071  19.616  0.00  0.00    +0.000 C 
BRANCH   2   8
ATOM      8  C   UNL     1      -1.614  11.950  21.563  0.00  0.00    +0.000 A 
ATOM      9  C   UNL     1      -2.592  12.485  20.698  0.00  0.00    +0.000 A 
ATOM     10  C   UNL     1      -3.837  12.903  21.188  0.00  0.00    +0.000 A 
ATOM     11  C   UNL     1      -4.112  12.811  22.542  0.00  0.00    +0.000 A 
ATOM     12 CL   UNL     1      -5.641  13.312  23.150  0.00  0.00    +0.000 Cl
ATOM     13  C   UNL     1      -3.158  12.309  23.422  0.00  0.00    +0.000 A 
ATOM     14  C   UNL     1      -1.918  11.887  22.932  0.00  0.00    +0.000 A 
ENDBRANCH   2   8
BRANCH   2  15
ATOM     15  O   UNL     1       0.759  11.825  21.875  0.00  0.00    +0.000 OA
ATOM     16  H   UNL     1       1.307  12.471  21.399  0.00  0.00    +0.000 HD
ENDBRANCH   2  15
ENDBRANCH   1   5
BRANCH   1  17
ATOM     17  C   UNL     1       1.887   7.912  17.731  0.00  0.00    +0.000 C 
BRANCH  17  18
ATOM     18  O   UNL     1       3.070   7.204  18.089  0.00  0.00    +0.000 OA
BRANCH  18  19
ATOM     19  C   UNL     1       3.065   5.816  17.690  0.00  0.00    +0.000 C 
BRANCH  19  20
ATOM     20  C   UNL     1       2.433   4.993  18.818  0.00  0.00    +0.000 A 
ATOM     21  C   UNL     1       2.737   5.241  20.171  0.00  0.00    +0.000 A 
ATOM     22  C   UNL     1       2.216   4.446  21.184  0.00  0.00    +0.000 A 
ATOM     23  C   UNL     1       1.369   3.385  20.867  0.00  0.00    +0.000 A 
ATOM     24  F   UNL     1       0.896   2.597  21.832  0.00  0.00    +0.000 F 
ATOM     25  C   UNL     1       1.019   3.138  19.543  0.00  0.00    +0.000 A 
ATOM     26  C   UNL     1       1.537   3.941  18.527  0.00  0.00    +0.000 A 
ENDBRANCH  19  20
BRANCH  19  27
ATOM     27  C   UNL     1       4.484   5.356  17.351  0.00  0.00    +0.000 A 
ATOM     28  C   UNL     1       5.592   6.054  17.852  0.00  0.00    +0.000 A 
ATOM     29  C   UNL     1       6.885   5.741  17.426  0.00  0.00    +0.000 A 
ATOM     30  C   UNL     1       7.089   4.681  16.546  0.00  0.00    +0.000 A 
ATOM     31  C   UNL     1       6.009   3.938  16.085  0.00  0.00    +0.000 A 
ATOM     32  C   UNL     1       4.703   4.287  16.461  0.00  0.00    +0.000 A 
ENDBRANCH  19  27
ENDBRANCH  18  19
ENDBRANCH  17  18
ENDBRANCH   1  17
TORSDOF 8
ENDMDL
MODEL 2
REMARK VINA RESULT:      -8.7      0.227      1.226
REMARK  Name = 
REMARK  8 active torsions:
REMARK  status: ('A' for Active; 'I' for Inactive)
REMARK    1  A    between atoms: O_1  and  C_2
REMARK    2  A    between atoms: C_2  and  C_3
REMARK    3  A    between atoms: N_12  and  C_13
REMARK    4  A    between atoms: C_13  and  C_14
REMARK    5  A    between atoms: C_14  and  O_15
REMARK    6  A    between atoms: O_15  and  C_16
REMARK    7  A    between atoms: C_16  and  C_17
REMARK    8  A    between atoms: C_16  and  C_23
REMARK                            x       y       z     vdW  Elec       q    Type
REMARK                         _______ _______ _______ _____ _____    ______ ____
ROOT
ATOM      1  C   UNL     1       2.142   9.370  17.910  0.00  0.00    +0.000 C 
ENDROOT
BRANCH   1   5
ATOM      2  C   UNL     1      -0.224  11.391  20.939  0.00  0.00    +0.000 C 
ATOM      3  C   UNL     1      -0.163   9.857  20.829  0.00  0.00    +0.000 C 
ATOM      4  C   UNL     1       1.063   9.374  20.072  0.00  0.00    +0.000 C 
ATOM      5  N   UNL     1       1.076   9.971  18.729  0.00  0.00    +0.000 NA
ATOM      6  C   UNL     1       1.243  11.426  18.861  0.00  0.00    +0.000 C 
ATOM      7  C   UNL     1       0.024  12.025  19.560  0.00  0.00    +0.000 C 
BRANCH   2   8
ATOM      8  C   UNL     1      -1.539  11.913  21.529  0.00  0.00    +0.000 A 
ATOM      9  C   UNL     1      -2.518  12.465  20.676  0.00  0.00    +0.000 A 
ATOM     10  C   UNL     1      -3.759  12.882  21.178  0.00  0.00    +0.000 A 
ATOM     11  C   UNL     1      -4.029  12.771  22.531  0.00  0.00    +0.000 A 
ATOM     12 CL   UNL     1      -5.553  13.271  23.153  0.00  0.00    +0.000 Cl
ATOM     13  C   UNL     1      -3.074  12.251  23.400  0.00  0.00    +0.000 A 
ATOM     14  C   UNL     1      -1.838  11.830  22.898  0.00  0.00    +0.000 A 
ENDBRANCH   2   8
BRANCH   2  15
ATOM     15  O   UNL     1       0.838  11.804  21.810  0.00  0.00    +0.000 OA
ATOM     16  H   UNL     1       1.069  11.040  22.365  0.00  0.00    +0.000 HD
ENDBRANCH   2  15
ENDBRANCH   1   5
BRANCH   1  17
ATOM     17  C   UNL     1       1.946   7.856  17.707  0.00  0.00    +0.000 C 
BRANCH  17  18
ATOM     18  O   UNL     1       3.104   7.164  18.167  0.00  0.00    +0.000 OA
BRANCH  18  19
ATOM     19  C   UNL     1       3.187   5.795  17.713  0.00  0.00    +0.000 C 
BRANCH  19  20
ATOM     20  C   UNL     1       2.595   4.891  18.800  0.00  0.00    +0.000 A 
ATOM     21  C   UNL     1       1.868   3.728  18.476  0.00  0.00    +0.000 A 
ATOM     22  C   UNL     1       1.274   2.952  19.463  0.00  0.00    +0.000 A 
ATOM     23  C   UNL     1       1.401   3.318  20.803  0.00  0.00    +0.000 A 
ATOM     24  F   UNL     1       0.802   2.596  21.750  0.00  0.00    +0.000 F 
ATOM     25  C   UNL     1       2.144   4.439  21.157  0.00  0.00    +0.000 A 
ATOM     26  C   UNL     1       2.747   5.214  20.167  0.00  0.00    +0.000 A 
ENDBRANCH  19  20
BRANCH  19  27
ATOM     27  C   UNL     1       4.635   5.436  17.374  0.00  0.00    +0.000 A 
ATOM     28  C   UNL     1       4.922   4.639  16.257  0.00  0.00    +0.000 A 
ATOM     29  C   UNL     1       6.220   4.175  16.026  0.00  0.00    +0.000 A 
ATOM     30  C   UNL     1       7.257   4.561  16.873  0.00  0.00    +0.000 A 
ATOM     31  C   UNL     1       7.002   5.399  17.951  0.00  0.00    +0.000 A 
ATOM     32  C   UNL     1       5.691   5.818  18.224  0.00  0.00    +0.000 A 
ENDBRANCH  19  27
ENDBRANCH  18  19
ENDBRANCH  17  18
ENDBRANCH   1  17
TORSDOF 8
ENDMDL
MODEL 3
REMARK VINA RESULT:      -8.7      2.717      4.506
REMARK  Name = 
REMARK  8 active torsions:
REMARK  status: ('A' for Active; 'I' for Inactive)
REMARK    1  A    between atoms: O_1  and  C_2
REMARK    2  A    between atoms: C_2  and  C_3
REMARK    3  A    between atoms: N_12  and  C_13
REMARK    4  A    between atoms: C_13  and  C_14
REMARK    5  A    between atoms: C_14  and  O_15
REMARK    6  A    between atoms: O_15  and  C_16
REMARK    7  A    between atoms: C_16  and  C_17
REMARK    8  A    between atoms: C_16  and  C_23
REMARK                            x       y       z     vdW  Elec       q    Type
REMARK                         _______ _______ _______ _____ _____    ______ ____
ROOT
ATOM      1  C   UNL     1       1.770   9.424  19.166  0.00  0.00    +0.000 C 
ENDROOT
BRANCH   1   5
ATOM      2  C   UNL     1      -1.913  11.572  18.339  0.00  0.00    +0.000 C 
ATOM      3  C   UNL     1      -1.106  11.787  19.632  0.00  0.00    +0.000 C 
ATOM      4  C   UNL     1       0.342  11.345  19.498  0.00  0.00    +0.000 C 
ATOM      5  N   UNL     1       0.387   9.928  19.112  0.00  0.00    +0.000 NA
ATOM      6  C   UNL     1      -0.195   9.785  17.769  0.00  0.00    +0.000 C 
ATOM      7  C   UNL     1      -1.677  10.149  17.806  0.00  0.00    +0.000 C 
BRANCH   2   8
ATOM      8  C   UNL     1      -3.415  11.832  18.502  0.00  0.00    +0.000 A 
ATOM      9  C   UNL     1      -3.898  12.420  19.690  0.00  0.00    +0.000 A 
ATOM     10  C   UNL     1      -5.255  12.737  19.838  0.00  0.00    +0.000 A 
ATOM     11  C   UNL     1      -6.145  12.455  18.814  0.00  0.00    +0.000 A 
ATOM     12 CL   UNL     1      -7.811  12.850  18.983  0.00  0.00    +0.000 Cl
ATOM     13  C   UNL     1      -5.701  11.854  17.640  0.00  0.00    +0.000 A 
ATOM     14  C   UNL     1      -4.345  11.543  17.492  0.00  0.00    +0.000 A 
ENDBRANCH   2   8
BRANCH   2  15
ATOM     15  O   UNL     1      -1.415  12.496  17.361  0.00  0.00    +0.000 OA
ATOM     16  H   UNL     1      -0.723  12.036  16.857  0.00  0.00    +0.000 HD
ENDBRANCH   2  15
ENDBRANCH   1   5
BRANCH   1  17
ATOM     17  C   UNL     1       1.844   7.953  19.614  0.00  0.00    +0.000 C 
BRANCH  17  18
ATOM     18  O   UNL     1       2.617   7.212  18.674  0.00  0.00    +0.000 OA
BRANCH  18  19
ATOM     19  C   UNL     1       3.361   6.120  19.259  0.00  0.00    +0.000 C 
BRANCH  19  20
ATOM     20  C   UNL     1       4.513   5.762  18.315  0.00  0.00    +0.000 A 
ATOM     21  C   UNL     1       4.524   6.185  16.971  0.00  0.00    +0.000 A 
ATOM     22  C   UNL     1       5.536   5.797  16.102  0.00  0.00    +0.000 A 
ATOM     23  C   UNL     1       6.570   4.981  16.561  0.00  0.00    +0.000 A 
ATOM     24  F   UNL     1       7.523   4.578  15.722  0.00  0.00    +0.000 F 
ATOM     25  C   UNL     1       6.608   4.579  17.892  0.00  0.00    +0.000 A 
ATOM     26  C   UNL     1       5.596   4.975  18.766  0.00  0.00    +0.000 A 
ENDBRANCH  19  20
BRANCH  19  27
ATOM     27  C   UNL     1       2.434   4.934  19.531  0.00  0.00    +0.000 A 
ATOM     28  C   UNL     1       2.219   4.491  20.844  0.00  0.00    +0.000 A 
ATOM     29  C   UNL     1       1.504   3.317  21.094  0.00  0.00    +0.000 A 
ATOM     30  C   UNL     1       0.937   2.611  20.036  0.00  0.00    +0.000 A 
ATOM     31  C   UNL     1       1.088   3.066  18.732  0.00  0.00    +0.000 A 
ATOM     32  C   UNL     1       1.857   4.210  18.470  0.00  0.00    +0.000 A 
ENDBRANCH  19  27
ENDBRANCH  18  19
ENDBRANCH  17  18
ENDBRANCH   1  17
TORSDOF 8
ENDMDL
MODEL 4
REMARK VINA RESULT:      -8.7      2.605      4.348
REMARK  Name = 
REMARK  8 active torsions:
REMARK  status: ('A' for Active; 'I' for Inactive)
REMARK    1  A    between atoms: O_1  and  C_2
REMARK    2  A    between atoms: C_2  and  C_3
REMARK    3  A    between atoms: N_12  and  C_13
REMARK    4  A    between atoms: C_13  and  C_14
REMARK    5  A    between atoms: C_14  and  O_15
REMARK    6  A    between atoms: O_15  and  C_16
REMARK    7  A    between atoms: C_16  and  C_17
REMARK    8  A    between atoms: C_16  and  C_23
REMARK                            x       y       z     vdW  Elec       q    Type
REMARK                         _______ _______ _______ _____ _____    ______ ____
ROOT
ATOM      1  C   UNL     1       1.847   8.923  19.317  0.00  0.00    +0.000 C 
ENDROOT
BRANCH   1   5
ATOM      2  C   UNL     1      -1.595  11.460  18.560  0.00  0.00    +0.000 C 
ATOM      3  C   UNL     1      -0.940  11.353  19.949  0.00  0.00    +0.000 C 
ATOM      4  C   UNL     1       0.489  10.840  19.883  0.00  0.00    +0.000 C 
ATOM      5  N   UNL     1       0.509   9.529  19.220  0.00  0.00    +0.000 NA
ATOM      6  C   UNL     1       0.086   9.700  17.822  0.00  0.00    +0.000 C 
ATOM      7  C   UNL     1      -1.370  10.159  17.774  0.00  0.00    +0.000 C 
BRANCH   2   8
ATOM      8  C   UNL     1      -3.091  11.793  18.611  0.00  0.00    +0.000 A 
ATOM      9  C   UNL     1      -3.921  11.448  17.523  0.00  0.00    +0.000 A 
ATOM     10  C   UNL     1      -5.303  11.672  17.572  0.00  0.00    +0.000 A 
ATOM     11  C   UNL     1      -5.868  12.258  18.692  0.00  0.00    +0.000 A 
ATOM     12 CL   UNL     1      -7.566  12.528  18.764  0.00  0.00    +0.000 Cl
ATOM     13  C   UNL     1      -5.071  12.631  19.770  0.00  0.00    +0.000 A 
ATOM     14  C   UNL     1      -3.692  12.402  19.723  0.00  0.00    +0.000 A 
ENDBRANCH   2   8
BRANCH   2  15
ATOM     15  O   UNL     1      -0.937  12.521  17.853  0.00  0.00    +0.000 OA
ATOM     16  H   UNL     1      -0.932  12.279  16.911  0.00  0.00    +0.000 HD
ENDBRANCH   2  15
ENDBRANCH   1   5
BRANCH   1  17
ATOM     17  C   UNL     1       2.354   8.392  17.963  0.00  0.00    +0.000 C 
BRANCH  17  18
ATOM     18  O   UNL     1       2.208   6.975  17.928  0.00  0.00    +0.000 OA
BRANCH  18  19
ATOM     19  C   UNL     1       3.001   6.281  18.916  0.00  0.00    +0.000 C 
BRANCH  19  20
ATOM     20  C   UNL     1       4.325   5.867  18.266  0.00  0.00    +0.000 A 
ATOM     21  C   UNL     1       4.509   5.918  16.870  0.00  0.00    +0.000 A 
ATOM     22  C   UNL     1       5.687   5.475  16.282  0.00  0.00    +0.000 A 
ATOM     23  C   UNL     1       6.716   4.975  17.080  0.00  0.00    +0.000 A 
ATOM     24  F   UNL     1       7.833   4.516  16.517  0.00  0.00    +0.000 F 
ATOM     25  C   UNL     1       6.580   4.948  18.464  0.00  0.00    +0.000 A 
ATOM     26  C   UNL     1       5.400   5.400  19.054  0.00  0.00    +0.000 A 
ENDBRANCH  19  20
BRANCH  19  27
ATOM     27  C   UNL     1       2.224   5.089  19.477  0.00  0.00    +0.000 A 
ATOM     28  C   UNL     1       2.199   4.848  20.858  0.00  0.00    +0.000 A 
ATOM     29  C   UNL     1       1.627   3.680  21.370  0.00  0.00    +0.000 A 
ATOM     30  C   UNL     1       1.014   2.773  20.508  0.00  0.00    +0.000 A 
ATOM     31  C   UNL     1       0.976   3.023  19.142  0.00  0.00    +0.000 A 
ATOM     32  C   UNL     1       1.603   4.164  18.617  0.00  0.00    +0.000 A 
ENDBRANCH  19  27
ENDBRANCH  18  19
ENDBRANCH  17  18
ENDBRANCH   1  17
TORSDOF 8
ENDMDL
MODEL 5
REMARK VINA RESULT:      -8.7      1.052      1.465
REMARK  Name = 
REMARK  8 active torsions:
REMARK  status: ('A' for Active; 'I' for Inactive)
REMARK    1  A    between atoms: O_1  and  C_2
REMARK    2  A    between atoms: C_2  and  C_3
REMARK    3  A    between atoms: N_12  and  C_13
REMARK    4  A    between atoms: C_13  and  C_14
REMARK    5  A    between atoms: C_14  and  O_15
REMARK    6  A    between atoms: O_15  and  C_16
REMARK    7  A    between atoms: C_16  and  C_17
REMARK    8  A    between atoms: C_16  and  C_23
REMARK                            x       y       z     vdW  Elec       q    Type
REMARK                         _______ _______ _______ _____ _____    ______ ____
ROOT
ATOM      1  C   UNL     1       1.885   9.947  17.835  0.00  0.00    +0.000 C 
ENDROOT
BRANCH   1   5
ATOM      2  C   UNL     1      -0.545  11.677  20.991  0.00  0.00    +0.000 C 
ATOM      3  C   UNL     1      -0.361  10.158  20.831  0.00  0.00    +0.000 C 
ATOM      4  C   UNL     1       0.877   9.800  20.025  0.00  0.00    +0.000 C 
ATOM      5  N   UNL     1       0.799  10.434  18.702  0.00  0.00    +0.000 NA
ATOM      6  C   UNL     1       0.849  11.893  18.873  0.00  0.00    +0.000 C 
ATOM      7  C   UNL     1      -0.393  12.368  19.625  0.00  0.00    +0.000 C 
BRANCH   2   8
ATOM      8  C   UNL     1      -1.880  12.070  21.634  0.00  0.00    +0.000 A 
ATOM      9  C   UNL     1      -2.073  11.876  23.018  0.00  0.00    +0.000 A 
ATOM     10  C   UNL     1      -3.254  12.294  23.647  0.00  0.00    +0.000 A 
ATOM     11  C   UNL     1      -4.258  12.890  22.903  0.00  0.00    +0.000 A 
ATOM     12 CL   UNL     1      -5.707  13.415  23.669  0.00  0.00    +0.000 Cl
ATOM     13  C   UNL     1      -4.106  13.073  21.532  0.00  0.00    +0.000 A 
ATOM     14  C   UNL     1      -2.925  12.661  20.906  0.00  0.00    +0.000 A 
ENDBRANCH   2   8
BRANCH   2  15
ATOM     15  O   UNL     1       0.506  12.153  21.843  0.00  0.00    +0.000 OA
ATOM     16  H   UNL     1       0.085  12.539  22.631  0.00  0.00    +0.000 HD
ENDBRANCH   2  15
ENDBRANCH   1   5
BRANCH   1  17
ATOM     17  C   UNL     1       1.902   8.411  17.717  0.00  0.00    +0.000 C 
BRANCH  17  18
ATOM     18  O   UNL     1       3.136   7.913  18.225  0.00  0.00    +0.000 OA
BRANCH  18  19
ATOM     19  C   UNL     1       3.467   6.586  17.761  0.00  0.00    +0.000 C 
BRANCH  19  20
ATOM     20  C   UNL     1       2.600   5.579  18.523  0.00  0.00    +0.000 A 
ATOM     21  C   UNL     1       2.317   5.738  19.894  0.00  0.00    +0.000 A 
ATOM     22  C   UNL     1       1.590   4.785  20.595  0.00  0.00    +0.000 A 
ATOM     23  C   UNL     1       1.119   3.649  19.937  0.00  0.00    +0.000 A 
ATOM     24  F   UNL     1       0.452   2.715  20.613  0.00  0.00    +0.000 F 
ATOM     25  C   UNL     1       1.349   3.482  18.575  0.00  0.00    +0.000 A 
ATOM     26  C   UNL     1       2.073   4.443  17.870  0.00  0.00    +0.000 A 
ENDBRANCH  19  20
BRANCH  19  27
ATOM     27  C   UNL     1       4.964   6.322  17.934  0.00  0.00    +0.000 A 
ATOM     28  C   UNL     1       5.422   5.503  18.976  0.00  0.00    +0.000 A 
ATOM     29  C   UNL     1       6.789   5.379  19.239  0.00  0.00    +0.000 A 
ATOM     30  C   UNL     1       7.715   6.020  18.419  0.00  0.00    +0.000 A 
ATOM     31  C   UNL     1       7.283   6.788  17.345  0.00  0.00    +0.000 A 
ATOM     32  C   UNL     1       5.910   6.965  17.113  0.00  0.00    +0.000 A 
ENDBRANCH  19  27
ENDBRANCH  18  19
ENDBRANCH  17  18
ENDBRANCH   1  17
TORSDOF 8
ENDMDL
MODEL 6
REMARK VINA RESULT:      -8.6      1.960      3.889
REMARK  Name = 
REMARK  8 active torsions:
REMARK  status: ('A' for Active; 'I' for Inactive)
REMARK    1  A    between atoms: O_1  and  C_2
REMARK    2  A    between atoms: C_2  and  C_3
REMARK    3  A    between atoms: N_12  and  C_13
REMARK    4  A    between atoms: C_13  and  C_14
REMARK    5  A    between atoms: C_14  and  O_15
REMARK    6  A    between atoms: O_15  and  C_16
REMARK    7  A    between atoms: C_16  and  C_17
REMARK    8  A    between atoms: C_16  and  C_23
REMARK                            x       y       z     vdW  Elec       q    Type
REMARK                         _______ _______ _______ _____ _____    ______ ____
ROOT
ATOM      1  C   UNL     1       1.833   8.210  20.180  0.00  0.00    +0.000 C 
ENDROOT
BRANCH   1   5
ATOM      2  C   UNL     1      -0.692  11.386  21.729  0.00  0.00    +0.000 C 
ATOM      3  C   UNL     1      -0.353  10.129  22.549  0.00  0.00    +0.000 C 
ATOM      4  C   UNL     1       0.896   9.423  22.048  0.00  0.00    +0.000 C 
ATOM      5  N   UNL     1       0.722   9.063  20.634  0.00  0.00    +0.000 NA
ATOM      6  C   UNL     1       0.621  10.298  19.841  0.00  0.00    +0.000 C 
ATOM      7  C   UNL     1      -0.645  11.059  20.227  0.00  0.00    +0.000 C 
BRANCH   2   8
ATOM      8  C   UNL     1      -2.045  12.008  22.090  0.00  0.00    +0.000 A 
ATOM      9  C   UNL     1      -2.507  11.953  23.422  0.00  0.00    +0.000 A 
ATOM     10  C   UNL     1      -3.705  12.577  23.797  0.00  0.00    +0.000 A 
ATOM     11  C   UNL     1      -4.461  13.246  22.848  0.00  0.00    +0.000 A 
ATOM     12 CL   UNL     1      -5.927  14.024  23.302  0.00  0.00    +0.000 Cl
ATOM     13  C   UNL     1      -4.042  13.297  21.522  0.00  0.00    +0.000 A 
ATOM     14  C   UNL     1      -2.844  12.678  21.150  0.00  0.00    +0.000 A 
ENDBRANCH   2   8
BRANCH   2  15
ATOM     15  O   UNL     1       0.323  12.364  21.997  0.00  0.00    +0.000 OA
ATOM     16  H   UNL     1       1.129  12.075  21.537  0.00  0.00    +0.000 HD
ENDBRANCH   2  15
ENDBRANCH   1   5
BRANCH   1  17
ATOM     17  C   UNL     1       2.066   8.306  18.660  0.00  0.00    +0.000 C 
BRANCH  17  18
ATOM     18  O   UNL     1       2.244   6.997  18.127  0.00  0.00    +0.000 OA
BRANCH  18  19
ATOM     19  C   UNL     1       3.060   6.135  18.950  0.00  0.00    +0.000 C 
BRANCH  19  20
ATOM     20  C   UNL     1       4.302   5.737  18.147  0.00  0.00    +0.000 A 
ATOM     21  C   UNL     1       5.334   4.966  18.718  0.00  0.00    +0.000 A 
ATOM     22  C   UNL     1       6.490   4.668  18.007  0.00  0.00    +0.000 A 
ATOM     23  C   UNL     1       6.638   5.131  16.700  0.00  0.00    +0.000 A 
ATOM     24  F   UNL     1       7.760   4.879  16.027  0.00  0.00    +0.000 F 
ATOM     25  C   UNL     1       5.621   5.862  16.094  0.00  0.00    +0.000 A 
ATOM     26  C   UNL     1       4.458   6.154  16.806  0.00  0.00    +0.000 A 
ENDBRANCH  19  20
BRANCH  19  27
ATOM     27  C   UNL     1       2.249   4.925  19.416  0.00  0.00    +0.000 A 
ATOM     28  C   UNL     1       2.175   4.606  20.780  0.00  0.00    +0.000 A 
ATOM     29  C   UNL     1       1.571   3.420  21.204  0.00  0.00    +0.000 A 
ATOM     30  C   UNL     1       0.974   2.573  20.273  0.00  0.00    +0.000 A 
ATOM     31  C   UNL     1       0.985   2.901  18.923  0.00  0.00    +0.000 A 
ATOM     32  C   UNL     1       1.644   4.060  18.485  0.00  0.00    +0.000 A 
ENDBRANCH  19  27
ENDBRANCH  18  19
ENDBRANCH  17  18
ENDBRANCH   1  17
TORSDOF 8
ENDMDL
MODEL 7
REMARK VINA RESULT:      -8.6      1.920      3.980
REMARK  Name = 
REMARK  8 active torsions:
REMARK  status: ('A' for Active; 'I' for Inactive)
REMARK    1  A    between atoms: O_1  and  C_2
REMARK    2  A    between atoms: C_2  and  C_3
REMARK    3  A    between atoms: N_12  and  C_13
REMARK    4  A    between atoms: C_13  and  C_14
REMARK    5  A    between atoms: C_14  and  O_15
REMARK    6  A    between atoms: O_15  and  C_16
REMARK    7  A    between atoms: C_16  and  C_17
REMARK    8  A    between atoms: C_16  and  C_23
REMARK                            x       y       z     vdW  Elec       q    Type
REMARK                         _______ _______ _______ _____ _____    ______ ____
ROOT
ATOM      1  C   UNL     1       1.462   9.254  18.224  0.00  0.00    +0.000 C 
ENDROOT
BRANCH   1   5
ATOM      2  C   UNL     1      -0.749  11.641  21.099  0.00  0.00    +0.000 C 
ATOM      3  C   UNL     1      -0.595  10.117  21.239  0.00  0.00    +0.000 C 
ATOM      4  C   UNL     1       0.587   9.574  20.453  0.00  0.00    +0.000 C 
ATOM      5  N   UNL     1       0.437   9.931  19.035  0.00  0.00    +0.000 NA
ATOM      6  C   UNL     1       0.516  11.394  18.906  0.00  0.00    +0.000 C 
ATOM      7  C   UNL     1      -0.671  12.041  19.616  0.00  0.00    +0.000 C 
BRANCH   2   8
ATOM      8  C   UNL     1      -2.037  12.189  21.725  0.00  0.00    +0.000 A 
ATOM      9  C   UNL     1      -2.308  11.951  23.089  0.00  0.00    +0.000 A 
ATOM     10  C   UNL     1      -3.439  12.501  23.706  0.00  0.00    +0.000 A 
ATOM     11  C   UNL     1      -4.319  13.275  22.969  0.00  0.00    +0.000 A 
ATOM     12 CL   UNL     1      -5.706  13.963  23.722  0.00  0.00    +0.000 Cl
ATOM     13  C   UNL     1      -4.091  13.508  21.616  0.00  0.00    +0.000 A 
ATOM     14  C   UNL     1      -2.959  12.963  21.002  0.00  0.00    +0.000 A 
ENDBRANCH   2   8
BRANCH   2  15
ATOM     15  O   UNL     1       0.358  12.252  21.777  0.00  0.00    +0.000 OA
ATOM     16  H   UNL     1      -0.005  12.753  22.527  0.00  0.00    +0.000 HD
ENDBRANCH   2  15
ENDBRANCH   1   5
BRANCH   1  17
ATOM     17  C   UNL     1       2.168   8.120  18.992  0.00  0.00    +0.000 C 
BRANCH  17  18
ATOM     18  O   UNL     1       2.781   7.231  18.063  0.00  0.00    +0.000 OA
BRANCH  18  19
ATOM     19  C   UNL     1       3.573   6.193  18.681  0.00  0.00    +0.000 C 
BRANCH  19  20
ATOM     20  C   UNL     1       4.691   5.798  17.711  0.00  0.00    +0.000 A 
ATOM     21  C   UNL     1       4.671   6.198  16.360  0.00  0.00    +0.000 A 
ATOM     22  C   UNL     1       5.650   5.778  15.470  0.00  0.00    +0.000 A 
ATOM     23  C   UNL     1       6.682   4.951  15.913  0.00  0.00    +0.000 A 
ATOM     24  F   UNL     1       7.604   4.516  15.054  0.00  0.00    +0.000 F 
ATOM     25  C   UNL     1       6.752   4.570  17.249  0.00  0.00    +0.000 A 
ATOM     26  C   UNL     1       5.772   4.998  18.144  0.00  0.00    +0.000 A 
ENDBRANCH  19  20
BRANCH  19  27
ATOM     27  C   UNL     1       2.686   5.009  19.069  0.00  0.00    +0.000 A 
ATOM     28  C   UNL     1       2.106   4.205  18.076  0.00  0.00    +0.000 A 
ATOM     29  C   UNL     1       1.172   3.221  18.410  0.00  0.00    +0.000 A 
ATOM     30  C   UNL     1       0.860   2.984  19.747  0.00  0.00    +0.000 A 
ATOM     31  C   UNL     1       1.469   3.729  20.749  0.00  0.00    +0.000 A 
ATOM     32  C   UNL     1       2.361   4.760  20.416  0.00  0.00    +0.000 A 
ENDBRANCH  19  27
ENDBRANCH  18  19
ENDBRANCH  17  18
ENDBRANCH   1  17
TORSDOF 8
ENDMDL
MODEL 8
REMARK VINA RESULT:      -8.6      1.933      3.767
REMARK  Name = 
REMARK  8 active torsions:
REMARK  status: ('A' for Active; 'I' for Inactive)
REMARK    1  A    between atoms: O_1  and  C_2
REMARK    2  A    between atoms: C_2  and  C_3
REMARK    3  A    between atoms: N_12  and  C_13
REMARK    4  A    between atoms: C_13  and  C_14
REMARK    5  A    between atoms: C_14  and  O_15
REMARK    6  A    between atoms: O_15  and  C_16
REMARK    7  A    between atoms: C_16  and  C_17
REMARK    8  A    between atoms: C_16  and  C_23
REMARK                            x       y       z     vdW  Elec       q    Type
REMARK                         _______ _______ _______ _____ _____    ______ ____
ROOT
ATOM      1  C   UNL     1       1.508   9.284  18.468  0.00  0.00    +0.000 C 
ENDROOT
BRANCH   1   5
ATOM      2  C   UNL     1      -0.764  11.719  21.256  0.00  0.00    +0.000 C 
ATOM      3  C   UNL     1      -0.477  10.229  21.508  0.00  0.00    +0.000 C 
ATOM      4  C   UNL     1       0.710   9.718  20.707  0.00  0.00    +0.000 C 
ATOM      5  N   UNL     1       0.468   9.943  19.276  0.00  0.00    +0.000 NA
ATOM      6  C   UNL     1       0.418  11.392  19.027  0.00  0.00    +0.000 C 
ATOM      7  C   UNL     1      -0.786  11.999  19.744  0.00  0.00    +0.000 C 
BRANCH   2   8
ATOM      8  C   UNL     1      -2.063  12.213  21.902  0.00  0.00    +0.000 A 
ATOM      9  C   UNL     1      -3.063  12.802  21.099  0.00  0.00    +0.000 A 
ATOM     10  C   UNL     1      -4.291  13.195  21.650  0.00  0.00    +0.000 A 
ATOM     11  C   UNL     1      -4.527  13.023  23.003  0.00  0.00    +0.000 A 
ATOM     12 CL   UNL     1      -6.035  13.493  23.685  0.00  0.00    +0.000 Cl
ATOM     13  C   UNL     1      -3.550  12.466  23.824  0.00  0.00    +0.000 A 
ATOM     14  C   UNL     1      -2.327  12.069  23.273  0.00  0.00    +0.000 A 
ENDBRANCH   2   8
BRANCH   2  15
ATOM     15  O   UNL     1       0.318  12.470  21.826  0.00  0.00    +0.000 OA
ATOM     16  H   UNL     1       0.028  13.396  21.881  0.00  0.00    +0.000 HD
ENDBRANCH   2  15
ENDBRANCH   1   5
BRANCH   1  17
ATOM     17  C   UNL     1       2.100   8.046  19.168  0.00  0.00    +0.000 C 
BRANCH  17  18
ATOM     18  O   UNL     1       2.855   7.288  18.226  0.00  0.00    +0.000 OA
BRANCH  18  19
ATOM     19  C   UNL     1       3.544   6.158  18.803  0.00  0.00    +0.000 C 
BRANCH  19  20
ATOM     20  C   UNL     1       4.609   5.684  17.808  0.00  0.00    +0.000 A 
ATOM     21  C   UNL     1       5.600   4.753  18.176  0.00  0.00    +0.000 A 
ATOM     22  C   UNL     1       6.604   4.382  17.291  0.00  0.00    +0.000 A 
ATOM     23  C   UNL     1       6.636   4.929  16.009  0.00  0.00    +0.000 A 
ATOM     24  F   UNL     1       7.617   4.604  15.169  0.00  0.00    +0.000 F 
ATOM     25  C   UNL     1       5.649   5.822  15.602  0.00  0.00    +0.000 A 
ATOM     26  C   UNL     1       4.637   6.189  16.489  0.00  0.00    +0.000 A 
ENDBRANCH  19  20
BRANCH  19  27
ATOM     27  C   UNL     1       2.546   5.056  19.165  0.00  0.00    +0.000 A 
ATOM     28  C   UNL     1       2.321   4.719  20.507  0.00  0.00    +0.000 A 
ATOM     29  C   UNL     1       1.534   3.615  20.843  0.00  0.00    +0.000 A 
ATOM     30  C   UNL     1       0.908   2.876  19.841  0.00  0.00    +0.000 A 
ATOM     31  C   UNL     1       1.071   3.231  18.508  0.00  0.00    +0.000 A 
ATOM     32  C   UNL     1       1.910   4.301  18.161  0.00  0.00    +0.000 A 
ENDBRANCH  19  27
ENDBRANCH  18  19
ENDBRANCH  17  18
ENDBRANCH   1  17
TORSDOF 8
ENDMDL
MODEL 9
REMARK VINA RESULT:      -8.5      2.317      4.104
REMARK  Name = 
REMARK  8 active torsions:
REMARK  status: ('A' for Active; 'I' for Inactive)
REMARK    1  A    between atoms: O_1  and  C_2
REMARK    2  A    between atoms: C_2  and  C_3
REMARK    3  A    between atoms: N_12  and  C_13
REMARK    4  A    between atoms: C_13  and  C_14
REMARK    5  A    between atoms: C_14  and  O_15
REMARK    6  A    between atoms: O_15  and  C_16
REMARK    7  A    between atoms: C_16  and  C_17
REMARK    8  A    between atoms: C_16  and  C_23
REMARK                            x       y       z     vdW  Elec       q    Type
REMARK                         _______ _______ _______ _____ _____    ______ ____
ROOT
ATOM      1  C   UNL     1       1.616   9.027  17.897  0.00  0.00    +0.000 C 
ENDROOT
BRANCH   1   5
ATOM      2  C   UNL     1      -1.759  11.667  18.606  0.00  0.00    +0.000 C 
ATOM      3  C   UNL     1      -0.475  11.724  19.453  0.00  0.00    +0.000 C 
ATOM      4  C   UNL     1       0.719  11.103  18.748  0.00  0.00    +0.000 C 
ATOM      5  N   UNL     1       0.412   9.708  18.403  0.00  0.00    +0.000 NA
ATOM      6  C   UNL     1      -0.679   9.694  17.417  0.00  0.00    +0.000 C 
ATOM      7  C   UNL     1      -1.954  10.247  18.049  0.00  0.00    +0.000 C 
BRANCH   2   8
ATOM      8  C   UNL     1      -3.015  12.113  19.363  0.00  0.00    +0.000 A 
ATOM      9  C   UNL     1      -4.286  11.925  18.780  0.00  0.00    +0.000 A 
ATOM     10  C   UNL     1      -5.456  12.255  19.479  0.00  0.00    +0.000 A 
ATOM     11  C   UNL     1      -5.370  12.792  20.753  0.00  0.00    +0.000 A 
ATOM     12 CL   UNL     1      -6.801  13.190  21.621  0.00  0.00    +0.000 Cl
ATOM     13  C   UNL     1      -4.129  13.010  21.344  0.00  0.00    +0.000 A 
ATOM     14  C   UNL     1      -2.963  12.676  20.648  0.00  0.00    +0.000 A 
ENDBRANCH   2   8
BRANCH   2  15
ATOM     15  O   UNL     1      -1.583  12.555  17.493  0.00  0.00    +0.000 OA
ATOM     16  H   UNL     1      -2.334  12.416  16.892  0.00  0.00    +0.000 HD
ENDBRANCH   2  15
ENDBRANCH   1   5
BRANCH   1  17
ATOM     17  C   UNL     1       2.248   8.092  18.946  0.00  0.00    +0.000 C 
BRANCH  17  18
ATOM     18  O   UNL     1       2.524   6.830  18.346  0.00  0.00    +0.000 OA
BRANCH  18  19
ATOM     19  C   UNL     1       3.335   5.958  19.164  0.00  0.00    +0.000 C 
BRANCH  19  20
ATOM     20  C   UNL     1       4.503   5.449  18.314  0.00  0.00    +0.000 A 
ATOM     21  C   UNL     1       5.750   5.130  18.888  0.00  0.00    +0.000 A 
ATOM     22  C   UNL     1       6.826   4.737  18.102  0.00  0.00    +0.000 A 
ATOM     23  C   UNL     1       6.678   4.645  16.719  0.00  0.00    +0.000 A 
ATOM     24  F   UNL     1       7.717   4.303  15.958  0.00  0.00    +0.000 F 
ATOM     25  C   UNL     1       5.449   4.915  16.125  0.00  0.00    +0.000 A 
ATOM     26  C   UNL     1       4.367   5.303  16.915  0.00  0.00    +0.000 A 
ENDBRANCH  19  20
BRANCH  19  27
ATOM     27  C   UNL     1       2.484   4.822  19.734  0.00  0.00    +0.000 A 
ATOM     28  C   UNL     1       2.597   4.463  21.084  0.00  0.00    +0.000 A 
ATOM     29  C   UNL     1       1.944   3.330  21.579  0.00  0.00    +0.000 A 
ATOM     30  C   UNL     1       1.117   2.584  20.742  0.00  0.00    +0.000 A 
ATOM     31  C   UNL     1       0.945   2.959  19.416  0.00  0.00    +0.000 A 
ATOM     32  C   UNL     1       1.646   4.059  18.898  0.00  0.00    +0.000 A 
ENDBRANCH  19  27
ENDBRANCH  18  19
ENDBRANCH  17  18
ENDBRANCH   1  17
TORSDOF 8
ENDMDL
