MODEL 1
REMARK VINA RESULT:      -7.7      0.000      0.000
REMARK  Name = 
REMARK  12 active torsions:
REMARK  status: ('A' for Active; 'I' for Inactive)
REMARK    1  A    between atoms: C_1  and  N_2
REMARK    2  A    between atoms: N_2  and  C_3
REMARK    3  A    between atoms: N_2  and  C_4
REMARK    4  A    between atoms: C_4  and  C_5
REMARK    5  A    between atoms: C_5  and  O_6
REMARK    6  A    between atoms: O_6  and  C_7
REMARK    7  A    between atoms: C_10  and  N_11
REMARK    8  A    between atoms: C_12  and  C_14
REMARK    9  A    between atoms: C_16  and  N_17
REMARK   10  A    between atoms: N_17  and  C_18
REMARK   11  A    between atoms: N_17  and  C_19
REMARK   12  A    between atoms: C_19  and  C_20
REMARK                            x       y       z     vdW  Elec       q    Type
REMARK                         _______ _______ _______ _____ _____    ______ ____
ROOT
ATOM      1  N   UNL     1       9.002   9.028  18.982  0.00  0.00    +0.000 N 
ATOM      2  C   UNL     1       8.039   8.611  18.060  0.00  0.00    +0.000 C 
ATOM      3  O   UNL     1       7.454   9.316  17.243  0.00  0.00    +0.000 OA
ATOM      4  H   UNL     1       9.402   8.347  19.611  0.00  0.00    +0.000 HD
ENDROOT
BRANCH   1   8
ATOM      5  C   UNL     1      10.264  13.038  19.554  0.00  0.00    +0.000 A 
ATOM      6  C   UNL     1       9.770  12.280  20.618  0.00  0.00    +0.000 A 
ATOM      7  C   UNL     1       9.347  10.973  20.433  0.00  0.00    +0.000 A 
ATOM      8  C   UNL     1       9.409  10.368  19.184  0.00  0.00    +0.000 A 
ATOM      9  C   UNL     1       9.912  11.111  18.107  0.00  0.00    +0.000 A 
ATOM     10  C   UNL     1      10.334  12.443  18.294  0.00  0.00    +0.000 A 
BRANCH   5  11
ATOM     11  O   UNL     1      10.692  14.344  19.677  0.00  0.00    +0.000 OA
BRANCH  11  12
ATOM     12  C   UNL     1      10.038  15.233  18.756  0.00  0.00    +0.000 C 
BRANCH  12  13
ATOM     13  C   UNL     1       8.630  15.641  19.198  0.00  0.00    +0.000 C 
BRANCH  13  15
ATOM     14  C   UNL     1       6.749  17.115  18.848  0.00  0.00    +0.000 C 
ATOM     15  N   UNL     1       8.072  16.734  18.363  0.00  0.00    +0.000 NA
ATOM     16  C   UNL     1       8.943  17.913  18.309  0.00  0.00    +0.000 C 
ENDBRANCH  13  15
ENDBRANCH  12  13
ENDBRANCH  11  12
ENDBRANCH   5  11
ENDBRANCH   1   8
BRANCH   2  17
ATOM     17  C   UNL     1       7.686   7.170  18.078  0.00  0.00    +0.000 A 
ATOM     18  C   UNL     1       6.784   6.656  17.173  0.00  0.00    +0.000 A 
ATOM     19  C   UNL     1       6.533   5.306  17.253  0.00  0.00    +0.000 A 
ATOM     20  N   UNL     1       7.156   4.563  18.188  0.00  0.00    +0.000 NA
ATOM     21  C   UNL     1       7.962   5.168  19.066  0.00  0.00    +0.000 A 
ATOM     22  N   UNL     1       8.280   6.453  19.052  0.00  0.00    +0.000 NA
BRANCH  19  23
ATOM     23  N   UNL     1       5.662   4.670  16.395  0.00  0.00    +0.000 N 
ATOM     24  C   UNL     1       5.803   4.717  14.951  0.00  0.00    +0.000 C 
BRANCH  23  25
ATOM     25  C   UNL     1       4.632   3.807  16.972  0.00  0.00    +0.000 C 
BRANCH  25  26
ATOM     26  C   UNL     1       3.785   4.494  18.021  0.00  0.00    +0.000 A 
ATOM     27  C   UNL     1       3.612   3.929  19.294  0.00  0.00    +0.000 A 
ATOM     28  C   UNL     1       2.839   4.582  20.256  0.00  0.00    +0.000 A 
ATOM     29  C   UNL     1       2.231   5.793  19.946  0.00  0.00    +0.000 A 
ATOM     30  F   UNL     1       1.485   6.412  20.870  0.00  0.00    +0.000 F 
ATOM     31  C   UNL     1       2.388   6.372  18.697  0.00  0.00    +0.000 A 
ATOM     32  C   UNL     1       3.171   5.728  17.741  0.00  0.00    +0.000 A 
ENDBRANCH  25  26
ENDBRANCH  23  25
ENDBRANCH  19  23
ENDBRANCH   2  17
TORSDOF 9
ENDMDL
MODEL 2
REMARK VINA RESULT:      -7.7      1.034      1.563
REMARK  Name = 
REMARK  12 active torsions:
REMARK  status: ('A' for Active; 'I' for Inactive)
REMARK    1  A    between atoms: C_1  and  N_2
REMARK    2  A    between atoms: N_2  and  C_3
REMARK    3  A    between atoms: N_2  and  C_4
REMARK    4  A    between atoms: C_4  and  C_5
REMARK    5  A    between atoms: C_5  and  O_6
REMARK    6  A    between atoms: O_6  and  C_7
REMARK    7  A    between atoms: C_10  and  N_11
REMARK    8  A    between atoms: C_12  and  C_14
REMARK    9  A    between atoms: C_16  and  N_17
REMARK   10  A    between atoms: N_17  and  C_18
REMARK   11  A    between atoms: N_17  and  C_19
REMARK   12  A    between atoms: C_19  and  C_20
REMARK                            x       y       z     vdW  Elec       q    Type
REMARK                         _______ _______ _______ _____ _____    ______ ____
ROOT
ATOM      1  N   UNL     1       9.069   9.189  19.046  0.00  0.00    +0.000 N 
ATOM      2  C   UNL     1       8.145   8.763  18.088  0.00  0.00    +0.000 C 
ATOM      3  O   UNL     1       7.619   9.453  17.220  0.00  0.00    +0.000 OA
ATOM      4  H   UNL     1       9.419   8.520  19.717  0.00  0.00    +0.000 HD
ENDROOT
BRANCH   1   8
ATOM      5  C   UNL     1      10.305  13.207  19.614  0.00  0.00    +0.000 A 
ATOM      6  C   UNL     1      10.504  12.559  18.393  0.00  0.00    +0.000 A 
ATOM      7  C   UNL     1      10.110  11.242  18.207  0.00  0.00    +0.000 A 
ATOM      8  C   UNL     1       9.496  10.525  19.226  0.00  0.00    +0.000 A 
ATOM      9  C   UNL     1       9.280  11.164  20.455  0.00  0.00    +0.000 A 
ATOM     10  C   UNL     1       9.688  12.499  20.647  0.00  0.00    +0.000 A 
BRANCH   5  11
ATOM     11  O   UNL     1      10.682  14.511  19.860  0.00  0.00    +0.000 OA
BRANCH  11  12
ATOM     12  C   UNL     1       9.673  15.261  20.555  0.00  0.00    +0.000 C 
BRANCH  12  13
ATOM     13  C   UNL     1       9.032  16.359  19.702  0.00  0.00    +0.000 C 
BRANCH  13  15
ATOM     14  C   UNL     1       6.811  17.114  19.129  0.00  0.00    +0.000 C 
ATOM     15  N   UNL     1       7.703  15.960  19.175  0.00  0.00    +0.000 NA
ATOM     16  C   UNL     1       7.779  15.334  17.851  0.00  0.00    +0.000 C 
ENDBRANCH  13  15
ENDBRANCH  12  13
ENDBRANCH  11  12
ENDBRANCH   5  11
ENDBRANCH   1   8
BRANCH   2  17
ATOM     17  C   UNL     1       7.758   7.331  18.133  0.00  0.00    +0.000 A 
ATOM     18  C   UNL     1       6.824   6.828  17.255  0.00  0.00    +0.000 A 
ATOM     19  C   UNL     1       6.542   5.486  17.359  0.00  0.00    +0.000 A 
ATOM     20  N   UNL     1       7.167   4.739  18.289  0.00  0.00    +0.000 NA
ATOM     21  C   UNL     1       8.007   5.336  19.141  0.00  0.00    +0.000 A 
ATOM     22  N   UNL     1       8.355   6.613  19.103  0.00  0.00    +0.000 NA
BRANCH  19  23
ATOM     23  N   UNL     1       5.637   4.860  16.528  0.00  0.00    +0.000 N 
ATOM     24  C   UNL     1       5.339   5.332  15.189  0.00  0.00    +0.000 C 
BRANCH  23  25
ATOM     25  C   UNL     1       5.053   3.594  16.972  0.00  0.00    +0.000 C 
BRANCH  25  26
ATOM     26  C   UNL     1       3.827   3.766  17.841  0.00  0.00    +0.000 A 
ATOM     27  C   UNL     1       2.551   3.898  17.272  0.00  0.00    +0.000 A 
ATOM     28  C   UNL     1       1.427   4.041  18.087  0.00  0.00    +0.000 A 
ATOM     29  C   UNL     1       1.575   4.063  19.469  0.00  0.00    +0.000 A 
ATOM     30  F   UNL     1       0.494   4.209  20.247  0.00  0.00    +0.000 F 
ATOM     31  C   UNL     1       2.824   3.934  20.056  0.00  0.00    +0.000 A 
ATOM     32  C   UNL     1       3.945   3.777  19.243  0.00  0.00    +0.000 A 
ENDBRANCH  25  26
ENDBRANCH  23  25
ENDBRANCH  19  23
ENDBRANCH   2  17
TORSDOF 9
ENDMDL
MODEL 3
REMARK VINA RESULT:      -7.7      1.892      2.463
REMARK  Name = 
REMARK  12 active torsions:
REMARK  status: ('A' for Active; 'I' for Inactive)
REMARK    1  A    between atoms: C_1  and  N_2
REMARK    2  A    between atoms: N_2  and  C_3
REMARK    3  A    between atoms: N_2  and  C_4
REMARK    4  A    between atoms: C_4  and  C_5
REMARK    5  A    between atoms: C_5  and  O_6
REMARK    6  A    between atoms: O_6  and  C_7
REMARK    7  A    between atoms: C_10  and  N_11
REMARK    8  A    between atoms: C_12  and  C_14
REMARK    9  A    between atoms: C_16  and  N_17
REMARK   10  A    between atoms: N_17  and  C_18
REMARK   11  A    between atoms: N_17  and  C_19
REMARK   12  A    between atoms: C_19  and  C_20
REMARK                            x       y       z     vdW  Elec       q    Type
REMARK                         _______ _______ _______ _____ _____    ______ ____
ROOT
ATOM      1  N   UNL     1       8.027   9.105  17.905  0.00  0.00    +0.000 N 
ATOM      2  C   UNL     1       7.974   7.752  18.249  0.00  0.00    +0.000 C 
ATOM      3  O   UNL     1       8.645   7.188  19.107  0.00  0.00    +0.000 OA
ATOM      4  H   UNL     1       7.426   9.445  17.168  0.00  0.00    +0.000 HD
ENDROOT
BRANCH   1   8
ATOM      5  C   UNL     1      10.789  11.914  19.481  0.00  0.00    +0.000 A 
ATOM      6  C   UNL     1       9.998  11.131  20.324  0.00  0.00    +0.000 A 
ATOM      7  C   UNL     1       9.087  10.219  19.813  0.00  0.00    +0.000 A 
ATOM      8  C   UNL     1       8.936  10.046  18.443  0.00  0.00    +0.000 A 
ATOM      9  C   UNL     1       9.729  10.817  17.582  0.00  0.00    +0.000 A 
ATOM     10  C   UNL     1      10.649  11.750  18.102  0.00  0.00    +0.000 A 
BRANCH   5  11
ATOM     11  O   UNL     1      11.705  12.841  19.932  0.00  0.00    +0.000 OA
BRANCH  11  12
ATOM     12  C   UNL     1      11.581  14.112  19.273  0.00  0.00    +0.000 C 
BRANCH  12  13
ATOM     13  C   UNL     1      10.410  14.954  19.787  0.00  0.00    +0.000 C 
BRANCH  13  15
ATOM     14  C   UNL     1      10.853  17.269  19.259  0.00  0.00    +0.000 C 
ATOM     15  N   UNL     1      10.088  16.084  18.881  0.00  0.00    +0.000 NA
ATOM     16  C   UNL     1      10.324  15.768  17.468  0.00  0.00    +0.000 C 
ENDBRANCH  13  15
ENDBRANCH  12  13
ENDBRANCH  11  12
ENDBRANCH   5  11
ENDBRANCH   1   8
BRANCH   2  17
ATOM     17  C   UNL     1       7.011   6.915  17.493  0.00  0.00    +0.000 A 
ATOM     18  C   UNL     1       5.726   6.730  17.954  0.00  0.00    +0.000 A 
ATOM     19  C   UNL     1       4.899   5.952  17.177  0.00  0.00    +0.000 A 
ATOM     20  N   UNL     1       5.364   5.415  16.033  0.00  0.00    +0.000 NA
ATOM     21  C   UNL     1       6.647   5.596  15.707  0.00  0.00    +0.000 A 
ATOM     22  N   UNL     1       7.508   6.344  16.379  0.00  0.00    +0.000 NA
BRANCH  19  23
ATOM     23  N   UNL     1       3.588   5.705  17.523  0.00  0.00    +0.000 N 
ATOM     24  C   UNL     1       2.649   6.759  17.859  0.00  0.00    +0.000 C 
BRANCH  23  25
ATOM     25  C   UNL     1       3.094   4.332  17.417  0.00  0.00    +0.000 C 
BRANCH  25  26
ATOM     26  C   UNL     1       2.541   3.787  18.716  0.00  0.00    +0.000 A 
ATOM     27  C   UNL     1       3.361   3.638  19.845  0.00  0.00    +0.000 A 
ATOM     28  C   UNL     1       2.832   3.147  21.040  0.00  0.00    +0.000 A 
ATOM     29  C   UNL     1       1.490   2.796  21.108  0.00  0.00    +0.000 A 
ATOM     30  F   UNL     1       0.989   2.319  22.256  0.00  0.00    +0.000 F 
ATOM     31  C   UNL     1       0.658   2.936  20.008  0.00  0.00    +0.000 A 
ATOM     32  C   UNL     1       1.182   3.439  18.818  0.00  0.00    +0.000 A 
ENDBRANCH  25  26
ENDBRANCH  23  25
ENDBRANCH  19  23
ENDBRANCH   2  17
TORSDOF 9
ENDMDL
MODEL 4
REMARK VINA RESULT:      -7.6      0.624      1.138
REMARK  Name = 
REMARK  12 active torsions:
REMARK  status: ('A' for Active; 'I' for Inactive)
REMARK    1  A    between atoms: C_1  and  N_2
REMARK    2  A    between atoms: N_2  and  C_3
REMARK    3  A    between atoms: N_2  and  C_4
REMARK    4  A    between atoms: C_4  and  C_5
REMARK    5  A    between atoms: C_5  and  O_6
REMARK    6  A    between atoms: O_6  and  C_7
REMARK    7  A    between atoms: C_10  and  N_11
REMARK    8  A    between atoms: C_12  and  C_14
REMARK    9  A    between atoms: C_16  and  N_17
REMARK   10  A    between atoms: N_17  and  C_18
REMARK   11  A    between atoms: N_17  and  C_19
REMARK   12  A    between atoms: C_19  and  C_20
REMARK                            x       y       z     vdW  Elec       q    Type
REMARK                         _______ _______ _______ _____ _____    ______ ____
ROOT
ATOM      1  N   UNL     1       9.007   9.037  18.990  0.00  0.00    +0.000 N 
ATOM      2  C   UNL     1       8.074   8.610  18.042  0.00  0.00    +0.000 C 
ATOM      3  O   UNL     1       7.533   9.300  17.184  0.00  0.00    +0.000 OA
ATOM      4  H   UNL     1       9.371   8.368  19.653  0.00  0.00    +0.000 HD
ENDROOT
BRANCH   1   8
ATOM      5  C   UNL     1      10.315  13.041  19.502  0.00  0.00    +0.000 A 
ATOM      6  C   UNL     1       9.737  12.332  20.557  0.00  0.00    +0.000 A 
ATOM      7  C   UNL     1       9.299  11.027  20.391  0.00  0.00    +0.000 A 
ATOM      8  C   UNL     1       9.429  10.375  19.170  0.00  0.00    +0.000 A 
ATOM      9  C   UNL     1      10.016  11.069  18.103  0.00  0.00    +0.000 A 
ATOM     10  C   UNL     1      10.453  12.399  18.270  0.00  0.00    +0.000 A 
BRANCH   5  11
ATOM     11  O   UNL     1      10.761  14.342  19.606  0.00  0.00    +0.000 OA
BRANCH  11  12
ATOM     12  C   UNL     1       9.689  15.292  19.714  0.00  0.00    +0.000 C 
BRANCH  12  13
ATOM     13  C   UNL     1       8.979  15.563  18.385  0.00  0.00    +0.000 C 
BRANCH  13  15
ATOM     14  C   UNL     1       9.281  17.912  18.860  0.00  0.00    +0.000 C 
ATOM     15  N   UNL     1       9.328  16.890  17.819  0.00  0.00    +0.000 NA
ATOM     16  C   UNL     1      10.642  16.903  17.167  0.00  0.00    +0.000 C 
ENDBRANCH  13  15
ENDBRANCH  12  13
ENDBRANCH  11  12
ENDBRANCH   5  11
ENDBRANCH   1   8
BRANCH   2  17
ATOM     17  C   UNL     1       7.696   7.176  18.086  0.00  0.00    +0.000 A 
ATOM     18  C   UNL     1       6.792   6.660  17.184  0.00  0.00    +0.000 A 
ATOM     19  C   UNL     1       6.516   5.316  17.290  0.00  0.00    +0.000 A 
ATOM     20  N   UNL     1       7.120   4.581  18.243  0.00  0.00    +0.000 NA
ATOM     21  C   UNL     1       7.930   5.189  19.115  0.00  0.00    +0.000 A 
ATOM     22  N   UNL     1       8.270   6.468  19.078  0.00  0.00    +0.000 NA
BRANCH  19  23
ATOM     23  N   UNL     1       5.641   4.678  16.438  0.00  0.00    +0.000 N 
ATOM     24  C   UNL     1       5.845   4.612  15.002  0.00  0.00    +0.000 C 
BRANCH  23  25
ATOM     25  C   UNL     1       4.531   3.927  17.024  0.00  0.00    +0.000 C 
BRANCH  25  26
ATOM     26  C   UNL     1       3.737   4.718  18.040  0.00  0.00    +0.000 A 
ATOM     27  C   UNL     1       3.222   5.986  17.727  0.00  0.00    +0.000 A 
ATOM     28  C   UNL     1       2.479   6.697  18.671  0.00  0.00    +0.000 A 
ATOM     29  C   UNL     1       2.256   6.150  19.929  0.00  0.00    +0.000 A 
ATOM     30  F   UNL     1       1.549   6.841  20.833  0.00  0.00    +0.000 F 
ATOM     31  C   UNL     1       2.752   4.899  20.262  0.00  0.00    +0.000 A 
ATOM     32  C   UNL     1       3.482   4.182  19.316  0.00  0.00    +0.000 A 
ENDBRANCH  25  26
ENDBRANCH  23  25
ENDBRANCH  19  23
ENDBRANCH   2  17
TORSDOF 9
ENDMDL
MODEL 5
REMARK VINA RESULT:      -7.5      2.095      2.891
REMARK  Name = 
REMARK  12 active torsions:
REMARK  status: ('A' for Active; 'I' for Inactive)
REMARK    1  A    between atoms: C_1  and  N_2
REMARK    2  A    between atoms: N_2  and  C_3
REMARK    3  A    between atoms: N_2  and  C_4
REMARK    4  A    between atoms: C_4  and  C_5
REMARK    5  A    between atoms: C_5  and  O_6
REMARK    6  A    between atoms: O_6  and  C_7
REMARK    7  A    between atoms: C_10  and  N_11
REMARK    8  A    between atoms: C_12  and  C_14
REMARK    9  A    between atoms: C_16  and  N_17
REMARK   10  A    between atoms: N_17  and  C_18
REMARK   11  A    between atoms: N_17  and  C_19
REMARK   12  A    between atoms: C_19  and  C_20
REMARK                            x       y       z     vdW  Elec       q    Type
REMARK                         _______ _______ _______ _____ _____    ______ ____
ROOT
ATOM      1  N   UNL     1       7.582   8.635  17.426  0.00  0.00    +0.000 N 
ATOM      2  C   UNL     1       7.691   7.314  17.867  0.00  0.00    +0.000 C 
ATOM      3  O   UNL     1       8.328   6.916  18.837  0.00  0.00    +0.000 OA
ATOM      4  H   UNL     1       7.033   8.830  16.600  0.00  0.00    +0.000 HD
ENDROOT
BRANCH   1   8
ATOM      5  C   UNL     1       9.640  11.965  19.062  0.00  0.00    +0.000 A 
ATOM      6  C   UNL     1       9.744  10.698  19.641  0.00  0.00    +0.000 A 
ATOM      7  C   UNL     1       9.065   9.610  19.116  0.00  0.00    +0.000 A 
ATOM      8  C   UNL     1       8.264   9.739  17.987  0.00  0.00    +0.000 A 
ATOM      9  C   UNL     1       8.156  11.002  17.388  0.00  0.00    +0.000 A 
ATOM     10  C   UNL     1       8.840  12.110  17.928  0.00  0.00    +0.000 A 
BRANCH   5  11
ATOM     11  O   UNL     1      10.285  13.084  19.545  0.00  0.00    +0.000 OA
BRANCH  11  12
ATOM     12  C   UNL     1       9.436  14.243  19.585  0.00  0.00    +0.000 C 
BRANCH  12  13
ATOM     13  C   UNL     1       8.579  14.328  20.850  0.00  0.00    +0.000 C 
BRANCH  13  15
ATOM     14  C   UNL     1       9.868  15.329  22.630  0.00  0.00    +0.000 C 
ATOM     15  N   UNL     1       9.365  14.073  22.083  0.00  0.00    +0.000 NA
ATOM     16  C   UNL     1       8.601  13.352  23.107  0.00  0.00    +0.000 C 
ENDBRANCH  13  15
ENDBRANCH  12  13
ENDBRANCH  11  12
ENDBRANCH   5  11
ENDBRANCH   1   8
BRANCH   2  17
ATOM     17  C   UNL     1       6.968   6.290  17.074  0.00  0.00    +0.000 A 
ATOM     18  C   UNL     1       5.836   5.684  17.574  0.00  0.00    +0.000 A 
ATOM     19  C   UNL     1       5.222   4.760  16.761  0.00  0.00    +0.000 A 
ATOM     20  N   UNL     1       5.737   4.489  15.547  0.00  0.00    +0.000 NA
ATOM     21  C   UNL     1       6.880   5.079  15.180  0.00  0.00    +0.000 A 
ATOM     22  N   UNL     1       7.526   5.994  15.885  0.00  0.00    +0.000 NA
BRANCH  19  23
ATOM     23  N   UNL     1       4.075   4.097  17.141  0.00  0.00    +0.000 N 
ATOM     24  C   UNL     1       3.950   2.651  17.100  0.00  0.00    +0.000 C 
BRANCH  23  25
ATOM     25  C   UNL     1       2.989   4.879  17.731  0.00  0.00    +0.000 C 
BRANCH  25  26
ATOM     26  C   UNL     1       2.401   4.252  18.976  0.00  0.00    +0.000 A 
ATOM     27  C   UNL     1       3.015   4.415  20.227  0.00  0.00    +0.000 A 
ATOM     28  C   UNL     1       2.451   3.842  21.369  0.00  0.00    +0.000 A 
ATOM     29  C   UNL     1       1.282   3.098  21.263  0.00  0.00    +0.000 A 
ATOM     30  F   UNL     1       0.750   2.545  22.360  0.00  0.00    +0.000 F 
ATOM     31  C   UNL     1       0.656   2.923  20.038  0.00  0.00    +0.000 A 
ATOM     32  C   UNL     1       1.210   3.507  18.900  0.00  0.00    +0.000 A 
ENDBRANCH  25  26
ENDBRANCH  23  25
ENDBRANCH  19  23
ENDBRANCH   2  17
TORSDOF 9
ENDMDL
MODEL 6
REMARK VINA RESULT:      -7.5      1.026      1.412
REMARK  Name = 
REMARK  12 active torsions:
REMARK  status: ('A' for Active; 'I' for Inactive)
REMARK    1  A    between atoms: C_1  and  N_2
REMARK    2  A    between atoms: N_2  and  C_3
REMARK    3  A    between atoms: N_2  and  C_4
REMARK    4  A    between atoms: C_4  and  C_5
REMARK    5  A    between atoms: C_5  and  O_6
REMARK    6  A    between atoms: O_6  and  C_7
REMARK    7  A    between atoms: C_10  and  N_11
REMARK    8  A    between atoms: C_12  and  C_14
REMARK    9  A    between atoms: C_16  and  N_17
REMARK   10  A    between atoms: N_17  and  C_18
REMARK   11  A    between atoms: N_17  and  C_19
REMARK   12  A    between atoms: C_19  and  C_20
REMARK                            x       y       z     vdW  Elec       q    Type
REMARK                         _______ _______ _______ _____ _____    ______ ____
ROOT
ATOM      1  N   UNL     1       9.021   9.074  19.024  0.00  0.00    +0.000 N 
ATOM      2  C   UNL     1       8.085   8.645  18.080  0.00  0.00    +0.000 C 
ATOM      3  O   UNL     1       7.536   9.334  17.226  0.00  0.00    +0.000 OA
ATOM      4  H   UNL     1       9.391   8.405  19.683  0.00  0.00    +0.000 HD
ENDROOT
BRANCH   1   8
ATOM      5  C   UNL     1      10.307  13.084  19.539  0.00  0.00    +0.000 A 
ATOM      6  C   UNL     1       9.805  12.346  20.612  0.00  0.00    +0.000 A 
ATOM      7  C   UNL     1       9.374  11.039  20.446  0.00  0.00    +0.000 A 
ATOM      8  C   UNL     1       9.435  10.414  19.206  0.00  0.00    +0.000 A 
ATOM      9  C   UNL     1       9.946  11.138  18.120  0.00  0.00    +0.000 A 
ATOM     10  C   UNL     1      10.376  12.470  18.287  0.00  0.00    +0.000 A 
BRANCH   5  11
ATOM     11  O   UNL     1      10.742  14.389  19.643  0.00  0.00    +0.000 OA
BRANCH  11  12
ATOM     12  C   UNL     1      10.237  15.230  18.593  0.00  0.00    +0.000 C 
BRANCH  12  13
ATOM     13  C   UNL     1       8.973  16.000  18.983  0.00  0.00    +0.000 C 
BRANCH  13  15
ATOM     14  C   UNL     1       9.737  18.278  19.232  0.00  0.00    +0.000 C 
ATOM     15  N   UNL     1       9.254  17.097  19.942  0.00  0.00    +0.000 NA
ATOM     16  C   UNL     1       8.090  17.450  20.762  0.00  0.00    +0.000 C 
ENDBRANCH  13  15
ENDBRANCH  12  13
ENDBRANCH  11  12
ENDBRANCH   5  11
ENDBRANCH   1   8
BRANCH   2  17
ATOM     17  C   UNL     1       7.715   7.208  18.121  0.00  0.00    +0.000 A 
ATOM     18  C   UNL     1       6.813   6.689  17.219  0.00  0.00    +0.000 A 
ATOM     19  C   UNL     1       6.545   5.343  17.322  0.00  0.00    +0.000 A 
ATOM     20  N   UNL     1       7.154   4.610  18.273  0.00  0.00    +0.000 NA
ATOM     21  C   UNL     1       7.961   5.221  19.146  0.00  0.00    +0.000 A 
ATOM     22  N   UNL     1       8.294   6.502  19.111  0.00  0.00    +0.000 NA
BRANCH  19  23
ATOM     23  N   UNL     1       5.672   4.702  16.469  0.00  0.00    +0.000 N 
ATOM     24  C   UNL     1       5.444   5.135  15.103  0.00  0.00    +0.000 C 
BRANCH  23  25
ATOM     25  C   UNL     1       5.052   3.458  16.925  0.00  0.00    +0.000 C 
BRANCH  25  26
ATOM     26  C   UNL     1       3.847   3.673  17.813  0.00  0.00    +0.000 A 
ATOM     27  C   UNL     1       2.620   4.093  17.277  0.00  0.00    +0.000 A 
ATOM     28  C   UNL     1       1.512   4.273  18.107  0.00  0.00    +0.000 A 
ATOM     29  C   UNL     1       1.630   4.046  19.473  0.00  0.00    +0.000 A 
ATOM     30  F   UNL     1       0.566   4.228  20.267  0.00  0.00    +0.000 F 
ATOM     31  C   UNL     1       2.831   3.630  20.028  0.00  0.00    +0.000 A 
ATOM     32  C   UNL     1       3.933   3.435  19.197  0.00  0.00    +0.000 A 
ENDBRANCH  25  26
ENDBRANCH  23  25
ENDBRANCH  19  23
ENDBRANCH   2  17
TORSDOF 9
ENDMDL
MODEL 7
REMARK VINA RESULT:      -7.4      0.958      1.427
REMARK  Name = 
REMARK  12 active torsions:
REMARK  status: ('A' for Active; 'I' for Inactive)
REMARK    1  A    between atoms: C_1  and  N_2
REMARK    2  A    between atoms: N_2  and  C_3
REMARK    3  A    between atoms: N_2  and  C_4
REMARK    4  A    between atoms: C_4  and  C_5
REMARK    5  A    between atoms: C_5  and  O_6
REMARK    6  A    between atoms: O_6  and  C_7
REMARK    7  A    between atoms: C_10  and  N_11
REMARK    8  A    between atoms: C_12  and  C_14
REMARK    9  A    between atoms: C_16  and  N_17
REMARK   10  A    between atoms: N_17  and  C_18
REMARK   11  A    between atoms: N_17  and  C_19
REMARK   12  A    between atoms: C_19  and  C_20
REMARK                            x       y       z     vdW  Elec       q    Type
REMARK                         _______ _______ _______ _____ _____    ______ ____
ROOT
ATOM      1  N   UNL     1       9.075   9.145  19.048  0.00  0.00    +0.000 N 
ATOM      2  C   UNL     1       8.143   8.698  18.109  0.00  0.00    +0.000 C 
ATOM      3  O   UNL     1       7.616   9.366  17.224  0.00  0.00    +0.000 OA
ATOM      4  H   UNL     1       9.425   8.492  19.736  0.00  0.00    +0.000 HD
ENDROOT
BRANCH   1   8
ATOM      5  C   UNL     1      10.340  13.169  19.497  0.00  0.00    +0.000 A 
ATOM      6  C   UNL     1      10.509  12.492  18.288  0.00  0.00    +0.000 A 
ATOM      7  C   UNL     1      10.106  11.174  18.140  0.00  0.00    +0.000 A 
ATOM      8  C   UNL     1       9.511  10.482  19.189  0.00  0.00    +0.000 A 
ATOM      9  C   UNL     1       9.326  11.150  20.407  0.00  0.00    +0.000 A 
ATOM     10  C   UNL     1       9.743  12.488  20.559  0.00  0.00    +0.000 A 
BRANCH   5  11
ATOM     11  O   UNL     1      10.728  14.477  19.705  0.00  0.00    +0.000 OA
BRANCH  11  12
ATOM     12  C   UNL     1      10.291  15.360  18.659  0.00  0.00    +0.000 C 
BRANCH  12  13
ATOM     13  C   UNL     1       8.772  15.545  18.612  0.00  0.00    +0.000 C 
BRANCH  13  15
ATOM     14  C   UNL     1       8.312  17.073  20.426  0.00  0.00    +0.000 C 
ATOM     15  N   UNL     1       8.361  16.924  18.975  0.00  0.00    +0.000 NA
ATOM     16  C   UNL     1       9.236  17.950  18.397  0.00  0.00    +0.000 C 
ENDBRANCH  13  15
ENDBRANCH  12  13
ENDBRANCH  11  12
ENDBRANCH   5  11
ENDBRANCH   1   8
BRANCH   2  17
ATOM     17  C   UNL     1       7.747   7.271  18.196  0.00  0.00    +0.000 A 
ATOM     18  C   UNL     1       6.817   6.745  17.327  0.00  0.00    +0.000 A 
ATOM     19  C   UNL     1       6.526   5.408  17.471  0.00  0.00    +0.000 A 
ATOM     20  N   UNL     1       7.140   4.688  18.430  0.00  0.00    +0.000 NA
ATOM     21  C   UNL     1       7.976   5.307  19.269  0.00  0.00    +0.000 A 
ATOM     22  N   UNL     1       8.332   6.580  19.193  0.00  0.00    +0.000 NA
BRANCH  19  23
ATOM     23  N   UNL     1       5.624   4.761  16.653  0.00  0.00    +0.000 N 
ATOM     24  C   UNL     1       6.017   3.743  15.697  0.00  0.00    +0.000 C 
BRANCH  23  25
ATOM     25  C   UNL     1       4.200   5.023  16.856  0.00  0.00    +0.000 C 
BRANCH  25  26
ATOM     26  C   UNL     1       3.670   4.501  18.173  0.00  0.00    +0.000 A 
ATOM     27  C   UNL     1       3.704   3.131  18.474  0.00  0.00    +0.000 A 
ATOM     28  C   UNL     1       3.225   2.666  19.700  0.00  0.00    +0.000 A 
ATOM     29  C   UNL     1       2.704   3.565  20.623  0.00  0.00    +0.000 A 
ATOM     30  F   UNL     1       2.239   3.114  21.795  0.00  0.00    +0.000 F 
ATOM     31  C   UNL     1       2.661   4.924  20.351  0.00  0.00    +0.000 A 
ATOM     32  C   UNL     1       3.152   5.390  19.132  0.00  0.00    +0.000 A 
ENDBRANCH  25  26
ENDBRANCH  23  25
ENDBRANCH  19  23
ENDBRANCH   2  17
TORSDOF 9
ENDMDL
MODEL 8
REMARK VINA RESULT:      -7.4      5.804      7.653
REMARK  Name = 
REMARK  12 active torsions:
REMARK  status: ('A' for Active; 'I' for Inactive)
REMARK    1  A    between atoms: C_1  and  N_2
REMARK    2  A    between atoms: N_2  and  C_3
REMARK    3  A    between atoms: N_2  and  C_4
REMARK    4  A    between atoms: C_4  and  C_5
REMARK    5  A    between atoms: C_5  and  O_6
REMARK    6  A    between atoms: O_6  and  C_7
REMARK    7  A    between atoms: C_10  and  N_11
REMARK    8  A    between atoms: C_12  and  C_14
REMARK    9  A    between atoms: C_16  and  N_17
REMARK   10  A    between atoms: N_17  and  C_18
REMARK   11  A    between atoms: N_17  and  C_19
REMARK   12  A    between atoms: C_19  and  C_20
REMARK                            x       y       z     vdW  Elec       q    Type
REMARK                         _______ _______ _______ _____ _____    ______ ____
ROOT
ATOM      1  N   UNL     1       2.327   7.385  20.153  0.00  0.00    +0.000 N 
ATOM      2  C   UNL     1       2.114   6.006  20.223  0.00  0.00    +0.000 C 
ATOM      3  O   UNL     1       1.104   5.441  20.633  0.00  0.00    +0.000 OA
ATOM      4  H   UNL     1       3.212   7.724  19.805  0.00  0.00    +0.000 HD
ENDROOT
BRANCH   1   8
ATOM      5  C   UNL     1      -0.343  10.378  21.536  0.00  0.00    +0.000 A 
ATOM      6  C   UNL     1       0.352   9.564  22.433  0.00  0.00    +0.000 A 
ATOM      7  C   UNL     1       1.218   8.578  21.985  0.00  0.00    +0.000 A 
ATOM      8  C   UNL     1       1.431   8.371  20.627  0.00  0.00    +0.000 A 
ATOM      9  C   UNL     1       0.749   9.187  19.713  0.00  0.00    +0.000 A 
ATOM     10  C   UNL     1      -0.138  10.184  20.169  0.00  0.00    +0.000 A 
BRANCH   5  11
ATOM     11  O   UNL     1      -1.222  11.369  21.923  0.00  0.00    +0.000 OA
BRANCH  11  12
ATOM     12  C   UNL     1      -1.140  12.540  21.095  0.00  0.00    +0.000 C 
BRANCH  12  13
ATOM     13  C   UNL     1      -0.093  13.551  21.570  0.00  0.00    +0.000 C 
BRANCH  13  15
ATOM     14  C   UNL     1       2.068  13.176  20.559  0.00  0.00    +0.000 C 
ATOM     15  N   UNL     1       0.835  13.954  20.484  0.00  0.00    +0.000 NA
ATOM     16  C   UNL     1       0.242  13.821  19.149  0.00  0.00    +0.000 C 
ENDBRANCH  13  15
ENDBRANCH  12  13
ENDBRANCH  11  12
ENDBRANCH   5  11
ENDBRANCH   1   8
BRANCH   2  17
ATOM     17  C   UNL     1       3.225   5.140  19.760  0.00  0.00    +0.000 A 
ATOM     18  C   UNL     1       4.203   5.637  18.926  0.00  0.00    +0.000 A 
ATOM     19  C   UNL     1       5.203   4.766  18.562  0.00  0.00    +0.000 A 
ATOM     20  N   UNL     1       5.187   3.499  19.019  0.00  0.00    +0.000 NA
ATOM     21  C   UNL     1       4.157   3.093  19.767  0.00  0.00    +0.000 A 
ATOM     22  N   UNL     1       3.164   3.863  20.184  0.00  0.00    +0.000 NA
BRANCH  19  23
ATOM     23  N   UNL     1       6.246   5.146  17.745  0.00  0.00    +0.000 N 
ATOM     24  C   UNL     1       7.604   4.668  17.925  0.00  0.00    +0.000 C 
BRANCH  23  25
ATOM     25  C   UNL     1       5.939   5.962  16.570  0.00  0.00    +0.000 C 
BRANCH  25  26
ATOM     26  C   UNL     1       6.184   5.249  15.259  0.00  0.00    +0.000 A 
ATOM     27  C   UNL     1       7.314   5.540  14.478  0.00  0.00    +0.000 A 
ATOM     28  C   UNL     1       7.534   4.863  13.277  0.00  0.00    +0.000 A 
ATOM     29  C   UNL     1       6.624   3.905  12.848  0.00  0.00    +0.000 A 
ATOM     30  F   UNL     1       6.836   3.264  11.691  0.00  0.00    +0.000 F 
ATOM     31  C   UNL     1       5.501   3.598  13.601  0.00  0.00    +0.000 A 
ATOM     32  C   UNL     1       5.288   4.263  14.808  0.00  0.00    +0.000 A 
ENDBRANCH  25  26
ENDBRANCH  23  25
ENDBRANCH  19  23
ENDBRANCH   2  17
TORSDOF 9
ENDMDL
MODEL 9
REMARK VINA RESULT:      -7.3      1.706      2.423
REMARK  Name = 
REMARK  12 active torsions:
REMARK  status: ('A' for Active; 'I' for Inactive)
REMARK    1  A    between atoms: C_1  and  N_2
REMARK    2  A    between atoms: N_2  and  C_3
REMARK    3  A    between atoms: N_2  and  C_4
REMARK    4  A    between atoms: C_4  and  C_5
REMARK    5  A    between atoms: C_5  and  O_6
REMARK    6  A    between atoms: O_6  and  C_7
REMARK    7  A    between atoms: C_10  and  N_11
REMARK    8  A    between atoms: C_12  and  C_14
REMARK    9  A    between atoms: C_16  and  N_17
REMARK   10  A    between atoms: N_17  and  C_18
REMARK   11  A    between atoms: N_17  and  C_19
REMARK   12  A    between atoms: C_19  and  C_20
REMARK                            x       y       z     vdW  Elec       q    Type
REMARK                         _______ _______ _______ _____ _____    ______ ____
ROOT
ATOM      1  N   UNL     1       7.538   8.468  17.517  0.00  0.00    +0.000 N 
ATOM      2  C   UNL     1       7.686   7.168  18.006  0.00  0.00    +0.000 C 
ATOM      3  O   UNL     1       8.373   6.817  18.960  0.00  0.00    +0.000 OA
ATOM      4  H   UNL     1       6.947   8.622  16.712  0.00  0.00    +0.000 HD
ENDROOT
BRANCH   1   8
ATOM      5  C   UNL     1       9.629  11.885  18.913  0.00  0.00    +0.000 A 
ATOM      6  C   UNL     1       9.790  10.642  19.528  0.00  0.00    +0.000 A 
ATOM      7  C   UNL     1       9.101   9.525  19.081  0.00  0.00    +0.000 A 
ATOM      8  C   UNL     1       8.232   9.602  17.999  0.00  0.00    +0.000 A 
ATOM      9  C   UNL     1       8.066  10.840  17.364  0.00  0.00    +0.000 A 
ATOM     10  C   UNL     1       8.760  11.978  17.824  0.00  0.00    +0.000 A 
BRANCH   5  11
ATOM     11  O   UNL     1      10.281  13.031  19.319  0.00  0.00    +0.000 OA
BRANCH  11  12
ATOM     12  C   UNL     1       9.703  14.226  18.767  0.00  0.00    +0.000 C 
BRANCH  12  13
ATOM     13  C   UNL     1      10.738  15.296  18.411  0.00  0.00    +0.000 C 
BRANCH  13  15
ATOM     14  C   UNL     1      10.115  16.522  20.397  0.00  0.00    +0.000 C 
ATOM     15  N   UNL     1      10.388  16.626  18.967  0.00  0.00    +0.000 NA
ATOM     16  C   UNL     1      11.427  17.634  18.729  0.00  0.00    +0.000 C 
ENDBRANCH  13  15
ENDBRANCH  12  13
ENDBRANCH  11  12
ENDBRANCH   5  11
ENDBRANCH   1   8
BRANCH   2  17
ATOM     17  C   UNL     1       6.938   6.103  17.293  0.00  0.00    +0.000 A 
ATOM     18  C   UNL     1       5.868   5.475  17.890  0.00  0.00    +0.000 A 
ATOM     19  C   UNL     1       5.224   4.513  17.146  0.00  0.00    +0.000 A 
ATOM     20  N   UNL     1       5.655   4.230  15.901  0.00  0.00    +0.000 NA
ATOM     21  C   UNL     1       6.746   4.846  15.437  0.00  0.00    +0.000 A 
ATOM     22  N   UNL     1       7.414   5.797  16.071  0.00  0.00    +0.000 NA
BRANCH  19  23
ATOM     23  N   UNL     1       4.131   3.824  17.625  0.00  0.00    +0.000 N 
ATOM     24  C   UNL     1       4.248   2.614  18.417  0.00  0.00    +0.000 C 
BRANCH  23  25
ATOM     25  C   UNL     1       2.806   4.414  17.436  0.00  0.00    +0.000 C 
BRANCH  25  26
ATOM     26  C   UNL     1       2.465   5.473  18.460  0.00  0.00    +0.000 A 
ATOM     27  C   UNL     1       2.534   6.838  18.139  0.00  0.00    +0.000 A 
ATOM     28  C   UNL     1       2.201   7.804  19.091  0.00  0.00    +0.000 A 
ATOM     29  C   UNL     1       1.810   7.411  20.365  0.00  0.00    +0.000 A 
ATOM     30  F   UNL     1       1.499   8.342  21.277  0.00  0.00    +0.000 F 
ATOM     31  C   UNL     1       1.733   6.069  20.707  0.00  0.00    +0.000 A 
ATOM     32  C   UNL     1       2.050   5.104  19.753  0.00  0.00    +0.000 A 
ENDBRANCH  25  26
ENDBRANCH  23  25
ENDBRANCH  19  23
ENDBRANCH   2  17
TORSDOF 9
ENDMDL
