MODEL 1
REMARK VINA RESULT:      -6.7      0.000      0.000
REMARK  Name = 
REMARK  7 active torsions:
REMARK  status: ('A' for Active; 'I' for Inactive)
REMARK    1  A    between atoms: C_1  and  C_2
REMARK    2  A    between atoms: C_2  and  C_3
REMARK    3  A    between atoms: C_2  and  N_4
REMARK    4  A    between atoms: N_4  and  C_5
REMARK    5  A    between atoms: N_4  and  C_6
REMARK    6  A    between atoms: C_6  and  C_7
REMARK    7  A    between atoms: C_10  and  C_11
REMARK                            x       y       z     vdW  Elec       q    Type
REMARK                         _______ _______ _______ _____ _____    ______ ____
ROOT
ATOM      1  C   UNL     1       4.330   6.404  17.161  0.00  0.00    +0.000 A 
ATOM      2  C   UNL     1       3.363   7.212  17.716  0.00  0.00    +0.000 A 
ATOM      3  O   UNL     1       2.723   6.518  18.691  0.00  0.00    +0.000 OA
ATOM      4  C   UNL     1       3.321   5.285  18.672  0.00  0.00    +0.000 A 
ATOM      5  N   UNL     1       4.292   5.178  17.789  0.00  0.00    +0.000 NA
ENDROOT
BRANCH   4   6
ATOM      6  C   UNL     1       2.719   4.274  19.533  0.00  0.00    +0.000 A 
ATOM      7  C   UNL     1       2.594   4.538  20.913  0.00  0.00    +0.000 A 
ATOM      8  C   UNL     1       1.928   3.655  21.760  0.00  0.00    +0.000 A 
ATOM      9  C   UNL     1       1.378   2.484  21.246  0.00  0.00    +0.000 A 
ATOM     10  C   UNL     1       1.518   2.192  19.891  0.00  0.00    +0.000 A 
ATOM     11  C   UNL     1       2.187   3.074  19.036  0.00  0.00    +0.000 A 
ATOM     12 CL   UNL     1       2.345   2.585  17.382  0.00  0.00    +0.000 Cl
ENDBRANCH   4   6
BRANCH   1  13
ATOM     13  C   UNL     1       5.276   6.653  16.026  0.00  0.00    +0.000 C 
BRANCH  13  14
ATOM     14  N   UNL     1       6.711   6.571  16.380  0.00  0.00    +0.000 NA
ATOM     15  C   UNL     1       7.217   5.224  16.100  0.00  0.00    +0.000 C 
BRANCH  14  17
ATOM     16  C   UNL     1       7.770   6.033  18.594  0.00  0.00    +0.000 C 
ATOM     17  C   UNL     1       7.068   7.082  17.720  0.00  0.00    +0.000 C 
ATOM     18  C   UNL     1       7.991   8.313  17.643  0.00  0.00    +0.000 C 
ENDBRANCH  14  17
ENDBRANCH  13  14
ENDBRANCH   1  13
TORSDOF 4
ENDMDL
MODEL 2
REMARK VINA RESULT:      -6.7      1.891      2.807
REMARK  Name = 
REMARK  7 active torsions:
REMARK  status: ('A' for Active; 'I' for Inactive)
REMARK    1  A    between atoms: C_1  and  C_2
REMARK    2  A    between atoms: C_2  and  C_3
REMARK    3  A    between atoms: C_2  and  N_4
REMARK    4  A    between atoms: N_4  and  C_5
REMARK    5  A    between atoms: N_4  and  C_6
REMARK    6  A    between atoms: C_6  and  C_7
REMARK    7  A    between atoms: C_10  and  C_11
REMARK                            x       y       z     vdW  Elec       q    Type
REMARK                         _______ _______ _______ _____ _____    ______ ____
ROOT
ATOM      1  C   UNL     1       6.521   4.706  17.974  0.00  0.00    +0.000 A 
ATOM      2  C   UNL     1       6.513   5.490  19.105  0.00  0.00    +0.000 A 
ATOM      3  O   UNL     1       5.385   5.225  19.811  0.00  0.00    +0.000 OA
ATOM      4  C   UNL     1       4.728   4.291  19.054  0.00  0.00    +0.000 A 
ATOM      5  N   UNL     1       5.374   3.942  17.961  0.00  0.00    +0.000 NA
ENDROOT
BRANCH   4   6
ATOM      6  C   UNL     1       3.391   3.929  19.509  0.00  0.00    +0.000 A 
ATOM      7  C   UNL     1       2.625   4.886  20.208  0.00  0.00    +0.000 A 
ATOM      8  C   UNL     1       1.304   4.630  20.568  0.00  0.00    +0.000 A 
ATOM      9  C   UNL     1       0.721   3.409  20.241  0.00  0.00    +0.000 A 
ATOM     10  C   UNL     1       1.471   2.441  19.578  0.00  0.00    +0.000 A 
ATOM     11  C   UNL     1       2.800   2.691  19.216  0.00  0.00    +0.000 A 
ATOM     12 CL   UNL     1       3.651   1.397  18.440  0.00  0.00    +0.000 Cl
ENDBRANCH   4   6
BRANCH   1  13
ATOM     13  C   UNL     1       7.496   4.641  16.838  0.00  0.00    +0.000 C 
BRANCH  13  14
ATOM     14  N   UNL     1       7.069   5.345  15.608  0.00  0.00    +0.000 NA
ATOM     15  C   UNL     1       5.864   6.134  15.879  0.00  0.00    +0.000 C 
BRANCH  14  17
ATOM     16  C   UNL     1       5.537   4.155  14.012  0.00  0.00    +0.000 C 
ATOM     17  C   UNL     1       6.981   4.509  14.393  0.00  0.00    +0.000 C 
ATOM     18  C   UNL     1       7.628   5.191  13.172  0.00  0.00    +0.000 C 
ENDBRANCH  14  17
ENDBRANCH  13  14
ENDBRANCH   1  13
TORSDOF 4
ENDMDL
MODEL 3
REMARK VINA RESULT:      -6.6      2.335      6.041
REMARK  Name = 
REMARK  7 active torsions:
REMARK  status: ('A' for Active; 'I' for Inactive)
REMARK    1  A    between atoms: C_1  and  C_2
REMARK    2  A    between atoms: C_2  and  C_3
REMARK    3  A    between atoms: C_2  and  N_4
REMARK    4  A    between atoms: N_4  and  C_5
REMARK    5  A    between atoms: N_4  and  C_6
REMARK    6  A    between atoms: C_6  and  C_7
REMARK    7  A    between atoms: C_10  and  C_11
REMARK                            x       y       z     vdW  Elec       q    Type
REMARK                         _______ _______ _______ _____ _____    ______ ____
ROOT
ATOM      1  C   UNL     1       3.680   2.896  18.356  0.00  0.00    +0.000 A 
ATOM      2  C   UNL     1       4.184   2.755  17.082  0.00  0.00    +0.000 A 
ATOM      3  O   UNL     1       5.191   3.648  16.910  0.00  0.00    +0.000 OA
ATOM      4  C   UNL     1       5.245   4.325  18.101  0.00  0.00    +0.000 A 
ATOM      5  N   UNL     1       4.375   3.901  18.994  0.00  0.00    +0.000 NA
ENDROOT
BRANCH   4   6
ATOM      6  C   UNL     1       6.156   5.462  18.145  0.00  0.00    +0.000 A 
ATOM      7  C   UNL     1       7.186   5.475  19.108  0.00  0.00    +0.000 A 
ATOM      8  C   UNL     1       8.149   6.482  19.122  0.00  0.00    +0.000 A 
ATOM      9  C   UNL     1       8.100   7.501  18.176  0.00  0.00    +0.000 A 
ATOM     10  C   UNL     1       7.072   7.522  17.235  0.00  0.00    +0.000 A 
ATOM     11  C   UNL     1       6.100   6.514  17.218  0.00  0.00    +0.000 A 
ATOM     12 CL   UNL     1       4.843   6.669  16.037  0.00  0.00    +0.000 Cl
ENDBRANCH   4   6
BRANCH   1  13
ATOM     13  C   UNL     1       2.540   2.203  19.037  0.00  0.00    +0.000 C 
BRANCH  13  14
ATOM     14  N   UNL     1       1.302   3.006  19.153  0.00  0.00    +0.000 NA
ATOM     15  C   UNL     1       1.235   3.980  18.060  0.00  0.00    +0.000 C 
BRANCH  14  17
ATOM     16  C   UNL     1       1.768   2.836  21.615  0.00  0.00    +0.000 C 
ATOM     17  C   UNL     1       1.037   3.580  20.489  0.00  0.00    +0.000 C 
ATOM     18  C   UNL     1       1.444   5.063  20.573  0.00  0.00    +0.000 C 
ENDBRANCH  14  17
ENDBRANCH  13  14
ENDBRANCH   1  13
TORSDOF 4
ENDMDL
MODEL 4
REMARK VINA RESULT:      -6.6      1.445      1.843
REMARK  Name = 
REMARK  7 active torsions:
REMARK  status: ('A' for Active; 'I' for Inactive)
REMARK    1  A    between atoms: C_1  and  C_2
REMARK    2  A    between atoms: C_2  and  C_3
REMARK    3  A    between atoms: C_2  and  N_4
REMARK    4  A    between atoms: N_4  and  C_5
REMARK    5  A    between atoms: N_4  and  C_6
REMARK    6  A    between atoms: C_6  and  C_7
REMARK    7  A    between atoms: C_10  and  C_11
REMARK                            x       y       z     vdW  Elec       q    Type
REMARK                         _______ _______ _______ _____ _____    ______ ____
ROOT
ATOM      1  C   UNL     1       4.530   6.465  16.794  0.00  0.00    +0.000 A 
ATOM      2  C   UNL     1       3.625   7.395  17.255  0.00  0.00    +0.000 A 
ATOM      3  O   UNL     1       2.710   6.763  18.033  0.00  0.00    +0.000 OA
ATOM      4  C   UNL     1       3.087   5.446  17.992  0.00  0.00    +0.000 A 
ATOM      5  N   UNL     1       4.173   5.225  17.280  0.00  0.00    +0.000 NA
ENDROOT
BRANCH   4   6
ATOM      6  C   UNL     1       2.178   4.504  18.633  0.00  0.00    +0.000 A 
ATOM      7  C   UNL     1       1.875   3.293  17.975  0.00  0.00    +0.000 A 
ATOM      8  C   UNL     1       1.101   2.311  18.591  0.00  0.00    +0.000 A 
ATOM      9  C   UNL     1       0.609   2.521  19.876  0.00  0.00    +0.000 A 
ATOM     10  C   UNL     1       0.873   3.723  20.529  0.00  0.00    +0.000 A 
ATOM     11  C   UNL     1       1.647   4.714  19.915  0.00  0.00    +0.000 A 
ATOM     12 CL   UNL     1       1.869   6.187  20.799  0.00  0.00    +0.000 Cl
ENDBRANCH   4   6
BRANCH   1  13
ATOM     13  C   UNL     1       5.696   6.615  15.866  0.00  0.00    +0.000 C 
BRANCH  13  14
ATOM     14  N   UNL     1       7.020   6.373  16.483  0.00  0.00    +0.000 NA
ATOM     15  C   UNL     1       7.357   4.949  16.395  0.00  0.00    +0.000 C 
BRANCH  14  17
ATOM     16  C   UNL     1       7.892   5.990  18.807  0.00  0.00    +0.000 C 
ATOM     17  C   UNL     1       7.214   6.957  17.826  0.00  0.00    +0.000 C 
ATOM     18  C   UNL     1       8.063   8.242  17.782  0.00  0.00    +0.000 C 
ENDBRANCH  14  17
ENDBRANCH  13  14
ENDBRANCH   1  13
TORSDOF 4
ENDMDL
MODEL 5
REMARK VINA RESULT:      -6.5      1.711      2.578
REMARK  Name = 
REMARK  7 active torsions:
REMARK  status: ('A' for Active; 'I' for Inactive)
REMARK    1  A    between atoms: C_1  and  C_2
REMARK    2  A    between atoms: C_2  and  C_3
REMARK    3  A    between atoms: C_2  and  N_4
REMARK    4  A    between atoms: N_4  and  C_5
REMARK    5  A    between atoms: N_4  and  C_6
REMARK    6  A    between atoms: C_6  and  C_7
REMARK    7  A    between atoms: C_10  and  C_11
REMARK                            x       y       z     vdW  Elec       q    Type
REMARK                         _______ _______ _______ _____ _____    ______ ____
ROOT
ATOM      1  C   UNL     1       6.536   4.625  18.160  0.00  0.00    +0.000 A 
ATOM      2  C   UNL     1       6.495   5.388  19.306  0.00  0.00    +0.000 A 
ATOM      3  O   UNL     1       5.337   5.125  19.964  0.00  0.00    +0.000 OA
ATOM      4  C   UNL     1       4.698   4.214  19.164  0.00  0.00    +0.000 A 
ATOM      5  N   UNL     1       5.380   3.876  18.090  0.00  0.00    +0.000 NA
ENDROOT
BRANCH   4   6
ATOM      6  C   UNL     1       3.340   3.861  19.562  0.00  0.00    +0.000 A 
ATOM      7  C   UNL     1       2.561   4.813  20.251  0.00  0.00    +0.000 A 
ATOM      8  C   UNL     1       1.224   4.568  20.556  0.00  0.00    +0.000 A 
ATOM      9  C   UNL     1       0.638   3.362  20.183  0.00  0.00    +0.000 A 
ATOM     10  C   UNL     1       1.401   2.397  19.528  0.00  0.00    +0.000 A 
ATOM     11  C   UNL     1       2.745   2.636  19.221  0.00  0.00    +0.000 A 
ATOM     12 CL   UNL     1       3.608   1.347  18.452  0.00  0.00    +0.000 Cl
ENDBRANCH   4   6
BRANCH   1  13
ATOM     13  C   UNL     1       7.552   4.569  17.061  0.00  0.00    +0.000 C 
BRANCH  13  14
ATOM     14  N   UNL     1       7.469   5.672  16.078  0.00  0.00    +0.000 NA
ATOM     15  C   UNL     1       7.306   6.951  16.776  0.00  0.00    +0.000 C 
BRANCH  14  17
ATOM     16  C   UNL     1       6.319   3.984  14.617  0.00  0.00    +0.000 C 
ATOM     17  C   UNL     1       6.517   5.466  14.967  0.00  0.00    +0.000 C 
ATOM     18  C   UNL     1       5.129   6.058  15.275  0.00  0.00    +0.000 C 
ENDBRANCH  14  17
ENDBRANCH  13  14
ENDBRANCH   1  13
TORSDOF 4
ENDMDL
MODEL 6
REMARK VINA RESULT:      -6.5      2.098      3.119
REMARK  Name = 
REMARK  7 active torsions:
REMARK  status: ('A' for Active; 'I' for Inactive)
REMARK    1  A    between atoms: C_1  and  C_2
REMARK    2  A    between atoms: C_2  and  C_3
REMARK    3  A    between atoms: C_2  and  N_4
REMARK    4  A    between atoms: N_4  and  C_5
REMARK    5  A    between atoms: N_4  and  C_6
REMARK    6  A    between atoms: C_6  and  C_7
REMARK    7  A    between atoms: C_10  and  C_11
REMARK                            x       y       z     vdW  Elec       q    Type
REMARK                         _______ _______ _______ _____ _____    ______ ____
ROOT
ATOM      1  C   UNL     1       6.593   4.751  17.962  0.00  0.00    +0.000 A 
ATOM      2  C   UNL     1       6.661   5.544  19.086  0.00  0.00    +0.000 A 
ATOM      3  O   UNL     1       5.556   5.323  19.843  0.00  0.00    +0.000 OA
ATOM      4  C   UNL     1       4.835   4.406  19.123  0.00  0.00    +0.000 A 
ATOM      5  N   UNL     1       5.421   4.026  18.006  0.00  0.00    +0.000 NA
ENDROOT
BRANCH   4   6
ATOM      6  C   UNL     1       3.508   4.093  19.639  0.00  0.00    +0.000 A 
ATOM      7  C   UNL     1       3.223   2.769  20.032  0.00  0.00    +0.000 A 
ATOM      8  C   UNL     1       2.010   2.440  20.634  0.00  0.00    +0.000 A 
ATOM      9  C   UNL     1       1.053   3.427  20.851  0.00  0.00    +0.000 A 
ATOM     10  C   UNL     1       1.305   4.735  20.441  0.00  0.00    +0.000 A 
ATOM     11  C   UNL     1       2.521   5.071  19.834  0.00  0.00    +0.000 A 
ATOM     12 CL   UNL     1       2.705   6.715  19.321  0.00  0.00    +0.000 Cl
ENDBRANCH   4   6
BRANCH   1  13
ATOM     13  C   UNL     1       7.514   4.644  16.786  0.00  0.00    +0.000 C 
BRANCH  13  14
ATOM     14  N   UNL     1       7.052   5.342  15.565  0.00  0.00    +0.000 NA
ATOM     15  C   UNL     1       5.838   6.109  15.860  0.00  0.00    +0.000 C 
BRANCH  14  17
ATOM     16  C   UNL     1       5.508   4.186  13.956  0.00  0.00    +0.000 C 
ATOM     17  C   UNL     1       6.957   4.506  14.351  0.00  0.00    +0.000 C 
ATOM     18  C   UNL     1       7.631   5.171  13.136  0.00  0.00    +0.000 C 
ENDBRANCH  14  17
ENDBRANCH  13  14
ENDBRANCH   1  13
TORSDOF 4
ENDMDL
MODEL 7
REMARK VINA RESULT:      -6.5      1.895      2.927
REMARK  Name = 
REMARK  7 active torsions:
REMARK  status: ('A' for Active; 'I' for Inactive)
REMARK    1  A    between atoms: C_1  and  C_2
REMARK    2  A    between atoms: C_2  and  C_3
REMARK    3  A    between atoms: C_2  and  N_4
REMARK    4  A    between atoms: N_4  and  C_5
REMARK    5  A    between atoms: N_4  and  C_6
REMARK    6  A    between atoms: C_6  and  C_7
REMARK    7  A    between atoms: C_10  and  C_11
REMARK                            x       y       z     vdW  Elec       q    Type
REMARK                         _______ _______ _______ _____ _____    ______ ____
ROOT
ATOM      1  C   UNL     1       6.286   4.703  17.767  0.00  0.00    +0.000 A 
ATOM      2  C   UNL     1       6.414   5.444  18.921  0.00  0.00    +0.000 A 
ATOM      3  O   UNL     1       5.407   5.111  19.767  0.00  0.00    +0.000 OA
ATOM      4  C   UNL     1       4.678   4.182  19.070  0.00  0.00    +0.000 A 
ATOM      5  N   UNL     1       5.173   3.898  17.884  0.00  0.00    +0.000 NA
ENDROOT
BRANCH   4   6
ATOM      6  C   UNL     1       3.431   3.754  19.694  0.00  0.00    +0.000 A 
ATOM      7  C   UNL     1       3.484   2.840  20.766  0.00  0.00    +0.000 A 
ATOM      8  C   UNL     1       2.333   2.483  21.468  0.00  0.00    +0.000 A 
ATOM      9  C   UNL     1       1.105   3.031  21.109  0.00  0.00    +0.000 A 
ATOM     10  C   UNL     1       1.030   3.913  20.033  0.00  0.00    +0.000 A 
ATOM     11  C   UNL     1       2.181   4.272  19.323  0.00  0.00    +0.000 A 
ATOM     12 CL   UNL     1       1.962   5.336  17.974  0.00  0.00    +0.000 Cl
ENDBRANCH   4   6
BRANCH   1  13
ATOM     13  C   UNL     1       7.091   4.717  16.504  0.00  0.00    +0.000 C 
BRANCH  13  14
ATOM     14  N   UNL     1       6.600   5.646  15.461  0.00  0.00    +0.000 NA
ATOM     15  C   UNL     1       5.377   6.311  15.922  0.00  0.00    +0.000 C 
BRANCH  14  17
ATOM     16  C   UNL     1       7.818   5.184  13.314  0.00  0.00    +0.000 C 
ATOM     17  C   UNL     1       6.503   5.082  14.099  0.00  0.00    +0.000 C 
ATOM     18  C   UNL     1       6.087   3.599  14.114  0.00  0.00    +0.000 C 
ENDBRANCH  14  17
ENDBRANCH  13  14
ENDBRANCH   1  13
TORSDOF 4
ENDMDL
MODEL 8
REMARK VINA RESULT:      -6.4      2.755      3.781
REMARK  Name = 
REMARK  7 active torsions:
REMARK  status: ('A' for Active; 'I' for Inactive)
REMARK    1  A    between atoms: C_1  and  C_2
REMARK    2  A    between atoms: C_2  and  C_3
REMARK    3  A    between atoms: C_2  and  N_4
REMARK    4  A    between atoms: N_4  and  C_5
REMARK    5  A    between atoms: N_4  and  C_6
REMARK    6  A    between atoms: C_6  and  C_7
REMARK    7  A    between atoms: C_10  and  C_11
REMARK                            x       y       z     vdW  Elec       q    Type
REMARK                         _______ _______ _______ _____ _____    ______ ____
ROOT
ATOM      1  C   UNL     1       5.172   4.306  16.154  0.00  0.00    +0.000 A 
ATOM      2  C   UNL     1       6.166   4.484  17.090  0.00  0.00    +0.000 A 
ATOM      3  O   UNL     1       5.647   4.260  18.324  0.00  0.00    +0.000 OA
ATOM      4  C   UNL     1       4.328   3.974  18.086  0.00  0.00    +0.000 A 
ATOM      5  N   UNL     1       4.005   3.975  16.809  0.00  0.00    +0.000 NA
ENDROOT
BRANCH   4   6
ATOM      6  C   UNL     1       3.484   3.835  19.266  0.00  0.00    +0.000 A 
ATOM      7  C   UNL     1       3.525   2.628  19.995  0.00  0.00    +0.000 A 
ATOM      8  C   UNL     1       2.823   2.483  21.191  0.00  0.00    +0.000 A 
ATOM      9  C   UNL     1       2.061   3.540  21.680  0.00  0.00    +0.000 A 
ATOM     10  C   UNL     1       1.985   4.730  20.957  0.00  0.00    +0.000 A 
ATOM     11  C   UNL     1       2.686   4.880  19.755  0.00  0.00    +0.000 A 
ATOM     12 CL   UNL     1       2.477   6.381  18.917  0.00  0.00    +0.000 Cl
ENDBRANCH   4   6
BRANCH   1  13
ATOM     13  C   UNL     1       5.192   4.479  14.666  0.00  0.00    +0.000 C 
BRANCH  13  14
ATOM     14  N   UNL     1       6.424   4.003  13.998  0.00  0.00    +0.000 NA
ATOM     15  C   UNL     1       7.420   5.078  13.967  0.00  0.00    +0.000 C 
BRANCH  14  17
ATOM     16  C   UNL     1       4.795   3.472  12.162  0.00  0.00    +0.000 C 
ATOM     17  C   UNL     1       6.226   3.326  12.700  0.00  0.00    +0.000 C 
ATOM     18  C   UNL     1       7.184   3.858  11.617  0.00  0.00    +0.000 C 
ENDBRANCH  14  17
ENDBRANCH  13  14
ENDBRANCH   1  13
TORSDOF 4
ENDMDL
MODEL 9
REMARK VINA RESULT:      -6.4      2.507      3.504
REMARK  Name = 
REMARK  7 active torsions:
REMARK  status: ('A' for Active; 'I' for Inactive)
REMARK    1  A    between atoms: C_1  and  C_2
REMARK    2  A    between atoms: C_2  and  C_3
REMARK    3  A    between atoms: C_2  and  N_4
REMARK    4  A    between atoms: N_4  and  C_5
REMARK    5  A    between atoms: N_4  and  C_6
REMARK    6  A    between atoms: C_6  and  C_7
REMARK    7  A    between atoms: C_10  and  C_11
REMARK                            x       y       z     vdW  Elec       q    Type
REMARK                         _______ _______ _______ _____ _____    ______ ____
ROOT
ATOM      1  C   UNL     1       5.414   4.651  16.184  0.00  0.00    +0.000 A 
ATOM      2  C   UNL     1       6.350   4.684  17.194  0.00  0.00    +0.000 A 
ATOM      3  O   UNL     1       5.742   4.350  18.361  0.00  0.00    +0.000 OA
ATOM      4  C   UNL     1       4.432   4.149  18.012  0.00  0.00    +0.000 A 
ATOM      5  N   UNL     1       4.195   4.302  16.725  0.00  0.00    +0.000 NA
ENDROOT
BRANCH   4   6
ATOM      6  C   UNL     1       3.508   3.920  19.115  0.00  0.00    +0.000 A 
ATOM      7  C   UNL     1       3.065   5.023  19.876  0.00  0.00    +0.000 A 
ATOM      8  C   UNL     1       2.098   4.874  20.868  0.00  0.00    +0.000 A 
ATOM      9  C   UNL     1       1.557   3.618  21.125  0.00  0.00    +0.000 A 
ATOM     10  C   UNL     1       2.003   2.512  20.403  0.00  0.00    +0.000 A 
ATOM     11  C   UNL     1       2.976   2.655  19.407  0.00  0.00    +0.000 A 
ATOM     12 CL   UNL     1       3.491   1.206  18.611  0.00  0.00    +0.000 Cl
ENDBRANCH   4   6
BRANCH   1  13
ATOM     13  C   UNL     1       5.538   4.982  14.728  0.00  0.00    +0.000 C 
BRANCH  13  14
ATOM     14  N   UNL     1       6.642   4.293  14.023  0.00  0.00    +0.000 NA
ATOM     15  C   UNL     1       7.700   5.253  13.696  0.00  0.00    +0.000 C 
BRANCH  14  17
ATOM     16  C   UNL     1       4.775   3.641  12.475  0.00  0.00    +0.000 C 
ATOM     17  C   UNL     1       6.237   3.432  12.892  0.00  0.00    +0.000 C 
ATOM     18  C   UNL     1       7.112   3.664  11.646  0.00  0.00    +0.000 C 
ENDBRANCH  14  17
ENDBRANCH  13  14
ENDBRANCH   1  13
TORSDOF 4
ENDMDL
