MODEL 1
REMARK VINA RESULT:      -6.9      0.000      0.000
REMARK  Name = 
REMARK  10 active torsions:
REMARK  status: ('A' for Active; 'I' for Inactive)
REMARK    1  A    between atoms: C_2  and  O_3
REMARK    2  A    between atoms: C_2  and  C_4
REMARK    3  A    between atoms: C_7  and  O_8
REMARK    4  A    between atoms: O_8  and  C_9
REMARK    5  A    between atoms: C_9  and  C_10
REMARK    6  A    between atoms: C_10  and  C_11
REMARK    7  A    between atoms: C_10  and  O_16
REMARK    8  A    between atoms: C_11  and  O_12
REMARK    9  A    between atoms: O_12  and  N_13
REMARK   10  A    between atoms: O_16  and  N_17
REMARK                            x       y       z     vdW  Elec       q    Type
REMARK                         _______ _______ _______ _____ _____    ______ ____
ROOT
ATOM      1  O   UNL     1       4.012   7.069  17.531  0.00  0.00    +0.000 OA
ENDROOT
BRANCH   1   5
ATOM      2  C   UNL     1       1.621   4.048  19.162  0.00  0.00    +0.000 A 
ATOM      3  C   UNL     1       2.302   3.794  17.968  0.00  0.00    +0.000 A 
ATOM      4  C   UNL     1       3.100   4.783  17.399  0.00  0.00    +0.000 A 
ATOM      5  C   UNL     1       3.237   6.036  18.010  0.00  0.00    +0.000 A 
ATOM      6  C   UNL     1       2.558   6.286  19.206  0.00  0.00    +0.000 A 
ATOM      7  C   UNL     1       1.757   5.294  19.788  0.00  0.00    +0.000 A 
BRANCH   2   9
ATOM      8  O   UNL     1       0.193   2.155  19.050  0.00  0.00    +0.000 OA
ATOM      9  C   UNL     1       0.820   2.942  19.737  0.00  0.00    +0.000 C 
BRANCH   9  10
ATOM     10  O   UNL     1       0.805   2.925  21.086  0.00  0.00    +0.000 OA
ATOM     11  H   UNL     1      -0.083   2.990  21.481  0.00  0.00    +0.000 HD
ENDBRANCH   9  10
ENDBRANCH   2   9
ENDBRANCH   1   5
BRANCH   1  12
ATOM     12  C   UNL     1       5.014   6.650  16.608  0.00  0.00    +0.000 C 
BRANCH  12  13
ATOM     13  C   UNL     1       6.326   6.220  17.278  0.00  0.00    +0.000 C 
BRANCH  13  14
ATOM     14  C   UNL     1       6.705   4.806  16.811  0.00  0.00    +0.000 C 
BRANCH  14  15
ATOM     15  O   UNL     1       7.735   4.907  15.826  0.00  0.00    +0.000 OA
BRANCH  15  16
ATOM     16  N   UNL     1       7.232   4.796  14.504  0.00  0.00    +0.000 N 
ATOM     17  O   UNL     1       6.322   3.986  14.315  0.00  0.00    +0.000 OA
ATOM     18  O   UNL     1       7.794   5.552  13.716  0.00  0.00    +0.000 OA
ENDBRANCH  15  16
ENDBRANCH  14  15
ENDBRANCH  13  14
BRANCH  13  19
ATOM     19  O   UNL     1       7.370   7.105  16.833  0.00  0.00    +0.000 OA
BRANCH  19  20
ATOM     20  N   UNL     1       7.919   7.896  17.874  0.00  0.00    +0.000 N 
ATOM     21  O   UNL     1       7.894   9.117  17.719  0.00  0.00    +0.000 OA
ATOM     22  O   UNL     1       8.390   7.222  18.785  0.00  0.00    +0.000 OA
ENDBRANCH  19  20
ENDBRANCH  13  19
ENDBRANCH  12  13
ENDBRANCH   1  12
TORSDOF 10
ENDMDL
MODEL 2
REMARK VINA RESULT:      -6.8      1.482      1.995
REMARK  Name = 
REMARK  10 active torsions:
REMARK  status: ('A' for Active; 'I' for Inactive)
REMARK    1  A    between atoms: C_2  and  O_3
REMARK    2  A    between atoms: C_2  and  C_4
REMARK    3  A    between atoms: C_7  and  O_8
REMARK    4  A    between atoms: O_8  and  C_9
REMARK    5  A    between atoms: C_9  and  C_10
REMARK    6  A    between atoms: C_10  and  C_11
REMARK    7  A    between atoms: C_10  and  O_16
REMARK    8  A    between atoms: C_11  and  O_12
REMARK    9  A    between atoms: O_12  and  N_13
REMARK   10  A    between atoms: O_16  and  N_17
REMARK                            x       y       z     vdW  Elec       q    Type
REMARK                         _______ _______ _______ _____ _____    ______ ____
ROOT
ATOM      1  O   UNL     1       4.433   6.789  17.737  0.00  0.00    +0.000 OA
ENDROOT
BRANCH   1   5
ATOM      2  C   UNL     1       1.901   4.078  19.671  0.00  0.00    +0.000 A 
ATOM      3  C   UNL     1       1.573   4.499  18.380  0.00  0.00    +0.000 A 
ATOM      4  C   UNL     1       2.394   5.405  17.714  0.00  0.00    +0.000 A 
ATOM      5  C   UNL     1       3.555   5.903  18.320  0.00  0.00    +0.000 A 
ATOM      6  C   UNL     1       3.883   5.478  19.611  0.00  0.00    +0.000 A 
ATOM      7  C   UNL     1       3.064   4.561  20.285  0.00  0.00    +0.000 A 
BRANCH   2   9
ATOM      8  O   UNL     1       1.108   2.765  21.483  0.00  0.00    +0.000 OA
ATOM      9  C   UNL     1       1.009   3.083  20.310  0.00  0.00    +0.000 C 
BRANCH   9  10
ATOM     10  O   UNL     1       0.120   2.525  19.463  0.00  0.00    +0.000 OA
ATOM     11  H   UNL     1       0.358   2.599  18.521  0.00  0.00    +0.000 HD
ENDBRANCH   9  10
ENDBRANCH   2   9
ENDBRANCH   1   5
BRANCH   1  12
ATOM     12  C   UNL     1       4.915   6.362  16.465  0.00  0.00    +0.000 C 
BRANCH  12  13
ATOM     13  C   UNL     1       5.969   5.249  16.550  0.00  0.00    +0.000 C 
BRANCH  13  14
ATOM     14  C   UNL     1       6.374   4.814  15.132  0.00  0.00    +0.000 C 
BRANCH  14  15
ATOM     15  O   UNL     1       7.598   5.464  14.784  0.00  0.00    +0.000 OA
BRANCH  15  16
ATOM     16  N   UNL     1       7.900   5.342  13.403  0.00  0.00    +0.000 N 
ATOM     17  O   UNL     1       8.861   5.986  12.979  0.00  0.00    +0.000 OA
ATOM     18  O   UNL     1       7.135   4.583  12.813  0.00  0.00    +0.000 OA
ENDBRANCH  15  16
ENDBRANCH  14  15
ENDBRANCH  13  14
BRANCH  13  19
ATOM     19  O   UNL     1       7.146   5.791  17.177  0.00  0.00    +0.000 OA
BRANCH  19  20
ATOM     20  N   UNL     1       7.696   4.940  18.170  0.00  0.00    +0.000 N 
ATOM     21  O   UNL     1       8.470   4.064  17.786  0.00  0.00    +0.000 OA
ATOM     22  O   UNL     1       7.270   5.185  19.295  0.00  0.00    +0.000 OA
ENDBRANCH  19  20
ENDBRANCH  13  19
ENDBRANCH  12  13
ENDBRANCH   1  12
TORSDOF 10
ENDMDL
MODEL 3
REMARK VINA RESULT:      -6.7      1.235      3.164
REMARK  Name = 
REMARK  10 active torsions:
REMARK  status: ('A' for Active; 'I' for Inactive)
REMARK    1  A    between atoms: C_2  and  O_3
REMARK    2  A    between atoms: C_2  and  C_4
REMARK    3  A    between atoms: C_7  and  O_8
REMARK    4  A    between atoms: O_8  and  C_9
REMARK    5  A    between atoms: C_9  and  C_10
REMARK    6  A    between atoms: C_10  and  C_11
REMARK    7  A    between atoms: C_10  and  O_16
REMARK    8  A    between atoms: C_11  and  O_12
REMARK    9  A    between atoms: O_12  and  N_13
REMARK   10  A    between atoms: O_16  and  N_17
REMARK                            x       y       z     vdW  Elec       q    Type
REMARK                         _______ _______ _______ _____ _____    ______ ____
ROOT
ATOM      1  O   UNL     1       4.364   6.931  17.633  0.00  0.00    +0.000 OA
ENDROOT
BRANCH   1   5
ATOM      2  C   UNL     1       1.743   4.012  19.087  0.00  0.00    +0.000 A 
ATOM      3  C   UNL     1       2.379   3.793  17.861  0.00  0.00    +0.000 A 
ATOM      4  C   UNL     1       3.252   4.750  17.350  0.00  0.00    +0.000 A 
ATOM      5  C   UNL     1       3.509   5.935  18.051  0.00  0.00    +0.000 A 
ATOM      6  C   UNL     1       2.875   6.150  19.278  0.00  0.00    +0.000 A 
ATOM      7  C   UNL     1       1.999   5.189  19.802  0.00  0.00    +0.000 A 
BRANCH   2   9
ATOM      8  O   UNL     1       0.280   2.156  18.860  0.00  0.00    +0.000 OA
ATOM      9  C   UNL     1       0.857   2.939  19.595  0.00  0.00    +0.000 C 
BRANCH   9  10
ATOM     10  O   UNL     1       0.707   2.946  20.936  0.00  0.00    +0.000 OA
ATOM     11  H   UNL     1       1.170   2.224  21.399  0.00  0.00    +0.000 HD
ENDBRANCH   9  10
ENDBRANCH   2   9
ENDBRANCH   1   5
BRANCH   1  12
ATOM     12  C   UNL     1       4.968   6.671  16.368  0.00  0.00    +0.000 C 
BRANCH  12  13
ATOM     13  C   UNL     1       6.489   6.477  16.442  0.00  0.00    +0.000 C 
BRANCH  13  14
ATOM     14  C   UNL     1       6.992   6.875  17.839  0.00  0.00    +0.000 C 
BRANCH  14  15
ATOM     15  O   UNL     1       7.961   5.916  18.268  0.00  0.00    +0.000 OA
BRANCH  15  16
ATOM     16  N   UNL     1       7.680   5.407  19.562  0.00  0.00    +0.000 N 
ATOM     17  O   UNL     1       8.644   5.107  20.270  0.00  0.00    +0.000 OA
ATOM     18  O   UNL     1       6.476   5.340  19.796  0.00  0.00    +0.000 OA
ENDBRANCH  15  16
ENDBRANCH  14  15
ENDBRANCH  13  14
BRANCH  13  19
ATOM     19  O   UNL     1       6.773   5.076  16.274  0.00  0.00    +0.000 OA
BRANCH  19  20
ATOM     20  N   UNL     1       6.999   4.706  14.924  0.00  0.00    +0.000 N 
ATOM     21  O   UNL     1       6.390   3.721  14.507  0.00  0.00    +0.000 OA
ATOM     22  O   UNL     1       7.826   5.421  14.368  0.00  0.00    +0.000 OA
ENDBRANCH  19  20
ENDBRANCH  13  19
ENDBRANCH  12  13
ENDBRANCH   1  12
TORSDOF 10
ENDMDL
MODEL 4
REMARK VINA RESULT:      -6.7      1.521      3.768
REMARK  Name = 
REMARK  10 active torsions:
REMARK  status: ('A' for Active; 'I' for Inactive)
REMARK    1  A    between atoms: C_2  and  O_3
REMARK    2  A    between atoms: C_2  and  C_4
REMARK    3  A    between atoms: C_7  and  O_8
REMARK    4  A    between atoms: O_8  and  C_9
REMARK    5  A    between atoms: C_9  and  C_10
REMARK    6  A    between atoms: C_10  and  C_11
REMARK    7  A    between atoms: C_10  and  O_16
REMARK    8  A    between atoms: C_11  and  O_12
REMARK    9  A    between atoms: O_12  and  N_13
REMARK   10  A    between atoms: O_16  and  N_17
REMARK                            x       y       z     vdW  Elec       q    Type
REMARK                         _______ _______ _______ _____ _____    ______ ____
ROOT
ATOM      1  O   UNL     1       5.132   3.430  16.596  0.00  0.00    +0.000 OA
ENDROOT
BRANCH   1   5
ATOM      2  C   UNL     1       2.561   2.953  19.861  0.00  0.00    +0.000 A 
ATOM      3  C   UNL     1       3.260   4.155  19.728  0.00  0.00    +0.000 A 
ATOM      4  C   UNL     1       4.128   4.340  18.655  0.00  0.00    +0.000 A 
ATOM      5  C   UNL     1       4.309   3.334  17.696  0.00  0.00    +0.000 A 
ATOM      6  C   UNL     1       3.605   2.134  17.830  0.00  0.00    +0.000 A 
ATOM      7  C   UNL     1       2.726   1.943  18.905  0.00  0.00    +0.000 A 
BRANCH   2   9
ATOM      8  O   UNL     1       1.957   2.383  22.086  0.00  0.00    +0.000 OA
ATOM      9  C   UNL     1       1.624   2.833  21.002  0.00  0.00    +0.000 C 
BRANCH   9  10
ATOM     10  O   UNL     1       0.362   3.212  20.714  0.00  0.00    +0.000 OA
ATOM     11  H   UNL     1       0.294   4.056  20.231  0.00  0.00    +0.000 HD
ENDBRANCH   9  10
ENDBRANCH   2   9
ENDBRANCH   1   5
BRANCH   1  12
ATOM     12  C   UNL     1       6.270   4.263  16.806  0.00  0.00    +0.000 C 
BRANCH  12  13
ATOM     13  C   UNL     1       6.311   5.489  15.883  0.00  0.00    +0.000 C 
BRANCH  13  14
ATOM     14  C   UNL     1       6.301   6.772  16.730  0.00  0.00    +0.000 C 
BRANCH  14  15
ATOM     15  O   UNL     1       7.600   7.366  16.681  0.00  0.00    +0.000 OA
BRANCH  15  16
ATOM     16  N   UNL     1       8.010   7.875  17.940  0.00  0.00    +0.000 N 
ATOM     17  O   UNL     1       8.092   9.100  18.052  0.00  0.00    +0.000 OA
ATOM     18  O   UNL     1       8.227   6.990  18.764  0.00  0.00    +0.000 OA
ENDBRANCH  15  16
ENDBRANCH  14  15
ENDBRANCH  13  14
BRANCH  13  19
ATOM     19  O   UNL     1       7.557   5.469  15.163  0.00  0.00    +0.000 OA
BRANCH  19  20
ATOM     20  N   UNL     1       7.412   5.112  13.798  0.00  0.00    +0.000 N 
ATOM     21  O   UNL     1       8.114   5.715  12.987  0.00  0.00    +0.000 OA
ATOM     22  O   UNL     1       6.548   4.258  13.620  0.00  0.00    +0.000 OA
ENDBRANCH  19  20
ENDBRANCH  13  19
ENDBRANCH  12  13
ENDBRANCH   1  12
TORSDOF 10
ENDMDL
MODEL 5
REMARK VINA RESULT:      -6.6      1.818      2.515
REMARK  Name = 
REMARK  10 active torsions:
REMARK  status: ('A' for Active; 'I' for Inactive)
REMARK    1  A    between atoms: C_2  and  O_3
REMARK    2  A    between atoms: C_2  and  C_4
REMARK    3  A    between atoms: C_7  and  O_8
REMARK    4  A    between atoms: O_8  and  C_9
REMARK    5  A    between atoms: C_9  and  C_10
REMARK    6  A    between atoms: C_10  and  C_11
REMARK    7  A    between atoms: C_10  and  O_16
REMARK    8  A    between atoms: C_11  and  O_12
REMARK    9  A    between atoms: O_12  and  N_13
REMARK   10  A    between atoms: O_16  and  N_17
REMARK                            x       y       z     vdW  Elec       q    Type
REMARK                         _______ _______ _______ _____ _____    ______ ____
ROOT
ATOM      1  O   UNL     1       4.749   4.987  16.563  0.00  0.00    +0.000 OA
ENDROOT
BRANCH   1   5
ATOM      2  C   UNL     1       2.069   3.516  19.419  0.00  0.00    +0.000 A 
ATOM      3  C   UNL     1       2.047   4.880  19.119  0.00  0.00    +0.000 A 
ATOM      4  C   UNL     1       2.933   5.399  18.176  0.00  0.00    +0.000 A 
ATOM      5  C   UNL     1       3.847   4.569  17.517  0.00  0.00    +0.000 A 
ATOM      6  C   UNL     1       3.864   3.203  17.816  0.00  0.00    +0.000 A 
ATOM      7  C   UNL     1       2.973   2.673  18.759  0.00  0.00    +0.000 A 
BRANCH   2   9
ATOM      8  O   UNL     1       1.293   2.988  21.599  0.00  0.00    +0.000 OA
ATOM      9  C   UNL     1       1.076   3.019  20.400  0.00  0.00    +0.000 C 
BRANCH   9  10
ATOM     10  O   UNL     1      -0.059   2.554  19.839  0.00  0.00    +0.000 OA
ATOM     11  H   UNL     1      -0.422   1.755  20.265  0.00  0.00    +0.000 HD
ENDBRANCH   9  10
ENDBRANCH   2   9
ENDBRANCH   1   5
BRANCH   1  12
ATOM     12  C   UNL     1       5.521   3.927  16.004  0.00  0.00    +0.000 C 
BRANCH  12  13
ATOM     13  C   UNL     1       6.950   4.341  15.627  0.00  0.00    +0.000 C 
BRANCH  13  14
ATOM     14  C   UNL     1       6.980   4.813  14.164  0.00  0.00    +0.000 C 
BRANCH  14  15
ATOM     15  O   UNL     1       6.009   4.073  13.422  0.00  0.00    +0.000 OA
BRANCH  15  16
ATOM     16  N   UNL     1       6.524   3.590  12.191  0.00  0.00    +0.000 N 
ATOM     17  O   UNL     1       6.027   2.556  11.740  0.00  0.00    +0.000 OA
ATOM     18  O   UNL     1       7.418   4.300  11.737  0.00  0.00    +0.000 OA
ENDBRANCH  15  16
ENDBRANCH  14  15
ENDBRANCH  13  14
BRANCH  13  19
ATOM     19  O   UNL     1       7.322   5.468  16.442  0.00  0.00    +0.000 OA
BRANCH  19  20
ATOM     20  N   UNL     1       7.682   5.110  17.766  0.00  0.00    +0.000 N 
ATOM     21  O   UNL     1       7.286   5.845  18.669  0.00  0.00    +0.000 OA
ATOM     22  O   UNL     1       8.394   4.111  17.811  0.00  0.00    +0.000 OA
ENDBRANCH  19  20
ENDBRANCH  13  19
ENDBRANCH  12  13
ENDBRANCH   1  12
TORSDOF 10
ENDMDL
MODEL 6
REMARK VINA RESULT:      -6.6      1.883      2.385
REMARK  Name = 
REMARK  10 active torsions:
REMARK  status: ('A' for Active; 'I' for Inactive)
REMARK    1  A    between atoms: C_2  and  O_3
REMARK    2  A    between atoms: C_2  and  C_4
REMARK    3  A    between atoms: C_7  and  O_8
REMARK    4  A    between atoms: O_8  and  C_9
REMARK    5  A    between atoms: C_9  and  C_10
REMARK    6  A    between atoms: C_10  and  C_11
REMARK    7  A    between atoms: C_10  and  O_16
REMARK    8  A    between atoms: C_11  and  O_12
REMARK    9  A    between atoms: O_12  and  N_13
REMARK   10  A    between atoms: O_16  and  N_17
REMARK                            x       y       z     vdW  Elec       q    Type
REMARK                         _______ _______ _______ _____ _____    ______ ____
ROOT
ATOM      1  O   UNL     1       4.505   5.009  16.368  0.00  0.00    +0.000 OA
ENDROOT
BRANCH   1   5
ATOM      2  C   UNL     1       2.420   3.905  19.823  0.00  0.00    +0.000 A 
ATOM      3  C   UNL     1       2.039   3.344  18.601  0.00  0.00    +0.000 A 
ATOM      4  C   UNL     1       2.711   3.698  17.433  0.00  0.00    +0.000 A 
ATOM      5  C   UNL     1       3.774   4.610  17.465  0.00  0.00    +0.000 A 
ATOM      6  C   UNL     1       4.156   5.166  18.689  0.00  0.00    +0.000 A 
ATOM      7  C   UNL     1       3.488   4.811  19.869  0.00  0.00    +0.000 A 
BRANCH   2   9
ATOM      8  O   UNL     1       2.190   3.474  22.146  0.00  0.00    +0.000 OA
ATOM      9  C   UNL     1       1.692   3.458  21.033  0.00  0.00    +0.000 C 
BRANCH   9  10
ATOM     10  O   UNL     1       0.456   2.982  20.781  0.00  0.00    +0.000 OA
ATOM     11  H   UNL     1      -0.114   3.587  20.271  0.00  0.00    +0.000 HD
ENDBRANCH   9  10
ENDBRANCH   2   9
ENDBRANCH   1   5
BRANCH   1  12
ATOM     12  C   UNL     1       5.432   4.027  15.912  0.00  0.00    +0.000 C 
BRANCH  12  13
ATOM     13  C   UNL     1       6.741   4.621  15.373  0.00  0.00    +0.000 C 
BRANCH  13  14
ATOM     14  C   UNL     1       6.827   4.387  13.856  0.00  0.00    +0.000 C 
BRANCH  14  15
ATOM     15  O   UNL     1       5.562   3.910  13.392  0.00  0.00    +0.000 OA
BRANCH  15  16
ATOM     16  N   UNL     1       5.656   3.277  12.126  0.00  0.00    +0.000 N 
ATOM     17  O   UNL     1       4.599   3.035  11.538  0.00  0.00    +0.000 OA
ATOM     18  O   UNL     1       6.816   3.058  11.787  0.00  0.00    +0.000 OA
ENDBRANCH  15  16
ENDBRANCH  14  15
ENDBRANCH  13  14
BRANCH  13  19
ATOM     19  O   UNL     1       6.707   6.045  15.579  0.00  0.00    +0.000 OA
BRANCH  19  20
ATOM     20  N   UNL     1       7.280   6.448  16.811  0.00  0.00    +0.000 N 
ATOM     21  O   UNL     1       7.185   7.639  17.108  0.00  0.00    +0.000 OA
ATOM     22  O   UNL     1       7.842   5.528  17.398  0.00  0.00    +0.000 OA
ENDBRANCH  19  20
ENDBRANCH  13  19
ENDBRANCH  12  13
ENDBRANCH   1  12
TORSDOF 10
ENDMDL
MODEL 7
REMARK VINA RESULT:      -6.6      3.022      6.376
REMARK  Name = 
REMARK  10 active torsions:
REMARK  status: ('A' for Active; 'I' for Inactive)
REMARK    1  A    between atoms: C_2  and  O_3
REMARK    2  A    between atoms: C_2  and  C_4
REMARK    3  A    between atoms: C_7  and  O_8
REMARK    4  A    between atoms: O_8  and  C_9
REMARK    5  A    between atoms: C_9  and  C_10
REMARK    6  A    between atoms: C_10  and  C_11
REMARK    7  A    between atoms: C_10  and  O_16
REMARK    8  A    between atoms: C_11  and  O_12
REMARK    9  A    between atoms: O_12  and  N_13
REMARK   10  A    between atoms: O_16  and  N_17
REMARK                            x       y       z     vdW  Elec       q    Type
REMARK                         _______ _______ _______ _____ _____    ______ ____
ROOT
ATOM      1  O   UNL     1       4.856   5.574  19.637  0.00  0.00    +0.000 OA
ENDROOT
BRANCH   1   5
ATOM      2  C   UNL     1       6.414   4.945  15.806  0.00  0.00    +0.000 A 
ATOM      3  C   UNL     1       7.182   4.570  16.913  0.00  0.00    +0.000 A 
ATOM      4  C   UNL     1       6.691   4.774  18.200  0.00  0.00    +0.000 A 
ATOM      5  C   UNL     1       5.430   5.347  18.406  0.00  0.00    +0.000 A 
ATOM      6  C   UNL     1       4.662   5.717  17.297  0.00  0.00    +0.000 A 
ATOM      7  C   UNL     1       5.147   5.510  15.998  0.00  0.00    +0.000 A 
BRANCH   2   9
ATOM      8  O   UNL     1       7.752   5.420  13.904  0.00  0.00    +0.000 OA
ATOM      9  C   UNL     1       6.975   4.666  14.464  0.00  0.00    +0.000 C 
BRANCH   9  10
ATOM     10  O   UNL     1       6.503   3.536  13.900  0.00  0.00    +0.000 OA
ATOM     11  H   UNL     1       6.141   3.653  13.002  0.00  0.00    +0.000 HD
ENDBRANCH   9  10
ENDBRANCH   2   9
ENDBRANCH   1   5
BRANCH   1  12
ATOM     12  C   UNL     1       3.431   5.599  19.607  0.00  0.00    +0.000 C 
BRANCH  12  13
ATOM     13  C   UNL     1       2.781   4.388  20.290  0.00  0.00    +0.000 C 
BRANCH  13  14
ATOM     14  C   UNL     1       1.331   4.237  19.801  0.00  0.00    +0.000 C 
BRANCH  14  15
ATOM     15  O   UNL     1       1.264   3.136  18.893  0.00  0.00    +0.000 OA
BRANCH  15  16
ATOM     16  N   UNL     1       1.548   3.520  17.557  0.00  0.00    +0.000 N 
ATOM     17  O   UNL     1       2.341   2.818  16.927  0.00  0.00    +0.000 OA
ATOM     18  O   UNL     1       0.937   4.528  17.212  0.00  0.00    +0.000 OA
ENDBRANCH  15  16
ENDBRANCH  14  15
ENDBRANCH  13  14
BRANCH  13  19
ATOM     19  O   UNL     1       3.490   3.205  19.879  0.00  0.00    +0.000 OA
BRANCH  19  20
ATOM     20  N   UNL     1       3.876   2.376  20.963  0.00  0.00    +0.000 N 
ATOM     21  O   UNL     1       3.091   2.292  21.907  0.00  0.00    +0.000 OA
ATOM     22  O   UNL     1       4.989   1.882  20.811  0.00  0.00    +0.000 OA
ENDBRANCH  19  20
ENDBRANCH  13  19
ENDBRANCH  12  13
ENDBRANCH   1  12
TORSDOF 10
ENDMDL
MODEL 8
REMARK VINA RESULT:      -6.5      1.149      3.480
REMARK  Name = 
REMARK  10 active torsions:
REMARK  status: ('A' for Active; 'I' for Inactive)
REMARK    1  A    between atoms: C_2  and  O_3
REMARK    2  A    between atoms: C_2  and  C_4
REMARK    3  A    between atoms: C_7  and  O_8
REMARK    4  A    between atoms: O_8  and  C_9
REMARK    5  A    between atoms: C_9  and  C_10
REMARK    6  A    between atoms: C_10  and  C_11
REMARK    7  A    between atoms: C_10  and  O_16
REMARK    8  A    between atoms: C_11  and  O_12
REMARK    9  A    between atoms: O_12  and  N_13
REMARK   10  A    between atoms: O_16  and  N_17
REMARK                            x       y       z     vdW  Elec       q    Type
REMARK                         _______ _______ _______ _____ _____    ______ ____
ROOT
ATOM      1  O   UNL     1       4.290   5.950  17.010  0.00  0.00    +0.000 OA
ENDROOT
BRANCH   1   5
ATOM      2  C   UNL     1       2.550   3.798  20.148  0.00  0.00    +0.000 A 
ATOM      3  C   UNL     1       3.202   3.094  19.132  0.00  0.00    +0.000 A 
ATOM      4  C   UNL     1       3.785   3.784  18.071  0.00  0.00    +0.000 A 
ATOM      5  C   UNL     1       3.732   5.182  18.008  0.00  0.00    +0.000 A 
ATOM      6  C   UNL     1       3.083   5.884  19.028  0.00  0.00    +0.000 A 
ATOM      7  C   UNL     1       2.499   5.197  20.102  0.00  0.00    +0.000 A 
BRANCH   2   9
ATOM      8  O   UNL     1       2.673   2.544  22.160  0.00  0.00    +0.000 OA
ATOM      9  C   UNL     1       1.985   3.010  21.268  0.00  0.00    +0.000 C 
BRANCH   9  10
ATOM     10  O   UNL     1       0.655   2.809  21.176  0.00  0.00    +0.000 OA
ATOM     11  H   UNL     1       0.224   2.565  22.016  0.00  0.00    +0.000 HD
ENDBRANCH   9  10
ENDBRANCH   2   9
ENDBRANCH   1   5
BRANCH   1  12
ATOM     12  C   UNL     1       5.069   5.200  16.081  0.00  0.00    +0.000 C 
BRANCH  12  13
ATOM     13  C   UNL     1       6.427   5.840  15.763  0.00  0.00    +0.000 C 
BRANCH  13  14
ATOM     14  C   UNL     1       7.086   6.326  17.063  0.00  0.00    +0.000 C 
BRANCH  14  15
ATOM     15  O   UNL     1       7.672   7.609  16.830  0.00  0.00    +0.000 OA
BRANCH  15  16
ATOM     16  N   UNL     1       8.149   8.210  18.024  0.00  0.00    +0.000 N 
ATOM     17  O   UNL     1       8.555   7.455  18.910  0.00  0.00    +0.000 OA
ATOM     18  O   UNL     1       8.090   9.436  17.996  0.00  0.00    +0.000 OA
ENDBRANCH  15  16
ENDBRANCH  14  15
ENDBRANCH  13  14
BRANCH  13  19
ATOM     19  O   UNL     1       7.284   4.824  15.210  0.00  0.00    +0.000 OA
BRANCH  19  20
ATOM     20  N   UNL     1       7.395   4.889  13.798  0.00  0.00    +0.000 N 
ATOM     21  O   UNL     1       6.711   4.099  13.148  0.00  0.00    +0.000 OA
ATOM     22  O   UNL     1       8.215   5.722  13.423  0.00  0.00    +0.000 OA
ENDBRANCH  19  20
ENDBRANCH  13  19
ENDBRANCH  12  13
ENDBRANCH   1  12
TORSDOF 10
ENDMDL
MODEL 9
REMARK VINA RESULT:      -6.5      1.425      3.740
REMARK  Name = 
REMARK  10 active torsions:
REMARK  status: ('A' for Active; 'I' for Inactive)
REMARK    1  A    between atoms: C_2  and  O_3
REMARK    2  A    between atoms: C_2  and  C_4
REMARK    3  A    between atoms: C_7  and  O_8
REMARK    4  A    between atoms: O_8  and  C_9
REMARK    5  A    between atoms: C_9  and  C_10
REMARK    6  A    between atoms: C_10  and  C_11
REMARK    7  A    between atoms: C_10  and  O_16
REMARK    8  A    between atoms: C_11  and  O_12
REMARK    9  A    between atoms: O_12  and  N_13
REMARK   10  A    between atoms: O_16  and  N_17
REMARK                            x       y       z     vdW  Elec       q    Type
REMARK                         _______ _______ _______ _____ _____    ______ ____
ROOT
ATOM      1  O   UNL     1       4.230   5.435  16.689  0.00  0.00    +0.000 OA
ENDROOT
BRANCH   1   5
ATOM      2  C   UNL     1       2.654   3.540  20.070  0.00  0.00    +0.000 A 
ATOM      3  C   UNL     1       2.743   4.935  20.063  0.00  0.00    +0.000 A 
ATOM      4  C   UNL     1       3.270   5.592  18.953  0.00  0.00    +0.000 A 
ATOM      5  C   UNL     1       3.709   4.874  17.834  0.00  0.00    +0.000 A 
ATOM      6  C   UNL     1       3.615   3.479  17.842  0.00  0.00    +0.000 A 
ATOM      7  C   UNL     1       3.081   2.810  18.953  0.00  0.00    +0.000 A 
BRANCH   2   9
ATOM      8  O   UNL     1       2.715   2.431  22.168  0.00  0.00    +0.000 OA
ATOM      9  C   UNL     1       2.048   2.903  21.262  0.00  0.00    +0.000 C 
BRANCH   9  10
ATOM     10  O   UNL     1       0.701   2.845  21.225  0.00  0.00    +0.000 OA
ATOM     11  H   UNL     1       0.310   2.170  21.809  0.00  0.00    +0.000 HD
ENDBRANCH   9  10
ENDBRANCH   2   9
ENDBRANCH   1   5
BRANCH   1  12
ATOM     12  C   UNL     1       4.820   4.485  15.805  0.00  0.00    +0.000 C 
BRANCH  12  13
ATOM     13  C   UNL     1       6.157   4.947  15.211  0.00  0.00    +0.000 C 
BRANCH  13  14
ATOM     14  C   UNL     1       7.183   5.142  16.340  0.00  0.00    +0.000 C 
BRANCH  14  15
ATOM     15  O   UNL     1       7.705   6.470  16.263  0.00  0.00    +0.000 OA
BRANCH  15  16
ATOM     16  N   UNL     1       7.456   7.217  17.442  0.00  0.00    +0.000 N 
ATOM     17  O   UNL     1       7.649   8.433  17.389  0.00  0.00    +0.000 OA
ATOM     18  O   UNL     1       7.067   6.519  18.375  0.00  0.00    +0.000 OA
ENDBRANCH  15  16
ENDBRANCH  14  15
ENDBRANCH  13  14
BRANCH  13  19
ATOM     19  O   UNL     1       6.659   3.899  14.362  0.00  0.00    +0.000 OA
BRANCH  19  20
ATOM     20  N   UNL     1       6.931   4.329  13.039  0.00  0.00    +0.000 N 
ATOM     21  O   UNL     1       6.494   3.631  12.124  0.00  0.00    +0.000 OA
ATOM     22  O   UNL     1       7.620   5.344  13.002  0.00  0.00    +0.000 OA
ENDBRANCH  19  20
ENDBRANCH  13  19
ENDBRANCH  12  13
ENDBRANCH   1  12
TORSDOF 10
ENDMDL
