MODEL 1
REMARK VINA RESULT:      -7.0      0.000      0.000
REMARK  Name = 
REMARK  9 active torsions:
REMARK  status: ('A' for Active; 'I' for Inactive)
REMARK    1  A    between atoms: C_1  and  O_2
REMARK    2  A    between atoms: O_2  and  C_3
REMARK    3  A    between atoms: C_3  and  C_4
REMARK    4  A    between atoms: C_4  and  N_5
REMARK    5  A    between atoms: N_5  and  C_6
REMARK    6  A    between atoms: C_6  and  C_7
REMARK    7  A    between atoms: C_7  and  O_8
REMARK    8  A    between atoms: N_12  and  C_13
REMARK    9  A    between atoms: C_13  and  C_14
REMARK                            x       y       z     vdW  Elec       q    Type
REMARK                         _______ _______ _______ _____ _____    ______ ____
ROOT
ATOM      1  C   UNL     1       2.530   3.613  20.490  0.00  0.00    +0.000 C 
ATOM      2  C   UNL     1       1.145   3.321  19.898  0.00  0.00    +0.000 C 
ATOM      3  C   UNL     1       1.074   3.543  18.396  0.00  0.00    +0.000 C 
ATOM      4  C   UNL     1       2.220   2.844  17.683  0.00  0.00    +0.000 C 
ATOM      5  N   UNL     1       3.513   3.115  18.292  0.00  0.00    +0.000 N 
ATOM      6  C   UNL     1       3.645   2.910  19.670  0.00  0.00    +0.000 C 
ATOM      7  O   UNL     1       4.635   2.393  20.179  0.00  0.00    +0.000 OA
ENDROOT
BRANCH   1   8
ATOM      8  O   UNL     1       2.463   3.216  21.861  0.00  0.00    +0.000 OA
ATOM      9  H   UNL     1       3.250   2.654  22.010  0.00  0.00    +0.000 HD
ENDBRANCH   1   8
BRANCH   1  10
ATOM     10  C   UNL     1       2.954   5.117  20.446  0.00  0.00    +0.000 C 
BRANCH  10  11
ATOM     11  N   UNL     1       1.893   6.013  20.935  0.00  0.00    +0.000 NA
ATOM     12  H   UNL     1       0.991   5.552  20.815  0.00  0.00    +0.000 HD
BRANCH  11  13
ATOM     13  C   UNL     1       1.875   7.260  20.151  0.00  0.00    +0.000 C 
BRANCH  13  14
ATOM     14  C   UNL     1       2.594   7.032  18.820  0.00  0.00    +0.000 C 
BRANCH  14  16
ATOM     15  C   UNL     1       1.575   9.126  18.567  0.00  0.00    +0.000 C 
ATOM     16  O   UNL     1       2.314   8.098  17.915  0.00  0.00    +0.000 OA
ENDBRANCH  14  16
ENDBRANCH  13  14
ENDBRANCH  11  13
ENDBRANCH  10  11
ENDBRANCH   1  10
BRANCH   5  17
ATOM     17  C   UNL     1       4.703   3.072  17.452  0.00  0.00    +0.000 C 
BRANCH  17  18
ATOM     18  C   UNL     1       5.370   4.436  17.421  0.00  0.00    +0.000 A 
ATOM     19  C   UNL     1       4.888   5.446  16.561  0.00  0.00    +0.000 A 
ATOM     20  C   UNL     1       5.519   6.692  16.506  0.00  0.00    +0.000 A 
ATOM     21  C   UNL     1       6.633   6.936  17.298  0.00  0.00    +0.000 A 
ATOM     22  F   UNL     1       7.237   8.134  17.237  0.00  0.00    +0.000 F 
ATOM     23  C   UNL     1       7.124   5.946  18.140  0.00  0.00    +0.000 A 
ATOM     24  F   UNL     1       8.207   6.179  18.896  0.00  0.00    +0.000 F 
ATOM     25  C   UNL     1       6.499   4.703  18.208  0.00  0.00    +0.000 A 
ENDBRANCH  17  18
ENDBRANCH   5  17
TORSDOF 8
ENDMDL
MODEL 2
REMARK VINA RESULT:      -6.8      2.382      4.571
REMARK  Name = 
REMARK  9 active torsions:
REMARK  status: ('A' for Active; 'I' for Inactive)
REMARK    1  A    between atoms: C_1  and  O_2
REMARK    2  A    between atoms: O_2  and  C_3
REMARK    3  A    between atoms: C_3  and  C_4
REMARK    4  A    between atoms: C_4  and  N_5
REMARK    5  A    between atoms: N_5  and  C_6
REMARK    6  A    between atoms: C_6  and  C_7
REMARK    7  A    between atoms: C_7  and  O_8
REMARK    8  A    between atoms: N_12  and  C_13
REMARK    9  A    between atoms: C_13  and  C_14
REMARK                            x       y       z     vdW  Elec       q    Type
REMARK                         _______ _______ _______ _____ _____    ______ ____
ROOT
ATOM      1  C   UNL     1       1.262   3.017  19.193  0.00  0.00    +0.000 C 
ATOM      2  C   UNL     1       0.854   3.559  20.569  0.00  0.00    +0.000 C 
ATOM      3  C   UNL     1       1.760   4.673  21.069  0.00  0.00    +0.000 C 
ATOM      4  C   UNL     1       1.952   5.743  20.005  0.00  0.00    +0.000 C 
ATOM      5  N   UNL     1       2.303   5.190  18.706  0.00  0.00    +0.000 N 
ATOM      6  C   UNL     1       1.494   4.174  18.185  0.00  0.00    +0.000 C 
ATOM      7  O   UNL     1       1.165   4.118  17.003  0.00  0.00    +0.000 OA
ENDROOT
BRANCH   1   8
ATOM      8  O   UNL     1       0.235   2.098  18.813  0.00  0.00    +0.000 OA
ATOM      9  H   UNL     1       0.363   1.312  19.381  0.00  0.00    +0.000 HD
ENDBRANCH   1   8
BRANCH   1  10
ATOM     10  C   UNL     1       2.624   2.251  19.172  0.00  0.00    +0.000 C 
BRANCH  10  11
ATOM     11  N   UNL     1       3.351   2.364  20.448  0.00  0.00    +0.000 NA
ATOM     12  H   UNL     1       3.200   3.296  20.832  0.00  0.00    +0.000 HD
BRANCH  11  13
ATOM     13  C   UNL     1       4.797   2.190  20.230  0.00  0.00    +0.000 C 
BRANCH  13  14
ATOM     14  C   UNL     1       5.225   0.814  20.747  0.00  0.00    +0.000 C 
BRANCH  14  16
ATOM     15  C   UNL     1       6.520  -0.297  22.352  0.00  0.00    +0.000 C 
ATOM     16  O   UNL     1       5.930   0.944  21.980  0.00  0.00    +0.000 OA
ENDBRANCH  14  16
ENDBRANCH  13  14
ENDBRANCH  11  13
ENDBRANCH  10  11
ENDBRANCH   1  10
BRANCH   5  17
ATOM     17  C   UNL     1       3.097   6.003  17.793  0.00  0.00    +0.000 C 
BRANCH  17  18
ATOM     18  C   UNL     1       4.521   5.479  17.730  0.00  0.00    +0.000 A 
ATOM     19  C   UNL     1       5.398   5.666  18.819  0.00  0.00    +0.000 A 
ATOM     20  C   UNL     1       6.719   5.213  18.753  0.00  0.00    +0.000 A 
ATOM     21  C   UNL     1       7.174   4.583  17.603  0.00  0.00    +0.000 A 
ATOM     22  F   UNL     1       8.445   4.154  17.544  0.00  0.00    +0.000 F 
ATOM     23  C   UNL     1       6.323   4.403  16.519  0.00  0.00    +0.000 A 
ATOM     24  F   UNL     1       6.767   3.804  15.404  0.00  0.00    +0.000 F 
ATOM     25  C   UNL     1       5.003   4.844  16.576  0.00  0.00    +0.000 A 
ENDBRANCH  17  18
ENDBRANCH   5  17
TORSDOF 8
ENDMDL
MODEL 3
REMARK VINA RESULT:      -6.8      4.339      6.686
REMARK  Name = 
REMARK  9 active torsions:
REMARK  status: ('A' for Active; 'I' for Inactive)
REMARK    1  A    between atoms: C_1  and  O_2
REMARK    2  A    between atoms: O_2  and  C_3
REMARK    3  A    between atoms: C_3  and  C_4
REMARK    4  A    between atoms: C_4  and  N_5
REMARK    5  A    between atoms: N_5  and  C_6
REMARK    6  A    between atoms: C_6  and  C_7
REMARK    7  A    between atoms: C_7  and  O_8
REMARK    8  A    between atoms: N_12  and  C_13
REMARK    9  A    between atoms: C_13  and  C_14
REMARK                            x       y       z     vdW  Elec       q    Type
REMARK                         _______ _______ _______ _____ _____    ______ ____
ROOT
ATOM      1  C   UNL     1       6.458   5.426  15.433  0.00  0.00    +0.000 C 
ATOM      2  C   UNL     1       5.752   6.788  15.426  0.00  0.00    +0.000 C 
ATOM      3  C   UNL     1       4.529   6.835  16.329  0.00  0.00    +0.000 C 
ATOM      4  C   UNL     1       4.850   6.301  17.716  0.00  0.00    +0.000 C 
ATOM      5  N   UNL     1       5.550   5.026  17.682  0.00  0.00    +0.000 N 
ATOM      6  C   UNL     1       6.694   4.928  16.883  0.00  0.00    +0.000 C 
ATOM      7  O   UNL     1       7.712   4.339  17.239  0.00  0.00    +0.000 OA
ENDROOT
BRANCH   1   8
ATOM      8  O   UNL     1       7.650   5.598  14.663  0.00  0.00    +0.000 OA
ATOM      9  H   UNL     1       8.168   6.283  15.132  0.00  0.00    +0.000 HD
ENDBRANCH   1   8
BRANCH   1  10
ATOM     10  C   UNL     1       5.636   4.262  14.789  0.00  0.00    +0.000 C 
BRANCH  10  11
ATOM     11  N   UNL     1       6.487   3.320  14.043  0.00  0.00    +0.000 NA
ATOM     12  H   UNL     1       7.465   3.539  14.231  0.00  0.00    +0.000 HD
BRANCH  11  13
ATOM     13  C   UNL     1       6.260   3.463  12.595  0.00  0.00    +0.000 C 
BRANCH  13  14
ATOM     14  C   UNL     1       4.761   3.628  12.331  0.00  0.00    +0.000 C 
BRANCH  14  16
ATOM     15  C   UNL     1       3.319   3.434  10.495  0.00  0.00    +0.000 C 
ATOM     16  O   UNL     1       4.355   2.802  11.241  0.00  0.00    +0.000 OA
ENDBRANCH  14  16
ENDBRANCH  13  14
ENDBRANCH  11  13
ENDBRANCH  10  11
ENDBRANCH   1  10
BRANCH   5  17
ATOM     17  C   UNL     1       5.387   4.111  18.804  0.00  0.00    +0.000 C 
BRANCH  17  18
ATOM     18  C   UNL     1       3.981   3.536  18.810  0.00  0.00    +0.000 A 
ATOM     19  C   UNL     1       3.560   2.674  17.775  0.00  0.00    +0.000 A 
ATOM     20  C   UNL     1       2.257   2.168  17.759  0.00  0.00    +0.000 A 
ATOM     21  C   UNL     1       1.368   2.524  18.764  0.00  0.00    +0.000 A 
ATOM     22  F   UNL     1       0.116   2.038  18.741  0.00  0.00    +0.000 F 
ATOM     23  C   UNL     1       1.767   3.381  19.782  0.00  0.00    +0.000 A 
ATOM     24  F   UNL     1       0.903   3.733  20.746  0.00  0.00    +0.000 F 
ATOM     25  C   UNL     1       3.065   3.886  19.811  0.00  0.00    +0.000 A 
ENDBRANCH  17  18
ENDBRANCH   5  17
TORSDOF 8
ENDMDL
MODEL 4
REMARK VINA RESULT:      -6.8      1.205      1.391
REMARK  Name = 
REMARK  9 active torsions:
REMARK  status: ('A' for Active; 'I' for Inactive)
REMARK    1  A    between atoms: C_1  and  O_2
REMARK    2  A    between atoms: O_2  and  C_3
REMARK    3  A    between atoms: C_3  and  C_4
REMARK    4  A    between atoms: C_4  and  N_5
REMARK    5  A    between atoms: N_5  and  C_6
REMARK    6  A    between atoms: C_6  and  C_7
REMARK    7  A    between atoms: C_7  and  O_8
REMARK    8  A    between atoms: N_12  and  C_13
REMARK    9  A    between atoms: C_13  and  C_14
REMARK                            x       y       z     vdW  Elec       q    Type
REMARK                         _______ _______ _______ _____ _____    ______ ____
ROOT
ATOM      1  C   UNL     1       2.562   3.537  20.464  0.00  0.00    +0.000 C 
ATOM      2  C   UNL     1       1.183   3.220  19.872  0.00  0.00    +0.000 C 
ATOM      3  C   UNL     1       1.103   3.460  18.373  0.00  0.00    +0.000 C 
ATOM      4  C   UNL     1       2.263   2.797  17.648  0.00  0.00    +0.000 C 
ATOM      5  N   UNL     1       3.551   3.091  18.258  0.00  0.00    +0.000 N 
ATOM      6  C   UNL     1       3.691   2.871  19.633  0.00  0.00    +0.000 C 
ATOM      7  O   UNL     1       4.694   2.371  20.133  0.00  0.00    +0.000 OA
ENDROOT
BRANCH   1   8
ATOM      8  O   UNL     1       2.508   3.120  21.830  0.00  0.00    +0.000 OA
ATOM      9  H   UNL     1       2.665   2.154  21.817  0.00  0.00    +0.000 HD
ENDBRANCH   1   8
BRANCH   1  10
ATOM     10  C   UNL     1       2.951   5.050  20.439  0.00  0.00    +0.000 C 
BRANCH  10  11
ATOM     11  N   UNL     1       1.946   5.898  21.103  0.00  0.00    +0.000 NA
ATOM     12  H   UNL     1       1.057   5.400  21.126  0.00  0.00    +0.000 HD
BRANCH  11  13
ATOM     13  C   UNL     1       1.749   7.146  20.346  0.00  0.00    +0.000 C 
BRANCH  13  14
ATOM     14  C   UNL     1       1.434   8.285  21.319  0.00  0.00    +0.000 C 
BRANCH  14  16
ATOM     15  C   UNL     1      -0.391   9.237  22.438  0.00  0.00    +0.000 C 
ATOM     16  O   UNL     1       0.063   8.662  21.216  0.00  0.00    +0.000 OA
ENDBRANCH  14  16
ENDBRANCH  13  14
ENDBRANCH  11  13
ENDBRANCH  10  11
ENDBRANCH   1  10
BRANCH   5  17
ATOM     17  C   UNL     1       4.740   3.087  17.414  0.00  0.00    +0.000 C 
BRANCH  17  18
ATOM     18  C   UNL     1       5.378   4.465  17.405  0.00  0.00    +0.000 A 
ATOM     19  C   UNL     1       4.863   5.483  16.575  0.00  0.00    +0.000 A 
ATOM     20  C   UNL     1       5.467   6.744  16.539  0.00  0.00    +0.000 A 
ATOM     21  C   UNL     1       6.587   6.993  17.321  0.00  0.00    +0.000 A 
ATOM     22  F   UNL     1       7.165   8.204  17.279  0.00  0.00    +0.000 F 
ATOM     23  C   UNL     1       7.111   5.995  18.133  0.00  0.00    +0.000 A 
ATOM     24  F   UNL     1       8.200   6.234  18.879  0.00  0.00    +0.000 F 
ATOM     25  C   UNL     1       6.513   4.737  18.182  0.00  0.00    +0.000 A 
ENDBRANCH  17  18
ENDBRANCH   5  17
TORSDOF 8
ENDMDL
MODEL 5
REMARK VINA RESULT:      -6.7      4.344      6.567
REMARK  Name = 
REMARK  9 active torsions:
REMARK  status: ('A' for Active; 'I' for Inactive)
REMARK    1  A    between atoms: C_1  and  O_2
REMARK    2  A    between atoms: O_2  and  C_3
REMARK    3  A    between atoms: C_3  and  C_4
REMARK    4  A    between atoms: C_4  and  N_5
REMARK    5  A    between atoms: N_5  and  C_6
REMARK    6  A    between atoms: C_6  and  C_7
REMARK    7  A    between atoms: C_7  and  O_8
REMARK    8  A    between atoms: N_12  and  C_13
REMARK    9  A    between atoms: C_13  and  C_14
REMARK                            x       y       z     vdW  Elec       q    Type
REMARK                         _______ _______ _______ _____ _____    ______ ____
ROOT
ATOM      1  C   UNL     1       7.055   6.450  17.158  0.00  0.00    +0.000 C 
ATOM      2  C   UNL     1       7.717   5.506  18.169  0.00  0.00    +0.000 C 
ATOM      3  C   UNL     1       6.968   5.418  19.489  0.00  0.00    +0.000 C 
ATOM      4  C   UNL     1       5.487   5.156  19.263  0.00  0.00    +0.000 C 
ATOM      5  N   UNL     1       4.901   6.047  18.273  0.00  0.00    +0.000 N 
ATOM      6  C   UNL     1       5.536   6.154  17.031  0.00  0.00    +0.000 C 
ATOM      7  O   UNL     1       4.925   6.198  15.967  0.00  0.00    +0.000 OA
ENDROOT
BRANCH   1   8
ATOM      8  O   UNL     1       7.790   6.302  15.941  0.00  0.00    +0.000 OA
ATOM      9  H   UNL     1       7.227   6.695  15.244  0.00  0.00    +0.000 HD
ENDBRANCH   1   8
BRANCH   1  10
ATOM     10  C   UNL     1       7.088   7.961  17.558  0.00  0.00    +0.000 C 
BRANCH  10  11
ATOM     11  N   UNL     1       8.373   8.353  18.159  0.00  0.00    +0.000 NA
ATOM     12  H   UNL     1       8.382   8.064  19.137  0.00  0.00    +0.000 HD
BRANCH  11  13
ATOM     13  C   UNL     1       8.533   9.817  18.116  0.00  0.00    +0.000 C 
BRANCH  13  14
ATOM     14  C   UNL     1       9.317  10.278  19.347  0.00  0.00    +0.000 C 
BRANCH  14  16
ATOM     15  C   UNL     1      11.273  11.565  19.263  0.00  0.00    +0.000 C 
ATOM     16  O   UNL     1       9.854  11.582  19.134  0.00  0.00    +0.000 OA
ENDBRANCH  14  16
ENDBRANCH  13  14
ENDBRANCH  11  13
ENDBRANCH  10  11
ENDBRANCH   1  10
BRANCH   5  17
ATOM     17  C   UNL     1       3.483   6.367  18.375  0.00  0.00    +0.000 C 
BRANCH  17  18
ATOM     18  C   UNL     1       2.671   5.094  18.542  0.00  0.00    +0.000 A 
ATOM     19  C   UNL     1       2.522   4.198  17.462  0.00  0.00    +0.000 A 
ATOM     20  C   UNL     1       1.749   3.041  17.601  0.00  0.00    +0.000 A 
ATOM     21  C   UNL     1       1.116   2.777  18.808  0.00  0.00    +0.000 A 
ATOM     22  F   UNL     1       0.371   1.666  18.934  0.00  0.00    +0.000 F 
ATOM     23  C   UNL     1       1.245   3.658  19.875  0.00  0.00    +0.000 A 
ATOM     24  F   UNL     1       0.624   3.407  21.037  0.00  0.00    +0.000 F 
ATOM     25  C   UNL     1       2.019   4.810  19.750  0.00  0.00    +0.000 A 
ENDBRANCH  17  18
ENDBRANCH   5  17
TORSDOF 8
ENDMDL
MODEL 6
REMARK VINA RESULT:      -6.6      3.877      6.331
REMARK  Name = 
REMARK  9 active torsions:
REMARK  status: ('A' for Active; 'I' for Inactive)
REMARK    1  A    between atoms: C_1  and  O_2
REMARK    2  A    between atoms: O_2  and  C_3
REMARK    3  A    between atoms: C_3  and  C_4
REMARK    4  A    between atoms: C_4  and  N_5
REMARK    5  A    between atoms: N_5  and  C_6
REMARK    6  A    between atoms: C_6  and  C_7
REMARK    7  A    between atoms: C_7  and  O_8
REMARK    8  A    between atoms: N_12  and  C_13
REMARK    9  A    between atoms: C_13  and  C_14
REMARK                            x       y       z     vdW  Elec       q    Type
REMARK                         _______ _______ _______ _____ _____    ______ ____
ROOT
ATOM      1  C   UNL     1       6.720   4.833  17.254  0.00  0.00    +0.000 C 
ATOM      2  C   UNL     1       6.862   6.045  16.324  0.00  0.00    +0.000 C 
ATOM      3  C   UNL     1       5.590   6.871  16.216  0.00  0.00    +0.000 C 
ATOM      4  C   UNL     1       5.029   7.197  17.591  0.00  0.00    +0.000 C 
ATOM      5  N   UNL     1       4.942   6.031  18.457  0.00  0.00    +0.000 N 
ATOM      6  C   UNL     1       6.087   5.242  18.611  0.00  0.00    +0.000 C 
ATOM      7  O   UNL     1       6.438   4.773  19.690  0.00  0.00    +0.000 OA
ENDROOT
BRANCH   1   8
ATOM      8  O   UNL     1       8.026   4.262  17.358  0.00  0.00    +0.000 OA
ATOM      9  H   UNL     1       8.648   4.993  17.167  0.00  0.00    +0.000 HD
ENDBRANCH   1   8
BRANCH   1  10
ATOM     10  C   UNL     1       5.751   3.722  16.733  0.00  0.00    +0.000 C 
BRANCH  10  11
ATOM     11  N   UNL     1       6.182   3.162  15.441  0.00  0.00    +0.000 NA
ATOM     12  H   UNL     1       7.178   3.345  15.318  0.00  0.00    +0.000 HD
BRANCH  11  13
ATOM     13  C   UNL     1       5.460   3.813  14.335  0.00  0.00    +0.000 C 
BRANCH  13  14
ATOM     14  C   UNL     1       6.332   3.791  13.078  0.00  0.00    +0.000 C 
BRANCH  14  16
ATOM     15  C   UNL     1       4.587   3.296  11.596  0.00  0.00    +0.000 C 
ATOM     16  O   UNL     1       5.825   2.846  12.138  0.00  0.00    +0.000 OA
ENDBRANCH  14  16
ENDBRANCH  13  14
ENDBRANCH  11  13
ENDBRANCH  10  11
ENDBRANCH   1  10
BRANCH   5  17
ATOM     17  C   UNL     1       3.919   6.007  19.494  0.00  0.00    +0.000 C 
BRANCH  17  18
ATOM     18  C   UNL     1       2.934   4.882  19.231  0.00  0.00    +0.000 A 
ATOM     19  C   UNL     1       2.336   4.742  17.960  0.00  0.00    +0.000 A 
ATOM     20  C   UNL     1       1.404   3.727  17.722  0.00  0.00    +0.000 A 
ATOM     21  C   UNL     1       1.058   2.856  18.746  0.00  0.00    +0.000 A 
ATOM     22  F   UNL     1       0.159   1.886  18.512  0.00  0.00    +0.000 F 
ATOM     23  C   UNL     1       1.630   2.992  20.005  0.00  0.00    +0.000 A 
ATOM     24  F   UNL     1       1.286   2.157  20.997  0.00  0.00    +0.000 F 
ATOM     25  C   UNL     1       2.565   3.995  20.252  0.00  0.00    +0.000 A 
ENDBRANCH  17  18
ENDBRANCH   5  17
TORSDOF 8
ENDMDL
MODEL 7
REMARK VINA RESULT:      -6.6      4.225      6.623
REMARK  Name = 
REMARK  9 active torsions:
REMARK  status: ('A' for Active; 'I' for Inactive)
REMARK    1  A    between atoms: C_1  and  O_2
REMARK    2  A    between atoms: O_2  and  C_3
REMARK    3  A    between atoms: C_3  and  C_4
REMARK    4  A    between atoms: C_4  and  N_5
REMARK    5  A    between atoms: N_5  and  C_6
REMARK    6  A    between atoms: C_6  and  C_7
REMARK    7  A    between atoms: C_7  and  O_8
REMARK    8  A    between atoms: N_12  and  C_13
REMARK    9  A    between atoms: C_13  and  C_14
REMARK                            x       y       z     vdW  Elec       q    Type
REMARK                         _______ _______ _______ _____ _____    ______ ____
ROOT
ATOM      1  C   UNL     1       6.430   5.441  16.000  0.00  0.00    +0.000 C 
ATOM      2  C   UNL     1       5.731   6.806  16.036  0.00  0.00    +0.000 C 
ATOM      3  C   UNL     1       4.482   6.818  16.903  0.00  0.00    +0.000 C 
ATOM      4  C   UNL     1       4.759   6.218  18.273  0.00  0.00    +0.000 C 
ATOM      5  N   UNL     1       5.453   4.942  18.200  0.00  0.00    +0.000 N 
ATOM      6  C   UNL     1       6.621   4.875  17.432  0.00  0.00    +0.000 C 
ATOM      7  O   UNL     1       7.625   4.264  17.790  0.00  0.00    +0.000 OA
ENDROOT
BRANCH   1   8
ATOM      8  O   UNL     1       7.646   5.642  15.275  0.00  0.00    +0.000 OA
ATOM      9  H   UNL     1       7.998   4.746  15.101  0.00  0.00    +0.000 HD
ENDBRANCH   1   8
BRANCH   1  10
ATOM     10  C   UNL     1       5.622   4.314  15.279  0.00  0.00    +0.000 C 
BRANCH  10  11
ATOM     11  N   UNL     1       6.454   3.540  14.342  0.00  0.00    +0.000 NA
ATOM     12  H   UNL     1       7.385   3.956  14.306  0.00  0.00    +0.000 HD
BRANCH  11  13
ATOM     13  C   UNL     1       5.880   3.591  12.987  0.00  0.00    +0.000 C 
BRANCH  13  14
ATOM     14  C   UNL     1       6.974   3.974  11.987  0.00  0.00    +0.000 C 
BRANCH  14  16
ATOM     15  C   UNL     1       7.870   6.116  11.675  0.00  0.00    +0.000 C 
ATOM     16  O   UNL     1       7.819   4.983  12.536  0.00  0.00    +0.000 OA
ENDBRANCH  14  16
ENDBRANCH  13  14
ENDBRANCH  11  13
ENDBRANCH  10  11
ENDBRANCH   1  10
BRANCH   5  17
ATOM     17  C   UNL     1       5.253   3.977  19.273  0.00  0.00    +0.000 C 
BRANCH  17  18
ATOM     18  C   UNL     1       3.881   3.337  19.151  0.00  0.00    +0.000 A 
ATOM     19  C   UNL     1       3.470   2.760  17.930  0.00  0.00    +0.000 A 
ATOM     20  C   UNL     1       2.196   2.199  17.803  0.00  0.00    +0.000 A 
ATOM     21  C   UNL     1       1.325   2.217  18.884  0.00  0.00    +0.000 A 
ATOM     22  F   UNL     1       0.101   1.680  18.755  0.00  0.00    +0.000 F 
ATOM     23  C   UNL     1       1.713   2.793  20.088  0.00  0.00    +0.000 A 
ATOM     24  F   UNL     1       0.867   2.819  21.127  0.00  0.00    +0.000 F 
ATOM     25  C   UNL     1       2.983   3.349  20.227  0.00  0.00    +0.000 A 
ENDBRANCH  17  18
ENDBRANCH   5  17
TORSDOF 8
ENDMDL
MODEL 8
REMARK VINA RESULT:      -6.6      1.177      1.740
REMARK  Name = 
REMARK  9 active torsions:
REMARK  status: ('A' for Active; 'I' for Inactive)
REMARK    1  A    between atoms: C_1  and  O_2
REMARK    2  A    between atoms: O_2  and  C_3
REMARK    3  A    between atoms: C_3  and  C_4
REMARK    4  A    between atoms: C_4  and  N_5
REMARK    5  A    between atoms: N_5  and  C_6
REMARK    6  A    between atoms: C_6  and  C_7
REMARK    7  A    between atoms: C_7  and  O_8
REMARK    8  A    between atoms: N_12  and  C_13
REMARK    9  A    between atoms: C_13  and  C_14
REMARK                            x       y       z     vdW  Elec       q    Type
REMARK                         _______ _______ _______ _____ _____    ______ ____
ROOT
ATOM      1  C   UNL     1       2.588   3.328  20.661  0.00  0.00    +0.000 C 
ATOM      2  C   UNL     1       1.178   2.914  20.220  0.00  0.00    +0.000 C 
ATOM      3  C   UNL     1       0.944   3.077  18.727  0.00  0.00    +0.000 C 
ATOM      4  C   UNL     1       2.066   2.440  17.922  0.00  0.00    +0.000 C 
ATOM      5  N   UNL     1       3.387   2.828  18.391  0.00  0.00    +0.000 N 
ATOM      6  C   UNL     1       3.668   2.682  19.753  0.00  0.00    +0.000 C 
ATOM      7  O   UNL     1       4.741   2.258  20.175  0.00  0.00    +0.000 OA
ENDROOT
BRANCH   1   8
ATOM      8  O   UNL     1       2.687   2.976  22.043  0.00  0.00    +0.000 OA
ATOM      9  H   UNL     1       2.309   3.732  22.535  0.00  0.00    +0.000 HD
ENDBRANCH   1   8
BRANCH   1  10
ATOM     10  C   UNL     1       2.888   4.857  20.534  0.00  0.00    +0.000 C 
BRANCH  10  11
ATOM     11  N   UNL     1       1.735   5.689  20.919  0.00  0.00    +0.000 NA
ATOM     12  H   UNL     1       0.886   5.275  20.534  0.00  0.00    +0.000 HD
BRANCH  11  13
ATOM     13  C   UNL     1       1.873   7.044  20.361  0.00  0.00    +0.000 C 
BRANCH  13  14
ATOM     14  C   UNL     1       1.068   8.028  21.215  0.00  0.00    +0.000 C 
BRANCH  14  16
ATOM     15  C   UNL     1       0.516   9.712  19.683  0.00  0.00    +0.000 C 
ATOM     16  O   UNL     1       1.326   9.369  20.803  0.00  0.00    +0.000 OA
ENDBRANCH  14  16
ENDBRANCH  13  14
ENDBRANCH  11  13
ENDBRANCH  10  11
ENDBRANCH   1  10
BRANCH   5  17
ATOM     17  C   UNL     1       4.489   2.845  17.437  0.00  0.00    +0.000 C 
BRANCH  17  18
ATOM     18  C   UNL     1       5.087   4.238  17.354  0.00  0.00    +0.000 A 
ATOM     19  C   UNL     1       6.483   4.420  17.451  0.00  0.00    +0.000 A 
ATOM     20  C   UNL     1       7.037   5.703  17.408  0.00  0.00    +0.000 A 
ATOM     21  C   UNL     1       6.205   6.808  17.277  0.00  0.00    +0.000 A 
ATOM     22  F   UNL     1       6.742   8.038  17.241  0.00  0.00    +0.000 F 
ATOM     23  C   UNL     1       4.828   6.642  17.193  0.00  0.00    +0.000 A 
ATOM     24  F   UNL     1       4.025   7.710  17.079  0.00  0.00    +0.000 F 
ATOM     25  C   UNL     1       4.267   5.367  17.228  0.00  0.00    +0.000 A 
ENDBRANCH  17  18
ENDBRANCH   5  17
TORSDOF 8
ENDMDL
MODEL 9
REMARK VINA RESULT:      -6.6      2.154      3.831
REMARK  Name = 
REMARK  9 active torsions:
REMARK  status: ('A' for Active; 'I' for Inactive)
REMARK    1  A    between atoms: C_1  and  O_2
REMARK    2  A    between atoms: O_2  and  C_3
REMARK    3  A    between atoms: C_3  and  C_4
REMARK    4  A    between atoms: C_4  and  N_5
REMARK    5  A    between atoms: N_5  and  C_6
REMARK    6  A    between atoms: C_6  and  C_7
REMARK    7  A    between atoms: C_7  and  O_8
REMARK    8  A    between atoms: N_12  and  C_13
REMARK    9  A    between atoms: C_13  and  C_14
REMARK                            x       y       z     vdW  Elec       q    Type
REMARK                         _______ _______ _______ _____ _____    ______ ____
ROOT
ATOM      1  C   UNL     1       1.764   2.564  18.933  0.00  0.00    +0.000 C 
ATOM      2  C   UNL     1       1.494   2.409  20.435  0.00  0.00    +0.000 C 
ATOM      3  C   UNL     1       2.130   3.504  21.276  0.00  0.00    +0.000 C 
ATOM      4  C   UNL     1       1.806   4.881  20.720  0.00  0.00    +0.000 C 
ATOM      5  N   UNL     1       2.042   4.982  19.288  0.00  0.00    +0.000 N 
ATOM      6  C   UNL     1       1.465   4.012  18.460  0.00  0.00    +0.000 C 
ATOM      7  O   UNL     1       0.944   4.277  17.380  0.00  0.00    +0.000 OA
ENDROOT
BRANCH   1   8
ATOM      8  O   UNL     1       0.984   1.557  18.286  0.00  0.00    +0.000 OA
ATOM      9  H   UNL     1       0.175   2.011  17.974  0.00  0.00    +0.000 HD
ENDBRANCH   1   8
BRANCH   1  10
ATOM     10  C   UNL     1       3.256   2.358  18.514  0.00  0.00    +0.000 C 
BRANCH  10  11
ATOM     11  N   UNL     1       3.555   2.943  17.196  0.00  0.00    +0.000 NA
ATOM     12  H   UNL     1       3.204   2.317  16.470  0.00  0.00    +0.000 HD
BRANCH  11  13
ATOM     13  C   UNL     1       5.010   3.080  17.015  0.00  0.00    +0.000 C 
BRANCH  13  14
ATOM     14  C   UNL     1       5.293   3.719  15.652  0.00  0.00    +0.000 C 
BRANCH  14  16
ATOM     15  C   UNL     1       6.931   4.765  14.345  0.00  0.00    +0.000 C 
ATOM     16  O   UNL     1       6.688   3.972  15.503  0.00  0.00    +0.000 OA
ENDBRANCH  14  16
ENDBRANCH  13  14
ENDBRANCH  11  13
ENDBRANCH  10  11
ENDBRANCH   1  10
BRANCH   5  17
ATOM     17  C   UNL     1       2.384   6.282  18.726  0.00  0.00    +0.000 C 
BRANCH  17  18
ATOM     18  C   UNL     1       3.874   6.351  18.440  0.00  0.00    +0.000 A 
ATOM     19  C   UNL     1       4.347   6.994  17.276  0.00  0.00    +0.000 A 
ATOM     20  C   UNL     1       5.715   7.032  16.992  0.00  0.00    +0.000 A 
ATOM     21  C   UNL     1       6.615   6.426  17.859  0.00  0.00    +0.000 A 
ATOM     22  F   UNL     1       7.928   6.463  17.579  0.00  0.00    +0.000 F 
ATOM     23  C   UNL     1       6.161   5.780  19.002  0.00  0.00    +0.000 A 
ATOM     24  F   UNL     1       7.031   5.185  19.832  0.00  0.00    +0.000 F 
ATOM     25  C   UNL     1       4.800   5.741  19.298  0.00  0.00    +0.000 A 
ENDBRANCH  17  18
ENDBRANCH   5  17
TORSDOF 8
ENDMDL
