MODEL 1
REMARK VINA RESULT:      -7.1      0.000      0.000
REMARK  Name = 
REMARK  5 active torsions:
REMARK  status: ('A' for Active; 'I' for Inactive)
REMARK    1  A    between atoms: C_1  and  C_2
REMARK    2  A    between atoms: C_4  and  C_5
REMARK    3  A    between atoms: C_5  and  N_6
REMARK    4  A    between atoms: N_6  and  C_7
REMARK    5  A    between atoms: C_17  and  C_18
REMARK                            x       y       z     vdW  Elec       q    Type
REMARK                         _______ _______ _______ _____ _____    ______ ____
ROOT
ATOM      1  N   UNL     1       6.083   5.914  17.995  0.00  0.00    +0.000 N 
ATOM      2  H   UNL     1       6.036   6.722  17.373  0.00  0.00    +0.000 HD
ENDROOT
BRANCH   1   3
ATOM      3  C   UNL     1       4.824   5.491  18.445  0.00  0.00    +0.000 A 
ATOM      4  C   UNL     1       3.627   6.036  17.970  0.00  0.00    +0.000 A 
ATOM      5  C   UNL     1       2.374   5.547  18.357  0.00  0.00    +0.000 A 
ATOM      6  C   UNL     1       2.333   4.455  19.230  0.00  0.00    +0.000 A 
ATOM      7  S   UNL     1       0.975   3.621  19.880  0.00  0.00    +0.000 S 
ATOM      8  N   UNL     1       1.840   2.520  20.763  0.00  0.00    +0.000 NA
ATOM      9  C   UNL     1       3.135   2.761  20.571  0.00  0.00    +0.000 A 
ATOM     10  C   UNL     1       3.494   3.850  19.709  0.00  0.00    +0.000 A 
ATOM     11  C   UNL     1       4.745   4.369  19.288  0.00  0.00    +0.000 A 
ENDBRANCH   1   3
BRANCH   1  12
ATOM     12  C   UNL     1       7.009   4.910  17.454  0.00  0.00    +0.000 C 
BRANCH  12  16
ATOM     13  C   UNL     1       8.003   5.525  12.627  0.00  0.00    +0.000 C 
ATOM     14  C   UNL     1       7.291   4.930  13.787  0.00  0.00    +0.000 A 
ATOM     15  N   UNL     1       7.660   5.324  15.066  0.00  0.00    +0.000 NA
ATOM     16  C   UNL     1       6.921   4.699  15.962  0.00  0.00    +0.000 A 
ATOM     17  S   UNL     1       5.760   3.606  15.321  0.00  0.00    +0.000 S 
ATOM     18  C   UNL     1       6.265   4.000  13.735  0.00  0.00    +0.000 A 
ATOM     19  C   UNL     1       5.622   3.372  12.550  0.00  0.00    +0.000 C 
ENDBRANCH  12  16
ENDBRANCH   1  12
TORSDOF 3
ENDMDL
MODEL 2
REMARK VINA RESULT:      -6.6      1.073      1.185
REMARK  Name = 
REMARK  5 active torsions:
REMARK  status: ('A' for Active; 'I' for Inactive)
REMARK    1  A    between atoms: C_1  and  C_2
REMARK    2  A    between atoms: C_4  and  C_5
REMARK    3  A    between atoms: C_5  and  N_6
REMARK    4  A    between atoms: N_6  and  C_7
REMARK    5  A    between atoms: C_17  and  C_18
REMARK                            x       y       z     vdW  Elec       q    Type
REMARK                         _______ _______ _______ _____ _____    ______ ____
ROOT
ATOM      1  N   UNL     1       5.488   5.945  17.652  0.00  0.00    +0.000 N 
ATOM      2  H   UNL     1       5.175   6.506  16.858  0.00  0.00    +0.000 HD
ENDROOT
BRANCH   1   3
ATOM      3  C   UNL     1       4.433   5.336  18.345  0.00  0.00    +0.000 A 
ATOM      4  C   UNL     1       3.843   5.903  19.478  0.00  0.00    +0.000 A 
ATOM      5  C   UNL     1       2.731   5.333  20.111  0.00  0.00    +0.000 A 
ATOM      6  C   UNL     1       2.185   4.168  19.562  0.00  0.00    +0.000 A 
ATOM      7  S   UNL     1       0.834   3.239  20.085  0.00  0.00    +0.000 S 
ATOM      8  N   UNL     1       0.919   2.101  18.886  0.00  0.00    +0.000 NA
ATOM      9  C   UNL     1       1.941   2.411  18.091  0.00  0.00    +0.000 A 
ATOM     10  C   UNL     1       2.711   3.577  18.414  0.00  0.00    +0.000 A 
ATOM     11  C   UNL     1       3.832   4.189  17.797  0.00  0.00    +0.000 A 
ENDBRANCH   1   3
BRANCH   1  12
ATOM     12  C   UNL     1       6.644   5.123  17.268  0.00  0.00    +0.000 C 
BRANCH  12  16
ATOM     13  C   UNL     1       8.248   5.664  12.598  0.00  0.00    +0.000 C 
ATOM     14  C   UNL     1       7.426   5.053  13.675  0.00  0.00    +0.000 A 
ATOM     15  N   UNL     1       7.587   5.512  14.974  0.00  0.00    +0.000 NA
ATOM     16  C   UNL     1       6.777   4.862  15.787  0.00  0.00    +0.000 A 
ATOM     17  S   UNL     1       5.795   3.665  15.040  0.00  0.00    +0.000 S 
ATOM     18  C   UNL     1       6.485   4.048  13.522  0.00  0.00    +0.000 A 
ATOM     19  C   UNL     1       6.057   3.337  12.287  0.00  0.00    +0.000 C 
ENDBRANCH  12  16
ENDBRANCH   1  12
TORSDOF 3
ENDMDL
MODEL 3
REMARK VINA RESULT:      -6.4      4.081      5.277
REMARK  Name = 
REMARK  5 active torsions:
REMARK  status: ('A' for Active; 'I' for Inactive)
REMARK    1  A    between atoms: C_1  and  C_2
REMARK    2  A    between atoms: C_4  and  C_5
REMARK    3  A    between atoms: C_5  and  N_6
REMARK    4  A    between atoms: N_6  and  C_7
REMARK    5  A    between atoms: C_17  and  C_18
REMARK                            x       y       z     vdW  Elec       q    Type
REMARK                         _______ _______ _______ _____ _____    ______ ____
ROOT
ATOM      1  N   UNL     1       2.674   6.096  20.203  0.00  0.00    +0.000 N 
ATOM      2  H   UNL     1       3.591   6.143  20.647  0.00  0.00    +0.000 HD
ENDROOT
BRANCH   1   3
ATOM      3  C   UNL     1       2.173   7.354  19.840  0.00  0.00    +0.000 A 
ATOM      4  C   UNL     1       2.241   7.849  18.534  0.00  0.00    +0.000 A 
ATOM      5  C   UNL     1       1.658   9.066  18.161  0.00  0.00    +0.000 A 
ATOM      6  C   UNL     1       0.963   9.791  19.135  0.00  0.00    +0.000 A 
ATOM      7  S   UNL     1       0.137  11.294  19.002  0.00  0.00    +0.000 S 
ATOM      8  N   UNL     1      -0.366  11.368  20.577  0.00  0.00    +0.000 NA
ATOM      9  C   UNL     1       0.068  10.276  21.202  0.00  0.00    +0.000 A 
ATOM     10  C   UNL     1       0.834   9.330  20.445  0.00  0.00    +0.000 A 
ATOM     11  C   UNL     1       1.431   8.088  20.782  0.00  0.00    +0.000 A 
ENDBRANCH   1   3
BRANCH   1  12
ATOM     12  C   UNL     1       2.647   5.015  19.207  0.00  0.00    +0.000 C 
BRANCH  12  16
ATOM     13  C   UNL     1       5.579   4.069  15.312  0.00  0.00    +0.000 C 
ATOM     14  C   UNL     1       5.297   4.421  16.728  0.00  0.00    +0.000 A 
ATOM     15  N   UNL     1       3.975   4.538  17.132  0.00  0.00    +0.000 NA
ATOM     16  C   UNL     1       3.919   4.849  18.412  0.00  0.00    +0.000 A 
ATOM     17  S   UNL     1       5.442   5.025  19.190  0.00  0.00    +0.000 S 
ATOM     18  C   UNL     1       6.235   4.647  17.722  0.00  0.00    +0.000 A 
ATOM     19  C   UNL     1       7.719   4.600  17.646  0.00  0.00    +0.000 C 
ENDBRANCH  12  16
ENDBRANCH   1  12
TORSDOF 3
ENDMDL
MODEL 4
REMARK VINA RESULT:      -6.4      3.992      5.340
REMARK  Name = 
REMARK  5 active torsions:
REMARK  status: ('A' for Active; 'I' for Inactive)
REMARK    1  A    between atoms: C_1  and  C_2
REMARK    2  A    between atoms: C_4  and  C_5
REMARK    3  A    between atoms: C_5  and  N_6
REMARK    4  A    between atoms: N_6  and  C_7
REMARK    5  A    between atoms: C_17  and  C_18
REMARK                            x       y       z     vdW  Elec       q    Type
REMARK                         _______ _______ _______ _____ _____    ______ ____
ROOT
ATOM      1  N   UNL     1       2.662   6.193  20.225  0.00  0.00    +0.000 N 
ATOM      2  H   UNL     1       3.497   6.282  20.804  0.00  0.00    +0.000 HD
ENDROOT
BRANCH   1   3
ATOM      3  C   UNL     1       2.131   7.429  19.832  0.00  0.00    +0.000 A 
ATOM      4  C   UNL     1       2.217   7.910  18.522  0.00  0.00    +0.000 A 
ATOM      5  C   UNL     1       1.606   9.103  18.118  0.00  0.00    +0.000 A 
ATOM      6  C   UNL     1       0.862   9.817  19.063  0.00  0.00    +0.000 A 
ATOM      7  S   UNL     1      -0.008  11.291  18.888  0.00  0.00    +0.000 S 
ATOM      8  N   UNL     1      -0.555  11.369  20.448  0.00  0.00    +0.000 NA
ATOM      9  C   UNL     1      -0.102  10.300  21.099  0.00  0.00    +0.000 A 
ATOM     10  C   UNL     1       0.714   9.369  20.375  0.00  0.00    +0.000 A 
ATOM     11  C   UNL     1       1.341   8.151  20.745  0.00  0.00    +0.000 A 
ENDBRANCH   1   3
BRANCH   1  12
ATOM     12  C   UNL     1       2.860   5.157  19.203  0.00  0.00    +0.000 C 
BRANCH  12  16
ATOM     13  C   UNL     1       7.797   5.656  18.980  0.00  0.00    +0.000 C 
ATOM     14  C   UNL     1       6.458   5.288  18.451  0.00  0.00    +0.000 A 
ATOM     15  N   UNL     1       5.352   5.450  19.273  0.00  0.00    +0.000 NA
ATOM     16  C   UNL     1       4.258   5.079  18.637  0.00  0.00    +0.000 A 
ATOM     17  S   UNL     1       4.500   4.510  17.033  0.00  0.00    +0.000 S 
ATOM     18  C   UNL     1       6.180   4.790  17.188  0.00  0.00    +0.000 A 
ATOM     19  C   UNL     1       7.110   4.502  16.063  0.00  0.00    +0.000 C 
ENDBRANCH  12  16
ENDBRANCH   1  12
TORSDOF 3
ENDMDL
MODEL 5
REMARK VINA RESULT:      -6.3      2.325      3.662
REMARK  Name = 
REMARK  5 active torsions:
REMARK  status: ('A' for Active; 'I' for Inactive)
REMARK    1  A    between atoms: C_1  and  C_2
REMARK    2  A    between atoms: C_4  and  C_5
REMARK    3  A    between atoms: C_5  and  N_6
REMARK    4  A    between atoms: N_6  and  C_7
REMARK    5  A    between atoms: C_17  and  C_18
REMARK                            x       y       z     vdW  Elec       q    Type
REMARK                         _______ _______ _______ _____ _____    ______ ____
ROOT
ATOM      1  N   UNL     1       5.171   3.045  16.705  0.00  0.00    +0.000 N 
ATOM      2  H   UNL     1       5.909   2.454  17.088  0.00  0.00    +0.000 HD
ENDROOT
BRANCH   1   3
ATOM      3  C   UNL     1       4.087   3.208  17.578  0.00  0.00    +0.000 A 
ATOM      4  C   UNL     1       2.812   3.582  17.143  0.00  0.00    +0.000 A 
ATOM      5  C   UNL     1       1.715   3.655  18.010  0.00  0.00    +0.000 A 
ATOM      6  C   UNL     1       1.909   3.312  19.352  0.00  0.00    +0.000 A 
ATOM      7  S   UNL     1       0.782   3.287  20.651  0.00  0.00    +0.000 S 
ATOM      8  N   UNL     1       1.848   2.773  21.810  0.00  0.00    +0.000 NA
ATOM      9  C   UNL     1       3.037   2.611  21.235  0.00  0.00    +0.000 A 
ATOM     10  C   UNL     1       3.150   2.900  19.835  0.00  0.00    +0.000 A 
ATOM     11  C   UNL     1       4.237   2.831  18.925  0.00  0.00    +0.000 A 
ENDBRANCH   1   3
BRANCH   1  12
ATOM     12  C   UNL     1       5.752   4.240  16.076  0.00  0.00    +0.000 C 
BRANCH  12  16
ATOM     13  C   UNL     1       8.361   5.562  20.090  0.00  0.00    +0.000 C 
ATOM     14  C   UNL     1       7.726   5.787  18.765  0.00  0.00    +0.000 A 
ATOM     15  N   UNL     1       7.070   4.727  18.155  0.00  0.00    +0.000 NA
ATOM     16  C   UNL     1       6.569   5.112  16.997  0.00  0.00    +0.000 A 
ATOM     17  S   UNL     1       6.867   6.753  16.579  0.00  0.00    +0.000 S 
ATOM     18  C   UNL     1       7.712   6.973  18.050  0.00  0.00    +0.000 A 
ATOM     19  C   UNL     1       8.303   8.293  18.401  0.00  0.00    +0.000 C 
ENDBRANCH  12  16
ENDBRANCH   1  12
TORSDOF 3
ENDMDL
MODEL 6
REMARK VINA RESULT:      -6.2      6.114      8.007
REMARK  Name = 
REMARK  5 active torsions:
REMARK  status: ('A' for Active; 'I' for Inactive)
REMARK    1  A    between atoms: C_1  and  C_2
REMARK    2  A    between atoms: C_4  and  C_5
REMARK    3  A    between atoms: C_5  and  N_6
REMARK    4  A    between atoms: N_6  and  C_7
REMARK    5  A    between atoms: C_17  and  C_18
REMARK                            x       y       z     vdW  Elec       q    Type
REMARK                         _______ _______ _______ _____ _____    ______ ____
ROOT
ATOM      1  N   UNL     1       7.952   9.040  17.742  0.00  0.00    +0.000 N 
ATOM      2  H   UNL     1       6.963   9.213  17.560  0.00  0.00    +0.000 HD
ENDROOT
BRANCH   1   3
ATOM      3  C   UNL     1       8.587  10.106  18.393  0.00  0.00    +0.000 A 
ATOM      4  C   UNL     1       9.251   9.962  19.615  0.00  0.00    +0.000 A 
ATOM      5  C   UNL     1       9.959  11.011  20.213  0.00  0.00    +0.000 A 
ATOM      6  C   UNL     1      10.019  12.236  19.539  0.00  0.00    +0.000 A 
ATOM      7  S   UNL     1      10.804  13.699  19.992  0.00  0.00    +0.000 S 
ATOM      8  N   UNL     1      10.365  14.565  18.651  0.00  0.00    +0.000 NA
ATOM      9  C   UNL     1       9.645  13.771  17.862  0.00  0.00    +0.000 A 
ATOM     10  C   UNL     1       9.404  12.427  18.303  0.00  0.00    +0.000 A 
ATOM     11  C   UNL     1       8.703  11.338  17.725  0.00  0.00    +0.000 A 
ENDBRANCH   1   3
BRANCH   1  12
ATOM     12  C   UNL     1       8.140   7.682  18.272  0.00  0.00    +0.000 C 
BRANCH  12  16
ATOM     13  C   UNL     1       6.535   4.824  14.540  0.00  0.00    +0.000 C 
ATOM     14  C   UNL     1       6.571   5.304  15.946  0.00  0.00    +0.000 A 
ATOM     15  N   UNL     1       7.468   6.308  16.281  0.00  0.00    +0.000 NA
ATOM     16  C   UNL     1       7.355   6.606  17.561  0.00  0.00    +0.000 A 
ATOM     17  S   UNL     1       6.179   5.695  18.424  0.00  0.00    +0.000 S 
ATOM     18  C   UNL     1       5.781   4.852  16.990  0.00  0.00    +0.000 A 
ATOM     19  C   UNL     1       4.724   3.805  16.988  0.00  0.00    +0.000 C 
ENDBRANCH  12  16
ENDBRANCH   1  12
TORSDOF 3
ENDMDL
MODEL 7
REMARK VINA RESULT:      -6.2      5.479      7.695
REMARK  Name = 
REMARK  5 active torsions:
REMARK  status: ('A' for Active; 'I' for Inactive)
REMARK    1  A    between atoms: C_1  and  C_2
REMARK    2  A    between atoms: C_4  and  C_5
REMARK    3  A    between atoms: C_5  and  N_6
REMARK    4  A    between atoms: N_6  and  C_7
REMARK    5  A    between atoms: C_17  and  C_18
REMARK                            x       y       z     vdW  Elec       q    Type
REMARK                         _______ _______ _______ _____ _____    ______ ____
ROOT
ATOM      1  N   UNL     1       1.792   7.849  21.153  0.00  0.00    +0.000 N 
ATOM      2  H   UNL     1       2.566   7.946  21.811  0.00  0.00    +0.000 HD
ENDROOT
BRANCH   1   3
ATOM      3  C   UNL     1       0.989   8.995  21.075  0.00  0.00    +0.000 A 
ATOM      4  C   UNL     1       0.724   9.655  19.871  0.00  0.00    +0.000 A 
ATOM      5  C   UNL     1      -0.151  10.745  19.789  0.00  0.00    +0.000 A 
ATOM      6  C   UNL     1      -0.798  11.161  20.957  0.00  0.00    +0.000 A 
ATOM      7  S   UNL     1      -1.924  12.441  21.190  0.00  0.00    +0.000 S 
ATOM      8  N   UNL     1      -2.149  12.197  22.812  0.00  0.00    +0.000 NA
ATOM      9  C   UNL     1      -1.398  11.162  23.182  0.00  0.00    +0.000 A 
ATOM     10  C   UNL     1      -0.599  10.520  22.178  0.00  0.00    +0.000 A 
ATOM     11  C   UNL     1       0.289   9.415  22.220  0.00  0.00    +0.000 A 
ENDBRANCH   1   3
BRANCH   1  12
ATOM     12  C   UNL     1       2.262   7.234  19.903  0.00  0.00    +0.000 C 
BRANCH  12  16
ATOM     13  C   UNL     1       1.595   2.585  21.519  0.00  0.00    +0.000 C 
ATOM     14  C   UNL     1       1.887   3.625  20.498  0.00  0.00    +0.000 A 
ATOM     15  N   UNL     1       1.865   4.957  20.882  0.00  0.00    +0.000 NA
ATOM     16  C   UNL     1       2.150   5.730  19.852  0.00  0.00    +0.000 A 
ATOM     17  S   UNL     1       2.447   4.902  18.375  0.00  0.00    +0.000 S 
ATOM     18  C   UNL     1       2.192   3.405  19.164  0.00  0.00    +0.000 A 
ATOM     19  C   UNL     1       2.307   2.121  18.422  0.00  0.00    +0.000 C 
ENDBRANCH  12  16
ENDBRANCH   1  12
TORSDOF 3
ENDMDL
MODEL 8
REMARK VINA RESULT:      -6.2      5.484      7.832
REMARK  Name = 
REMARK  5 active torsions:
REMARK  status: ('A' for Active; 'I' for Inactive)
REMARK    1  A    between atoms: C_1  and  C_2
REMARK    2  A    between atoms: C_4  and  C_5
REMARK    3  A    between atoms: C_5  and  N_6
REMARK    4  A    between atoms: N_6  and  C_7
REMARK    5  A    between atoms: C_17  and  C_18
REMARK                            x       y       z     vdW  Elec       q    Type
REMARK                         _______ _______ _______ _____ _____    ______ ____
ROOT
ATOM      1  N   UNL     1       1.848   7.912  21.362  0.00  0.00    +0.000 N 
ATOM      2  H   UNL     1       2.729   8.137  21.824  0.00  0.00    +0.000 HD
ENDROOT
BRANCH   1   3
ATOM      3  C   UNL     1       0.878   8.914  21.507  0.00  0.00    +0.000 A 
ATOM      4  C   UNL     1       0.381   9.314  22.751  0.00  0.00    +0.000 A 
ATOM      5  C   UNL     1      -0.520  10.376  22.893  0.00  0.00    +0.000 A 
ATOM      6  C   UNL     1      -0.907  11.072  21.743  0.00  0.00    +0.000 A 
ATOM      7  S   UNL     1      -1.974  12.411  21.579  0.00  0.00    +0.000 S 
ATOM      8  N   UNL     1      -1.829  12.562  19.936  0.00  0.00    +0.000 NA
ATOM      9  C   UNL     1      -0.984  11.628  19.508  0.00  0.00    +0.000 A 
ATOM     10  C   UNL     1      -0.417  10.739  20.480  0.00  0.00    +0.000 A 
ATOM     11  C   UNL     1       0.500   9.662  20.378  0.00  0.00    +0.000 A 
ENDBRANCH   1   3
BRANCH   1  12
ATOM     12  C   UNL     1       2.102   7.369  20.020  0.00  0.00    +0.000 C 
BRANCH  12  16
ATOM     13  C   UNL     1       1.586   2.649  21.481  0.00  0.00    +0.000 C 
ATOM     14  C   UNL     1       1.848   3.731  20.495  0.00  0.00    +0.000 A 
ATOM     15  N   UNL     1       1.778   5.049  20.923  0.00  0.00    +0.000 NA
ATOM     16  C   UNL     1       2.042   5.864  19.919  0.00  0.00    +0.000 A 
ATOM     17  S   UNL     1       2.375   5.095  18.419  0.00  0.00    +0.000 S 
ATOM     18  C   UNL     1       2.167   3.566  19.157  0.00  0.00    +0.000 A 
ATOM     19  C   UNL     1       2.330   2.311  18.375  0.00  0.00    +0.000 C 
ENDBRANCH  12  16
ENDBRANCH   1  12
TORSDOF 3
ENDMDL
MODEL 9
REMARK VINA RESULT:      -6.2      1.060      1.673
REMARK  Name = 
REMARK  5 active torsions:
REMARK  status: ('A' for Active; 'I' for Inactive)
REMARK    1  A    between atoms: C_1  and  C_2
REMARK    2  A    between atoms: C_4  and  C_5
REMARK    3  A    between atoms: C_5  and  N_6
REMARK    4  A    between atoms: N_6  and  C_7
REMARK    5  A    between atoms: C_17  and  C_18
REMARK                            x       y       z     vdW  Elec       q    Type
REMARK                         _______ _______ _______ _____ _____    ______ ____
ROOT
ATOM      1  N   UNL     1       6.330   5.825  17.778  0.00  0.00    +0.000 N 
ATOM      2  H   UNL     1       6.063   6.569  17.133  0.00  0.00    +0.000 HD
ENDROOT
BRANCH   1   3
ATOM      3  C   UNL     1       5.236   5.257  18.445  0.00  0.00    +0.000 A 
ATOM      4  C   UNL     1       5.209   3.921  18.859  0.00  0.00    +0.000 A 
ATOM      5  C   UNL     1       4.151   3.387  19.603  0.00  0.00    +0.000 A 
ATOM      6  C   UNL     1       3.101   4.239  19.964  0.00  0.00    +0.000 A 
ATOM      7  S   UNL     1       1.679   3.902  20.872  0.00  0.00    +0.000 S 
ATOM      8  N   UNL     1       1.053   5.433  20.808  0.00  0.00    +0.000 NA
ATOM      9  C   UNL     1       1.900   6.198  20.123  0.00  0.00    +0.000 A 
ATOM     10  C   UNL     1       3.091   5.587  19.609  0.00  0.00    +0.000 A 
ATOM     11  C   UNL     1       4.184   6.093  18.861  0.00  0.00    +0.000 A 
ENDBRANCH   1   3
BRANCH   1  12
ATOM     12  C   UNL     1       7.307   4.929  17.144  0.00  0.00    +0.000 C 
BRANCH  12  16
ATOM     13  C   UNL     1       7.907   5.537  12.251  0.00  0.00    +0.000 C 
ATOM     14  C   UNL     1       7.298   4.936  13.466  0.00  0.00    +0.000 A 
ATOM     15  N   UNL     1       7.760   5.342  14.710  0.00  0.00    +0.000 NA
ATOM     16  C   UNL     1       7.105   4.710  15.664  0.00  0.00    +0.000 A 
ATOM     17  S   UNL     1       5.917   3.593  15.121  0.00  0.00    +0.000 S 
ATOM     18  C   UNL     1       6.288   3.988  13.498  0.00  0.00    +0.000 A 
ATOM     19  C   UNL     1       5.565   3.343  12.370  0.00  0.00    +0.000 C 
ENDBRANCH  12  16
ENDBRANCH   1  12
TORSDOF 3
ENDMDL
