MODEL 1
REMARK VINA RESULT:      -8.2      0.000      0.000
REMARK  Name = 
REMARK  5 active torsions:
REMARK  status: ('A' for Active; 'I' for Inactive)
REMARK    1  A    between atoms: C_1  and  S_2
REMARK    2  A    between atoms: S_2  and  C_5
REMARK    3  A    between atoms: C_8  and  O_9
REMARK    4  A    between atoms: O_9  and  C_10
REMARK    5  A    between atoms: C_19  and  N_20
REMARK                            x       y       z     vdW  Elec       q    Type
REMARK                         _______ _______ _______ _____ _____    ______ ____
ROOT
ATOM      1  C   UNL     1       3.013   5.684  18.147  0.00  0.00    +0.000 C 
ATOM      2  C   UNL     1       2.215   4.442  18.565  0.00  0.00    +0.000 A 
ATOM      3  C   UNL     1       1.634   4.231  19.810  0.00  0.00    +0.000 A 
ATOM      4  C   UNL     1       1.554   2.915  20.286  0.00  0.00    +0.000 A 
ATOM      5 CL   UNL     1       1.037   2.630  21.906  0.00  0.00    +0.000 Cl
ATOM      6  C   UNL     1       2.001   1.829  19.517  0.00  0.00    +0.000 A 
ATOM      7  C   UNL     1       2.475   2.036  18.223  0.00  0.00    +0.000 A 
ATOM      8  C   UNL     1       2.573   3.343  17.765  0.00  0.00    +0.000 A 
ATOM      9  C   UNL     1       3.355   3.804  16.581  0.00  0.00    +0.000 C 
ATOM     10  C   UNL     1       4.093   5.025  17.191  0.00  0.00    +0.000 C 
ENDROOT
BRANCH  10  11
ATOM     11  N   UNL     1       5.403   4.773  17.871  0.00  0.00    +0.000 NA
ATOM     12  C   UNL     1       5.629   5.717  18.984  0.00  0.00    +0.000 C 
ATOM     13  C   UNL     1       6.958   5.448  19.723  0.00  0.00    +0.000 C 
ATOM     14  N   UNL     1       8.121   5.468  18.823  0.00  0.00    +0.000 NA
ATOM     15  C   UNL     1       7.907   4.503  17.740  0.00  0.00    +0.000 C 
ATOM     16  C   UNL     1       6.589   4.761  16.990  0.00  0.00    +0.000 C 
ATOM     17  H   UNL     1       8.957   5.211  19.346  0.00  0.00    +0.000 HD
ENDBRANCH  10  11
BRANCH   1  18
ATOM     18  O   UNL     1       2.306   6.752  17.495  0.00  0.00    +0.000 OA
BRANCH  18  22
ATOM     19  C   UNL     1       1.032   9.674  20.213  0.00  0.00    +0.000 A 
ATOM     20  C   UNL     1       1.488   8.427  20.656  0.00  0.00    +0.000 A 
ATOM     21  C   UNL     1       1.973   7.492  19.726  0.00  0.00    +0.000 A 
ATOM     22  C   UNL     1       1.976   7.788  18.359  0.00  0.00    +0.000 A 
ATOM     23  C   UNL     1       1.573   9.068  17.944  0.00  0.00    +0.000 A 
ATOM     24  C   UNL     1       1.084  10.001  18.861  0.00  0.00    +0.000 A 
BRANCH  19  26
ATOM     25  C   UNL     1       0.042   9.854  22.835  0.00  0.00    +0.000 C 
ATOM     26  S   UNL     1       0.222  10.789  21.339  0.00  0.00    +0.000 S 
ATOM     27  O   UNL     1      -1.102  11.047  20.813  0.00  0.00    +0.000 OA
ATOM     28  O   UNL     1       1.139  11.884  21.607  0.00  0.00    +0.000 OA
ENDBRANCH  19  26
ENDBRANCH  18  22
ENDBRANCH   1  18
TORSDOF 4
ENDMDL
MODEL 2
REMARK VINA RESULT:      -8.2      0.732      1.281
REMARK  Name = 
REMARK  5 active torsions:
REMARK  status: ('A' for Active; 'I' for Inactive)
REMARK    1  A    between atoms: C_1  and  S_2
REMARK    2  A    between atoms: S_2  and  C_5
REMARK    3  A    between atoms: C_8  and  O_9
REMARK    4  A    between atoms: O_9  and  C_10
REMARK    5  A    between atoms: C_19  and  N_20
REMARK                            x       y       z     vdW  Elec       q    Type
REMARK                         _______ _______ _______ _____ _____    ______ ____
ROOT
ATOM      1  C   UNL     1       3.103   5.841  18.237  0.00  0.00    +0.000 C 
ATOM      2  C   UNL     1       2.252   4.615  18.595  0.00  0.00    +0.000 A 
ATOM      3  C   UNL     1       1.670   4.364  19.832  0.00  0.00    +0.000 A 
ATOM      4  C   UNL     1       1.533   3.028  20.238  0.00  0.00    +0.000 A 
ATOM      5 CL   UNL     1       1.014   2.680  21.845  0.00  0.00    +0.000 Cl
ATOM      6  C   UNL     1       1.924   1.967  19.407  0.00  0.00    +0.000 A 
ATOM      7  C   UNL     1       2.398   2.222  18.122  0.00  0.00    +0.000 A 
ATOM      8  C   UNL     1       2.554   3.546  17.734  0.00  0.00    +0.000 A 
ATOM      9  C   UNL     1       3.348   4.035  16.569  0.00  0.00    +0.000 C 
ATOM     10  C   UNL     1       4.145   5.185  17.238  0.00  0.00    +0.000 C 
ENDROOT
BRANCH  10  11
ATOM     11  N   UNL     1       5.447   4.839  17.891  0.00  0.00    +0.000 NA
ATOM     12  C   UNL     1       5.726   5.713  19.048  0.00  0.00    +0.000 C 
ATOM     13  C   UNL     1       7.046   5.344  19.758  0.00  0.00    +0.000 C 
ATOM     14  N   UNL     1       8.203   5.355  18.849  0.00  0.00    +0.000 NA
ATOM     15  C   UNL     1       7.934   4.457  17.722  0.00  0.00    +0.000 C 
ATOM     16  C   UNL     1       6.624   4.814  16.998  0.00  0.00    +0.000 C 
ATOM     17  H   UNL     1       9.029   5.032  19.350  0.00  0.00    +0.000 HD
ENDBRANCH  10  11
BRANCH   1  18
ATOM     18  O   UNL     1       2.441   6.973  17.650  0.00  0.00    +0.000 OA
BRANCH  18  22
ATOM     19  C   UNL     1       0.861   9.735  20.376  0.00  0.00    +0.000 A 
ATOM     20  C   UNL     1       0.684   9.900  18.998  0.00  0.00    +0.000 A 
ATOM     21  C   UNL     1       1.166   8.922  18.111  0.00  0.00    +0.000 A 
ATOM     22  C   UNL     1       1.847   7.801  18.595  0.00  0.00    +0.000 A 
ATOM     23  C   UNL     1       1.957   7.625  19.984  0.00  0.00    +0.000 A 
ATOM     24  C   UNL     1       1.486   8.595  20.871  0.00  0.00    +0.000 A 
BRANCH  19  26
ATOM     25  C   UNL     1      -1.124  11.641  20.936  0.00  0.00    +0.000 C 
ATOM     26  S   UNL     1       0.450  11.051  21.500  0.00  0.00    +0.000 S 
ATOM     27  O   UNL     1       1.419  12.107  21.301  0.00  0.00    +0.000 OA
ATOM     28  O   UNL     1       0.258  10.461  22.815  0.00  0.00    +0.000 OA
ENDBRANCH  19  26
ENDBRANCH  18  22
ENDBRANCH   1  18
TORSDOF 4
ENDMDL
MODEL 3
REMARK VINA RESULT:      -8.0      4.735      8.337
REMARK  Name = 
REMARK  5 active torsions:
REMARK  status: ('A' for Active; 'I' for Inactive)
REMARK    1  A    between atoms: C_1  and  S_2
REMARK    2  A    between atoms: S_2  and  C_5
REMARK    3  A    between atoms: C_8  and  O_9
REMARK    4  A    between atoms: O_9  and  C_10
REMARK    5  A    between atoms: C_19  and  N_20
REMARK                            x       y       z     vdW  Elec       q    Type
REMARK                         _______ _______ _______ _____ _____    ______ ____
ROOT
ATOM      1  C   UNL     1       0.466  10.583  19.266  0.00  0.00    +0.000 C 
ATOM      2  C   UNL     1      -0.969  10.443  18.740  0.00  0.00    +0.000 A 
ATOM      3  C   UNL     1      -1.336   9.877  17.525  0.00  0.00    +0.000 A 
ATOM      4  C   UNL     1      -2.471  10.385  16.876  0.00  0.00    +0.000 A 
ATOM      5 CL   UNL     1      -2.839   9.860  15.276  0.00  0.00    +0.000 Cl
ATOM      6  C   UNL     1      -3.248  11.402  17.451  0.00  0.00    +0.000 A 
ATOM      7  C   UNL     1      -2.942  11.884  18.722  0.00  0.00    +0.000 A 
ATOM      8  C   UNL     1      -1.804  11.395  19.349  0.00  0.00    +0.000 A 
ATOM      9  C   UNL     1      -1.115  12.003  20.524  0.00  0.00    +0.000 C 
ATOM     10  C   UNL     1       0.356  11.964  20.036  0.00  0.00    +0.000 C 
ENDROOT
BRANCH  10  11
ATOM     11  N   UNL     1       0.851  13.126  19.232  0.00  0.00    +0.000 NA
ATOM     12  C   UNL     1       2.309  13.055  19.012  0.00  0.00    +0.000 C 
ATOM     13  C   UNL     1       2.832  14.225  18.150  0.00  0.00    +0.000 C 
ATOM     14  N   UNL     1       2.487  15.541  18.710  0.00  0.00    +0.000 NA
ATOM     15  C   UNL     1       1.034  15.619  18.892  0.00  0.00    +0.000 C 
ATOM     16  C   UNL     1       0.498  14.462  19.754  0.00  0.00    +0.000 C 
ATOM     17  H   UNL     1       2.788  16.271  18.067  0.00  0.00    +0.000 HD
ENDBRANCH  10  11
BRANCH   1  18
ATOM     18  O   UNL     1       0.979   9.540  20.111  0.00  0.00    +0.000 OA
BRANCH  18  22
ATOM     19  C   UNL     1       3.298   6.598  18.237  0.00  0.00    +0.000 A 
ATOM     20  C   UNL     1       2.731   6.375  19.497  0.00  0.00    +0.000 A 
ATOM     21  C   UNL     1       1.902   7.353  20.071  0.00  0.00    +0.000 A 
ATOM     22  C   UNL     1       1.664   8.560  19.405  0.00  0.00    +0.000 A 
ATOM     23  C   UNL     1       2.191   8.735  18.116  0.00  0.00    +0.000 A 
ATOM     24  C   UNL     1       3.022   7.770  17.541  0.00  0.00    +0.000 A 
BRANCH  19  26
ATOM     25  C   UNL     1       5.651   5.226  18.922  0.00  0.00    +0.000 C 
ATOM     26  S   UNL     1       4.514   5.473  17.585  0.00  0.00    +0.000 S 
ATOM     27  O   UNL     1       5.215   6.164  16.525  0.00  0.00    +0.000 OA
ATOM     28  O   UNL     1       3.847   4.207  17.330  0.00  0.00    +0.000 OA
ENDBRANCH  19  26
ENDBRANCH  18  22
ENDBRANCH   1  18
TORSDOF 4
ENDMDL
MODEL 4
REMARK VINA RESULT:      -8.0      4.697      8.350
REMARK  Name = 
REMARK  5 active torsions:
REMARK  status: ('A' for Active; 'I' for Inactive)
REMARK    1  A    between atoms: C_1  and  S_2
REMARK    2  A    between atoms: S_2  and  C_5
REMARK    3  A    between atoms: C_8  and  O_9
REMARK    4  A    between atoms: O_9  and  C_10
REMARK    5  A    between atoms: C_19  and  N_20
REMARK                            x       y       z     vdW  Elec       q    Type
REMARK                         _______ _______ _______ _____ _____    ______ ____
ROOT
ATOM      1  C   UNL     1       0.036  10.407  19.317  0.00  0.00    +0.000 C 
ATOM      2  C   UNL     1      -1.347  10.336  18.654  0.00  0.00    +0.000 A 
ATOM      3  C   UNL     1      -1.626   9.765  17.418  0.00  0.00    +0.000 A 
ATOM      4  C   UNL     1      -2.661  10.321  16.653  0.00  0.00    +0.000 A 
ATOM      5 CL   UNL     1      -2.901   9.782  15.034  0.00  0.00    +0.000 Cl
ATOM      6  C   UNL     1      -3.431  11.392  17.132  0.00  0.00    +0.000 A 
ATOM      7  C   UNL     1      -3.223  11.885  18.418  0.00  0.00    +0.000 A 
ATOM      8  C   UNL     1      -2.182  11.346  19.163  0.00  0.00    +0.000 A 
ATOM      9  C   UNL     1      -1.577  11.942  20.390  0.00  0.00    +0.000 C 
ATOM     10  C   UNL     1      -0.069  11.810  20.050  0.00  0.00    +0.000 C 
ENDROOT
BRANCH  10  11
ATOM     11  N   UNL     1       0.568  12.924  19.279  0.00  0.00    +0.000 NA
ATOM     12  C   UNL     1       2.027  12.735  19.154  0.00  0.00    +0.000 C 
ATOM     13  C   UNL     1       2.696  13.855  18.328  0.00  0.00    +0.000 C 
ATOM     14  N   UNL     1       2.423  15.197  18.864  0.00  0.00    +0.000 NA
ATOM     15  C   UNL     1       0.972  15.392  18.952  0.00  0.00    +0.000 C 
ATOM     16  C   UNL     1       0.290  14.287  19.778  0.00  0.00    +0.000 C 
ATOM     17  H   UNL     1       2.822  15.898  18.242  0.00  0.00    +0.000 HD
ENDBRANCH  10  11
BRANCH   1  18
ATOM     18  O   UNL     1       0.402   9.357  20.226  0.00  0.00    +0.000 OA
BRANCH  18  22
ATOM     19  C   UNL     1       3.146   6.758  18.417  0.00  0.00    +0.000 A 
ATOM     20  C   UNL     1       2.740   7.936  17.780  0.00  0.00    +0.000 A 
ATOM     21  C   UNL     1       1.872   8.823  18.440  0.00  0.00    +0.000 A 
ATOM     22  C   UNL     1       1.387   8.520  19.716  0.00  0.00    +0.000 A 
ATOM     23  C   UNL     1       1.856   7.365  20.361  0.00  0.00    +0.000 A 
ATOM     24  C   UNL     1       2.715   6.476  19.709  0.00  0.00    +0.000 A 
BRANCH  19  26
ATOM     25  C   UNL     1       5.315   4.993  18.669  0.00  0.00    +0.000 C 
ATOM     26  S   UNL     1       4.070   5.526  17.526  0.00  0.00    +0.000 S 
ATOM     27  O   UNL     1       4.731   6.194  16.426  0.00  0.00    +0.000 OA
ATOM     28  O   UNL     1       3.181   4.402  17.283  0.00  0.00    +0.000 OA
ENDBRANCH  19  26
ENDBRANCH  18  22
ENDBRANCH   1  18
TORSDOF 4
ENDMDL
MODEL 5
REMARK VINA RESULT:      -7.9      4.541      8.079
REMARK  Name = 
REMARK  5 active torsions:
REMARK  status: ('A' for Active; 'I' for Inactive)
REMARK    1  A    between atoms: C_1  and  S_2
REMARK    2  A    between atoms: S_2  and  C_5
REMARK    3  A    between atoms: C_8  and  O_9
REMARK    4  A    between atoms: O_9  and  C_10
REMARK    5  A    between atoms: C_19  and  N_20
REMARK                            x       y       z     vdW  Elec       q    Type
REMARK                         _______ _______ _______ _____ _____    ______ ____
ROOT
ATOM      1  C   UNL     1       0.676  10.209  19.468  0.00  0.00    +0.000 C 
ATOM      2  C   UNL     1      -0.757  10.263  18.922  0.00  0.00    +0.000 A 
ATOM      3  C   UNL     1      -1.155   9.877  17.646  0.00  0.00    +0.000 A 
ATOM      4  C   UNL     1      -2.229  10.558  17.056  0.00  0.00    +0.000 A 
ATOM      5 CL   UNL     1      -2.616  10.259  15.404  0.00  0.00    +0.000 Cl
ATOM      6  C   UNL     1      -2.920  11.568  17.742  0.00  0.00    +0.000 A 
ATOM      7  C   UNL     1      -2.593  11.870  19.062  0.00  0.00    +0.000 A 
ATOM      8  C   UNL     1      -1.514  11.209  19.634  0.00  0.00    +0.000 A 
ATOM      9  C   UNL     1      -0.792  11.612  20.876  0.00  0.00    +0.000 C 
ATOM     10  C   UNL     1       0.678  11.495  20.395  0.00  0.00    +0.000 C 
ENDROOT
BRANCH  10  11
ATOM     11  N   UNL     1       1.288  12.693  19.735  0.00  0.00    +0.000 NA
ATOM     12  C   UNL     1       2.206  12.306  18.645  0.00  0.00    +0.000 C 
ATOM     13  C   UNL     1       2.815  13.529  17.926  0.00  0.00    +0.000 C 
ATOM     14  N   UNL     1       3.511  14.440  18.847  0.00  0.00    +0.000 NA
ATOM     15  C   UNL     1       2.584  14.850  19.907  0.00  0.00    +0.000 C 
ATOM     16  C   UNL     1       1.972  13.642  20.638  0.00  0.00    +0.000 C 
ATOM     17  H   UNL     1       3.825  15.263  18.336  0.00  0.00    +0.000 HD
ENDBRANCH  10  11
BRANCH   1  18
ATOM     18  O   UNL     1       1.079   9.033  20.189  0.00  0.00    +0.000 OA
BRANCH  18  22
ATOM     19  C   UNL     1       3.577   6.387  18.112  0.00  0.00    +0.000 A 
ATOM     20  C   UNL     1       3.004   6.027  19.337  0.00  0.00    +0.000 A 
ATOM     21  C   UNL     1       2.116   6.907  19.978  0.00  0.00    +0.000 A 
ATOM     22  C   UNL     1       1.824   8.153  19.414  0.00  0.00    +0.000 A 
ATOM     23  C   UNL     1       2.361   8.467  18.154  0.00  0.00    +0.000 A 
ATOM     24  C   UNL     1       3.249   7.600  17.514  0.00  0.00    +0.000 A 
BRANCH  19  26
ATOM     25  C   UNL     1       5.270   6.217  15.878  0.00  0.00    +0.000 C 
ATOM     26  S   UNL     1       4.859   5.387  17.389  0.00  0.00    +0.000 S 
ATOM     27  O   UNL     1       4.269   4.110  17.049  0.00  0.00    +0.000 OA
ATOM     28  O   UNL     1       6.017   5.458  18.265  0.00  0.00    +0.000 OA
ENDBRANCH  19  26
ENDBRANCH  18  22
ENDBRANCH   1  18
TORSDOF 4
ENDMDL
MODEL 6
REMARK VINA RESULT:      -7.7      2.605      4.356
REMARK  Name = 
REMARK  5 active torsions:
REMARK  status: ('A' for Active; 'I' for Inactive)
REMARK    1  A    between atoms: C_1  and  S_2
REMARK    2  A    between atoms: S_2  and  C_5
REMARK    3  A    between atoms: C_8  and  O_9
REMARK    4  A    between atoms: O_9  and  C_10
REMARK    5  A    between atoms: C_19  and  N_20
REMARK                            x       y       z     vdW  Elec       q    Type
REMARK                         _______ _______ _______ _____ _____    ______ ____
ROOT
ATOM      1  C   UNL     1       3.897   6.273  17.309  0.00  0.00    +0.000 C 
ATOM      2  C   UNL     1       5.165   5.894  16.532  0.00  0.00    +0.000 A 
ATOM      3  C   UNL     1       5.222   5.558  15.184  0.00  0.00    +0.000 A 
ATOM      4  C   UNL     1       6.191   4.630  14.776  0.00  0.00    +0.000 A 
ATOM      5 CL   UNL     1       6.160   4.028  13.161  0.00  0.00    +0.000 Cl
ATOM      6  C   UNL     1       7.114   4.088  15.683  0.00  0.00    +0.000 A 
ATOM      7  C   UNL     1       7.127   4.516  17.009  0.00  0.00    +0.000 A 
ATOM      8  C   UNL     1       6.151   5.417  17.414  0.00  0.00    +0.000 A 
ATOM      9  C   UNL     1       5.774   5.733  18.822  0.00  0.00    +0.000 C 
ATOM     10  C   UNL     1       4.228   5.642  18.725  0.00  0.00    +0.000 C 
ENDROOT
BRANCH  10  11
ATOM     11  N   UNL     1       3.598   4.300  18.931  0.00  0.00    +0.000 NA
ATOM     12  C   UNL     1       4.600   3.277  19.292  0.00  0.00    +0.000 C 
ATOM     13  C   UNL     1       3.964   1.894  19.546  0.00  0.00    +0.000 C 
ATOM     14  N   UNL     1       3.169   1.415  18.405  0.00  0.00    +0.000 NA
ATOM     15  C   UNL     1       2.152   2.419  18.075  0.00  0.00    +0.000 C 
ATOM     16  C   UNL     1       2.771   3.803  17.812  0.00  0.00    +0.000 C 
ATOM     17  H   UNL     1       2.713   0.539  18.654  0.00  0.00    +0.000 HD
ENDBRANCH  10  11
BRANCH   1  18
ATOM     18  O   UNL     1       3.561   7.666  17.412  0.00  0.00    +0.000 OA
BRANCH  18  22
ATOM     19  C   UNL     1       0.974   8.758  20.521  0.00  0.00    +0.000 A 
ATOM     20  C   UNL     1       1.070   9.530  19.357  0.00  0.00    +0.000 A 
ATOM     21  C   UNL     1       1.894   9.103  18.303  0.00  0.00    +0.000 A 
ATOM     22  C   UNL     1       2.643   7.927  18.420  0.00  0.00    +0.000 A 
ATOM     23  C   UNL     1       2.483   7.136  19.570  0.00  0.00    +0.000 A 
ATOM     24  C   UNL     1       1.669   7.557  20.625  0.00  0.00    +0.000 A 
BRANCH  19  26
ATOM     25  C   UNL     1      -0.625  10.896  21.392  0.00  0.00    +0.000 C 
ATOM     26  S   UNL     1       0.106   9.379  21.945  0.00  0.00    +0.000 S 
ATOM     27  O   UNL     1       1.099   9.702  22.947  0.00  0.00    +0.000 OA
ATOM     28  O   UNL     1      -0.971   8.449  22.242  0.00  0.00    +0.000 OA
ENDBRANCH  19  26
ENDBRANCH  18  22
ENDBRANCH   1  18
TORSDOF 4
ENDMDL
MODEL 7
REMARK VINA RESULT:      -7.7      0.916      1.406
REMARK  Name = 
REMARK  5 active torsions:
REMARK  status: ('A' for Active; 'I' for Inactive)
REMARK    1  A    between atoms: C_1  and  S_2
REMARK    2  A    between atoms: S_2  and  C_5
REMARK    3  A    between atoms: C_8  and  O_9
REMARK    4  A    between atoms: O_9  and  C_10
REMARK    5  A    between atoms: C_19  and  N_20
REMARK                            x       y       z     vdW  Elec       q    Type
REMARK                         _______ _______ _______ _____ _____    ______ ____
ROOT
ATOM      1  C   UNL     1       3.101   6.019  18.100  0.00  0.00    +0.000 C 
ATOM      2  C   UNL     1       2.646   4.622  18.546  0.00  0.00    +0.000 A 
ATOM      3  C   UNL     1       2.275   4.263  19.836  0.00  0.00    +0.000 A 
ATOM      4  C   UNL     1       2.539   2.951  20.257  0.00  0.00    +0.000 A 
ATOM      5 CL   UNL     1       2.291   2.526  21.909  0.00  0.00    +0.000 Cl
ATOM      6  C   UNL     1       3.115   2.007  19.393  0.00  0.00    +0.000 A 
ATOM      7  C   UNL     1       3.377   2.340  18.066  0.00  0.00    +0.000 A 
ATOM      8  C   UNL     1       3.136   3.646  17.661  0.00  0.00    +0.000 A 
ATOM      9  C   UNL     1       3.653   4.293  16.420  0.00  0.00    +0.000 C 
ATOM     10  C   UNL     1       4.177   5.632  17.001  0.00  0.00    +0.000 C 
ENDROOT
BRANCH  10  11
ATOM     11  N   UNL     1       5.582   5.661  17.519  0.00  0.00    +0.000 NA
ATOM     12  C   UNL     1       6.398   4.574  16.943  0.00  0.00    +0.000 C 
ATOM     13  C   UNL     1       7.860   4.611  17.436  0.00  0.00    +0.000 C 
ATOM     14  N   UNL     1       7.966   4.575  18.902  0.00  0.00    +0.000 NA
ATOM     15  C   UNL     1       7.183   5.679  19.467  0.00  0.00    +0.000 C 
ATOM     16  C   UNL     1       5.721   5.653  18.990  0.00  0.00    +0.000 C 
ATOM     17  H   UNL     1       8.943   4.678  19.174  0.00  0.00    +0.000 HD
ENDBRANCH  10  11
BRANCH   1  18
ATOM     18  O   UNL     1       2.108   6.918  17.581  0.00  0.00    +0.000 OA
BRANCH  18  22
ATOM     19  C   UNL     1       1.092  10.003  20.227  0.00  0.00    +0.000 A 
ATOM     20  C   UNL     1       1.452   8.736  20.700  0.00  0.00    +0.000 A 
ATOM     21  C   UNL     1       1.854   7.741  19.793  0.00  0.00    +0.000 A 
ATOM     22  C   UNL     1       1.868   7.999  18.419  0.00  0.00    +0.000 A 
ATOM     23  C   UNL     1       1.564   9.295  17.972  0.00  0.00    +0.000 A 
ATOM     24  C   UNL     1       1.158  10.288  18.867  0.00  0.00    +0.000 A 
BRANCH  19  26
ATOM     25  C   UNL     1      -1.173  11.622  20.588  0.00  0.00    +0.000 C 
ATOM     26  S   UNL     1       0.382  11.207  21.328  0.00  0.00    +0.000 S 
ATOM     27  O   UNL     1       1.225  12.383  21.283  0.00  0.00    +0.000 OA
ATOM     28  O   UNL     1       0.109  10.539  22.590  0.00  0.00    +0.000 OA
ENDBRANCH  19  26
ENDBRANCH  18  22
ENDBRANCH   1  18
TORSDOF 4
ENDMDL
MODEL 8
REMARK VINA RESULT:      -7.7      1.019      1.020
REMARK  Name = 
REMARK  5 active torsions:
REMARK  status: ('A' for Active; 'I' for Inactive)
REMARK    1  A    between atoms: C_1  and  S_2
REMARK    2  A    between atoms: S_2  and  C_5
REMARK    3  A    between atoms: C_8  and  O_9
REMARK    4  A    between atoms: O_9  and  C_10
REMARK    5  A    between atoms: C_19  and  N_20
REMARK                            x       y       z     vdW  Elec       q    Type
REMARK                         _______ _______ _______ _____ _____    ______ ____
ROOT
ATOM      1  C   UNL     1       3.404   6.051  18.017  0.00  0.00    +0.000 C 
ATOM      2  C   UNL     1       2.966   4.643  18.443  0.00  0.00    +0.000 A 
ATOM      3  C   UNL     1       2.551   4.273  19.718  0.00  0.00    +0.000 A 
ATOM      4  C   UNL     1       2.830   2.969  20.149  0.00  0.00    +0.000 A 
ATOM      5 CL   UNL     1       2.525   2.536  21.789  0.00  0.00    +0.000 Cl
ATOM      6  C   UNL     1       3.464   2.040  19.310  0.00  0.00    +0.000 A 
ATOM      7  C   UNL     1       3.772   2.381  17.994  0.00  0.00    +0.000 A 
ATOM      8  C   UNL     1       3.516   3.681  17.580  0.00  0.00    +0.000 A 
ATOM      9  C   UNL     1       4.068   4.342  16.361  0.00  0.00    +0.000 C 
ATOM     10  C   UNL     1       4.534   5.693  16.963  0.00  0.00    +0.000 C 
ENDROOT
BRANCH  10  11
ATOM     11  N   UNL     1       5.914   5.757  17.539  0.00  0.00    +0.000 NA
ATOM     12  C   UNL     1       5.924   5.402  18.972  0.00  0.00    +0.000 C 
ATOM     13  C   UNL     1       7.346   5.424  19.574  0.00  0.00    +0.000 C 
ATOM     14  N   UNL     1       8.021   6.717  19.387  0.00  0.00    +0.000 NA
ATOM     15  C   UNL     1       8.041   7.047  17.959  0.00  0.00    +0.000 C 
ATOM     16  C   UNL     1       6.630   7.035  17.345  0.00  0.00    +0.000 C 
ATOM     17  H   UNL     1       8.977   6.652  19.733  0.00  0.00    +0.000 HD
ENDBRANCH  10  11
BRANCH   1  18
ATOM     18  O   UNL     1       2.411   6.926  17.457  0.00  0.00    +0.000 OA
BRANCH  18  22
ATOM     19  C   UNL     1       1.011   9.805  20.160  0.00  0.00    +0.000 A 
ATOM     20  C   UNL     1       1.431   8.545  20.601  0.00  0.00    +0.000 A 
ATOM     21  C   UNL     1       1.960   7.624  19.681  0.00  0.00    +0.000 A 
ATOM     22  C   UNL     1       2.041   7.948  18.323  0.00  0.00    +0.000 A 
ATOM     23  C   UNL     1       1.674   9.239  17.912  0.00  0.00    +0.000 A 
ATOM     24  C   UNL     1       1.141  10.158  18.820  0.00  0.00    +0.000 A 
BRANCH  19  26
ATOM     25  C   UNL     1      -0.149   9.933  22.714  0.00  0.00    +0.000 C 
ATOM     26  S   UNL     1       0.148  10.904  21.262  0.00  0.00    +0.000 S 
ATOM     27  O   UNL     1      -1.132  11.204  20.656  0.00  0.00    +0.000 OA
ATOM     28  O   UNL     1       1.066  11.973  21.622  0.00  0.00    +0.000 OA
ENDBRANCH  19  26
ENDBRANCH  18  22
ENDBRANCH   1  18
TORSDOF 4
ENDMDL
MODEL 9
REMARK VINA RESULT:      -7.7      4.581      8.195
REMARK  Name = 
REMARK  5 active torsions:
REMARK  status: ('A' for Active; 'I' for Inactive)
REMARK    1  A    between atoms: C_1  and  S_2
REMARK    2  A    between atoms: S_2  and  C_5
REMARK    3  A    between atoms: C_8  and  O_9
REMARK    4  A    between atoms: O_9  and  C_10
REMARK    5  A    between atoms: C_19  and  N_20
REMARK                            x       y       z     vdW  Elec       q    Type
REMARK                         _______ _______ _______ _____ _____    ______ ____
ROOT
ATOM      1  C   UNL     1       0.826  10.070  19.666  0.00  0.00    +0.000 C 
ATOM      2  C   UNL     1      -0.614  10.295  19.188  0.00  0.00    +0.000 A 
ATOM      3  C   UNL     1      -1.081  10.092  17.894  0.00  0.00    +0.000 A 
ATOM      4  C   UNL     1      -2.116  10.917  17.429  0.00  0.00    +0.000 A 
ATOM      5 CL   UNL     1      -2.577  10.843  15.770  0.00  0.00    +0.000 Cl
ATOM      6  C   UNL     1      -2.703  11.889  18.253  0.00  0.00    +0.000 A 
ATOM      7  C   UNL     1      -2.311  12.008  19.585  0.00  0.00    +0.000 A 
ATOM      8  C   UNL     1      -1.271  11.205  20.033  0.00  0.00    +0.000 A 
ATOM      9  C   UNL     1      -0.480  11.405  21.283  0.00  0.00    +0.000 C 
ATOM     10  C   UNL     1       0.960  11.235  20.733  0.00  0.00    +0.000 C 
ENDROOT
BRANCH  10  11
ATOM     11  N   UNL     1       1.642  12.453  20.190  0.00  0.00    +0.000 NA
ATOM     12  C   UNL     1       0.928  13.690  20.562  0.00  0.00    +0.000 C 
ATOM     13  C   UNL     1       1.638  14.958  20.043  0.00  0.00    +0.000 C 
ATOM     14  N   UNL     1       1.848  14.937  18.588  0.00  0.00    +0.000 NA
ATOM     15  C   UNL     1       2.590  13.724  18.228  0.00  0.00    +0.000 C 
ATOM     16  C   UNL     1       1.891  12.449  18.733  0.00  0.00    +0.000 C 
ATOM     17  H   UNL     1       2.385  15.757  18.311  0.00  0.00    +0.000 HD
ENDBRANCH  10  11
BRANCH   1  18
ATOM     18  O   UNL     1       1.157   8.791  20.231  0.00  0.00    +0.000 OA
BRANCH  18  22
ATOM     19  C   UNL     1       3.738   6.434  17.920  0.00  0.00    +0.000 A 
ATOM     20  C   UNL     1       3.221   5.962  19.132  0.00  0.00    +0.000 A 
ATOM     21  C   UNL     1       2.304   6.746  19.851  0.00  0.00    +0.000 A 
ATOM     22  C   UNL     1       1.928   8.008  19.380  0.00  0.00    +0.000 A 
ATOM     23  C   UNL     1       2.411   8.435  18.132  0.00  0.00    +0.000 A 
ATOM     24  C   UNL     1       3.327   7.663  17.413  0.00  0.00    +0.000 A 
BRANCH  19  26
ATOM     25  C   UNL     1       4.465   3.891  16.977  0.00  0.00    +0.000 C 
ATOM     26  S   UNL     1       5.053   5.558  17.100  0.00  0.00    +0.000 S 
ATOM     27  O   UNL     1       6.194   5.563  17.990  0.00  0.00    +0.000 OA
ATOM     28  O   UNL     1       5.161   6.092  15.753  0.00  0.00    +0.000 OA
ENDBRANCH  19  26
ENDBRANCH  18  22
ENDBRANCH   1  18
TORSDOF 4
ENDMDL
