MODEL 1
REMARK VINA RESULT:      -7.3      0.000      0.000
REMARK  Name = 
REMARK  8 active torsions:
REMARK  status: ('A' for Active; 'I' for Inactive)
REMARK    1  A    between atoms: C_1  and  C_2
REMARK    2  A    between atoms: C_2  and  N_3
REMARK    3  A    between atoms: N_3  and  C_4
REMARK    4  A    between atoms: N_3  and  C_20
REMARK    5  A    between atoms: C_4  and  C_5
REMARK    6  A    between atoms: C_8  and  C_9
REMARK    7  A    between atoms: C_20  and  C_21
REMARK    8  A    between atoms: C_20  and  C_22
REMARK                            x       y       z     vdW  Elec       q    Type
REMARK                         _______ _______ _______ _____ _____    ______ ____
ROOT
ATOM      1  C   UNL     1       1.333   9.252  18.791  0.00  0.00    +0.000 A 
ATOM      2  C   UNL     1       1.575   8.577  19.982  0.00  0.00    +0.000 A 
ATOM      3  O   UNL     1       2.261   7.448  19.690  0.00  0.00    +0.000 OA
ATOM      4  C   UNL     1       2.468   7.510  18.334  0.00  0.00    +0.000 A 
ATOM      5  N   UNL     1       1.922   8.561  17.759  0.00  0.00    +0.000 NA
ENDROOT
BRANCH   4   6
ATOM      6  C   UNL     1       3.305   6.448  17.809  0.00  0.00    +0.000 A 
ATOM      7  C   UNL     1       4.556   6.826  17.289  0.00  0.00    +0.000 A 
ATOM      8  C   UNL     1       5.454   5.881  16.834  0.00  0.00    +0.000 A 
ATOM      9  C   UNL     1       5.105   4.532  16.865  0.00  0.00    +0.000 A 
ATOM     10  C   UNL     1       3.855   4.119  17.355  0.00  0.00    +0.000 A 
ATOM     11  C   UNL     1       3.530   2.752  17.389  0.00  0.00    +0.000 A 
ATOM     12  C   UNL     1       2.314   2.315  17.909  0.00  0.00    +0.000 A 
ATOM     13  C   UNL     1       1.403   3.240  18.404  0.00  0.00    +0.000 A 
ATOM     14  C   UNL     1       1.705   4.600  18.367  0.00  0.00    +0.000 A 
ATOM     15  C   UNL     1       2.929   5.075  17.840  0.00  0.00    +0.000 A 
ENDBRANCH   4   6
BRANCH   1  16
ATOM     16  C   UNL     1       0.613  10.535  18.576  0.00  0.00    +0.000 C 
BRANCH  16  17
ATOM     17  N   UNL     1      -0.865  10.442  18.711  0.00  0.00    +0.000 NA
BRANCH  17  18
ATOM     18  C   UNL     1      -1.472  11.745  19.141  0.00  0.00    +0.000 C 
ATOM     19  C   UNL     1      -1.439  11.949  20.670  0.00  0.00    +0.000 C 
ATOM     20  C   UNL     1      -0.847  13.014  18.532  0.00  0.00    +0.000 C 
ENDBRANCH  17  18
BRANCH  17  22
ATOM     21  C   UNL     1      -3.044   9.884  17.396  0.00  0.00    +0.000 C 
ATOM     22  C   UNL     1      -1.524   9.988  17.461  0.00  0.00    +0.000 C 
ENDBRANCH  17  22
ENDBRANCH  16  17
ENDBRANCH   1  16
TORSDOF 5
ENDMDL
MODEL 2
REMARK VINA RESULT:      -7.1      1.786      2.332
REMARK  Name = 
REMARK  8 active torsions:
REMARK  status: ('A' for Active; 'I' for Inactive)
REMARK    1  A    between atoms: C_1  and  C_2
REMARK    2  A    between atoms: C_2  and  N_3
REMARK    3  A    between atoms: N_3  and  C_4
REMARK    4  A    between atoms: N_3  and  C_20
REMARK    5  A    between atoms: C_4  and  C_5
REMARK    6  A    between atoms: C_8  and  C_9
REMARK    7  A    between atoms: C_20  and  C_21
REMARK    8  A    between atoms: C_20  and  C_22
REMARK                            x       y       z     vdW  Elec       q    Type
REMARK                         _______ _______ _______ _____ _____    ______ ____
ROOT
ATOM      1  C   UNL     1       1.497   8.791  19.855  0.00  0.00    +0.000 A 
ATOM      2  C   UNL     1       1.319   9.171  18.529  0.00  0.00    +0.000 A 
ATOM      3  O   UNL     1       1.952   8.267  17.747  0.00  0.00    +0.000 OA
ATOM      4  C   UNL     1       2.440   7.331  18.624  0.00  0.00    +0.000 A 
ATOM      5  N   UNL     1       2.201   7.611  19.889  0.00  0.00    +0.000 NA
ENDROOT
BRANCH   4   6
ATOM      6  C   UNL     1       3.058   6.183  17.989  0.00  0.00    +0.000 A 
ATOM      7  C   UNL     1       4.193   6.434  17.196  0.00  0.00    +0.000 A 
ATOM      8  C   UNL     1       4.896   5.399  16.610  0.00  0.00    +0.000 A 
ATOM      9  C   UNL     1       4.458   4.087  16.784  0.00  0.00    +0.000 A 
ATOM     10  C   UNL     1       3.316   3.801  17.550  0.00  0.00    +0.000 A 
ATOM     11  C   UNL     1       2.902   2.470  17.723  0.00  0.00    +0.000 A 
ATOM     12  C   UNL     1       1.796   2.158  18.512  0.00  0.00    +0.000 A 
ATOM     13  C   UNL     1       1.089   3.174  19.141  0.00  0.00    +0.000 A 
ATOM     14  C   UNL     1       1.479   4.501  18.971  0.00  0.00    +0.000 A 
ATOM     15  C   UNL     1       2.594   4.850  18.171  0.00  0.00    +0.000 A 
ENDBRANCH   4   6
BRANCH   1  16
ATOM     16  C   UNL     1       1.005   9.456  21.091  0.00  0.00    +0.000 C 
BRANCH  16  17
ATOM     17  N   UNL     1       0.243  10.710  20.853  0.00  0.00    +0.000 NA
BRANCH  17  18
ATOM     18  C   UNL     1      -0.803  10.937  21.904  0.00  0.00    +0.000 C 
ATOM     19  C   UNL     1      -0.671   9.977  23.105  0.00  0.00    +0.000 C 
ATOM     20  C   UNL     1      -0.862  12.356  22.503  0.00  0.00    +0.000 C 
ENDBRANCH  17  18
BRANCH  17  22
ATOM     21  C   UNL     1       1.222  12.689  19.471  0.00  0.00    +0.000 C 
ATOM     22  C   UNL     1       1.120  11.904  20.774  0.00  0.00    +0.000 C 
ENDBRANCH  17  22
ENDBRANCH  16  17
ENDBRANCH   1  16
TORSDOF 5
ENDMDL
MODEL 3
REMARK VINA RESULT:      -7.1      1.115      2.053
REMARK  Name = 
REMARK  8 active torsions:
REMARK  status: ('A' for Active; 'I' for Inactive)
REMARK    1  A    between atoms: C_1  and  C_2
REMARK    2  A    between atoms: C_2  and  N_3
REMARK    3  A    between atoms: N_3  and  C_4
REMARK    4  A    between atoms: N_3  and  C_20
REMARK    5  A    between atoms: C_4  and  C_5
REMARK    6  A    between atoms: C_8  and  C_9
REMARK    7  A    between atoms: C_20  and  C_21
REMARK    8  A    between atoms: C_20  and  C_22
REMARK                            x       y       z     vdW  Elec       q    Type
REMARK                         _______ _______ _______ _____ _____    ______ ____
ROOT
ATOM      1  C   UNL     1       1.448   9.045  19.055  0.00  0.00    +0.000 A 
ATOM      2  C   UNL     1       1.763   9.488  17.775  0.00  0.00    +0.000 A 
ATOM      3  O   UNL     1       2.631   8.605  17.229  0.00  0.00    +0.000 OA
ATOM      4  C   UNL     1       2.764   7.619  18.176  0.00  0.00    +0.000 A 
ATOM      5  N   UNL     1       2.086   7.849  19.282  0.00  0.00    +0.000 NA
ENDROOT
BRANCH   4   6
ATOM      6  C   UNL     1       3.564   6.487  17.751  0.00  0.00    +0.000 A 
ATOM      7  C   UNL     1       4.874   6.765  17.319  0.00  0.00    +0.000 A 
ATOM      8  C   UNL     1       5.738   5.747  16.965  0.00  0.00    +0.000 A 
ATOM      9  C   UNL     1       5.296   4.425  17.009  0.00  0.00    +0.000 A 
ATOM     10  C   UNL     1       3.987   4.113  17.411  0.00  0.00    +0.000 A 
ATOM     11  C   UNL     1       3.569   2.772  17.462  0.00  0.00    +0.000 A 
ATOM     12  C   UNL     1       2.289   2.435  17.897  0.00  0.00    +0.000 A 
ATOM     13  C   UNL     1       1.409   3.434  18.291  0.00  0.00    +0.000 A 
ATOM     14  C   UNL     1       1.804   4.769  18.238  0.00  0.00    +0.000 A 
ATOM     15  C   UNL     1       3.094   5.144  17.794  0.00  0.00    +0.000 A 
ENDBRANCH   4   6
BRANCH   1  16
ATOM     16  C   UNL     1       0.546   9.666  20.061  0.00  0.00    +0.000 C 
BRANCH  16  17
ATOM     17  N   UNL     1       0.389  11.138  19.922  0.00  0.00    +0.000 NA
BRANCH  17  18
ATOM     18  C   UNL     1      -0.949  11.506  19.352  0.00  0.00    +0.000 C 
ATOM     19  C   UNL     1      -0.880  12.699  18.376  0.00  0.00    +0.000 C 
ATOM     20  C   UNL     1      -1.693  10.387  18.599  0.00  0.00    +0.000 C 
ENDBRANCH  17  18
BRANCH  17  22
ATOM     21  C   UNL     1      -0.615  12.170  22.093  0.00  0.00    +0.000 C 
ATOM     22  C   UNL     1       0.585  11.856  21.206  0.00  0.00    +0.000 C 
ENDBRANCH  17  22
ENDBRANCH  16  17
ENDBRANCH   1  16
TORSDOF 5
ENDMDL
MODEL 4
REMARK VINA RESULT:      -7.1      1.653      2.371
REMARK  Name = 
REMARK  8 active torsions:
REMARK  status: ('A' for Active; 'I' for Inactive)
REMARK    1  A    between atoms: C_1  and  C_2
REMARK    2  A    between atoms: C_2  and  N_3
REMARK    3  A    between atoms: N_3  and  C_4
REMARK    4  A    between atoms: N_3  and  C_20
REMARK    5  A    between atoms: C_4  and  C_5
REMARK    6  A    between atoms: C_8  and  C_9
REMARK    7  A    between atoms: C_20  and  C_21
REMARK    8  A    between atoms: C_20  and  C_22
REMARK                            x       y       z     vdW  Elec       q    Type
REMARK                         _______ _______ _______ _____ _____    ______ ____
ROOT
ATOM      1  C   UNL     1       1.386   8.965  18.978  0.00  0.00    +0.000 A 
ATOM      2  C   UNL     1       1.797   9.449  17.741  0.00  0.00    +0.000 A 
ATOM      3  O   UNL     1       2.711   8.589  17.238  0.00  0.00    +0.000 OA
ATOM      4  C   UNL     1       2.776   7.574  18.161  0.00  0.00    +0.000 A 
ATOM      5  N   UNL     1       2.012   7.765  19.216  0.00  0.00    +0.000 NA
ENDROOT
BRANCH   4   6
ATOM      6  C   UNL     1       3.615   6.460  17.765  0.00  0.00    +0.000 A 
ATOM      7  C   UNL     1       4.934   6.766  17.380  0.00  0.00    +0.000 A 
ATOM      8  C   UNL     1       5.831   5.767  17.057  0.00  0.00    +0.000 A 
ATOM      9  C   UNL     1       5.417   4.436  17.085  0.00  0.00    +0.000 A 
ATOM     10  C   UNL     1       4.101   4.095  17.440  0.00  0.00    +0.000 A 
ATOM     11  C   UNL     1       3.711   2.746  17.475  0.00  0.00    +0.000 A 
ATOM     12  C   UNL     1       2.424   2.381  17.865  0.00  0.00    +0.000 A 
ATOM     13  C   UNL     1       1.508   3.360  18.227  0.00  0.00    +0.000 A 
ATOM     14  C   UNL     1       1.876   4.704  18.188  0.00  0.00    +0.000 A 
ATOM     15  C   UNL     1       3.174   5.107  17.791  0.00  0.00    +0.000 A 
ENDBRANCH   4   6
BRANCH   1  16
ATOM     16  C   UNL     1       0.403   9.549  19.929  0.00  0.00    +0.000 C 
BRANCH  16  17
ATOM     17  N   UNL     1       1.011  10.319  21.047  0.00  0.00    +0.000 NA
BRANCH  17  18
ATOM     18  C   UNL     1       0.283  11.605  21.301  0.00  0.00    +0.000 C 
ATOM     19  C   UNL     1       1.124  12.853  20.960  0.00  0.00    +0.000 C 
ATOM     20  C   UNL     1      -1.055  11.782  20.558  0.00  0.00    +0.000 C 
ENDBRANCH  17  18
BRANCH  17  22
ATOM     21  C   UNL     1      -0.111   9.541  23.265  0.00  0.00    +0.000 C 
ATOM     22  C   UNL     1       1.076   9.539  22.308  0.00  0.00    +0.000 C 
ENDBRANCH  17  22
ENDBRANCH  16  17
ENDBRANCH   1  16
TORSDOF 5
ENDMDL
MODEL 5
REMARK VINA RESULT:      -7.0      1.699      2.264
REMARK  Name = 
REMARK  8 active torsions:
REMARK  status: ('A' for Active; 'I' for Inactive)
REMARK    1  A    between atoms: C_1  and  C_2
REMARK    2  A    between atoms: C_2  and  N_3
REMARK    3  A    between atoms: N_3  and  C_4
REMARK    4  A    between atoms: N_3  and  C_20
REMARK    5  A    between atoms: C_4  and  C_5
REMARK    6  A    between atoms: C_8  and  C_9
REMARK    7  A    between atoms: C_20  and  C_21
REMARK    8  A    between atoms: C_20  and  C_22
REMARK                            x       y       z     vdW  Elec       q    Type
REMARK                         _______ _______ _______ _____ _____    ______ ____
ROOT
ATOM      1  C   UNL     1       1.499   9.119  19.605  0.00  0.00    +0.000 A 
ATOM      2  C   UNL     1       1.437   9.255  18.223  0.00  0.00    +0.000 A 
ATOM      3  O   UNL     1       1.998   8.156  17.669  0.00  0.00    +0.000 OA
ATOM      4  C   UNL     1       2.325   7.358  18.738  0.00  0.00    +0.000 A 
ATOM      5  N   UNL     1       2.056   7.899  19.908  0.00  0.00    +0.000 NA
ENDROOT
BRANCH   4   6
ATOM      6  C   UNL     1       2.835   6.051  18.373  0.00  0.00    +0.000 A 
ATOM      7  C   UNL     1       3.829   6.015  17.378  0.00  0.00    +0.000 A 
ATOM      8  C   UNL     1       4.430   4.826  17.015  0.00  0.00    +0.000 A 
ATOM      9  C   UNL     1       4.027   3.638  17.622  0.00  0.00    +0.000 A 
ATOM     10  C   UNL     1       3.020   3.633  18.603  0.00  0.00    +0.000 A 
ATOM     11  C   UNL     1       2.640   2.425  19.213  0.00  0.00    +0.000 A 
ATOM     12  C   UNL     1       1.674   2.401  20.216  0.00  0.00    +0.000 A 
ATOM     13  C   UNL     1       1.075   3.584  20.627  0.00  0.00    +0.000 A 
ATOM     14  C   UNL     1       1.433   4.790  20.025  0.00  0.00    +0.000 A 
ATOM     15  C   UNL     1       2.406   4.847  18.999  0.00  0.00    +0.000 A 
ENDBRANCH   4   6
BRANCH   1  16
ATOM     16  C   UNL     1       1.026  10.057  20.658  0.00  0.00    +0.000 C 
BRANCH  16  17
ATOM     17  N   UNL     1      -0.453  10.136  20.791  0.00  0.00    +0.000 NA
BRANCH  17  18
ATOM     18  C   UNL     1      -0.882  10.215  22.227  0.00  0.00    +0.000 C 
ATOM     19  C   UNL     1       0.075   9.477  23.184  0.00  0.00    +0.000 C 
ATOM     20  C   UNL     1      -1.047  11.634  22.805  0.00  0.00    +0.000 C 
ENDBRANCH  17  18
BRANCH  17  22
ATOM     21  C   UNL     1      -1.817  11.036  18.762  0.00  0.00    +0.000 C 
ATOM     22  C   UNL     1      -1.033  11.281  20.047  0.00  0.00    +0.000 C 
ENDBRANCH  17  22
ENDBRANCH  16  17
ENDBRANCH   1  16
TORSDOF 5
ENDMDL
MODEL 6
REMARK VINA RESULT:      -7.0      0.900      1.770
REMARK  Name = 
REMARK  8 active torsions:
REMARK  status: ('A' for Active; 'I' for Inactive)
REMARK    1  A    between atoms: C_1  and  C_2
REMARK    2  A    between atoms: C_2  and  N_3
REMARK    3  A    between atoms: N_3  and  C_4
REMARK    4  A    between atoms: N_3  and  C_20
REMARK    5  A    between atoms: C_4  and  C_5
REMARK    6  A    between atoms: C_8  and  C_9
REMARK    7  A    between atoms: C_20  and  C_21
REMARK    8  A    between atoms: C_20  and  C_22
REMARK                            x       y       z     vdW  Elec       q    Type
REMARK                         _______ _______ _______ _____ _____    ______ ____
ROOT
ATOM      1  C   UNL     1       1.212   9.120  19.853  0.00  0.00    +0.000 A 
ATOM      2  C   UNL     1       1.442   8.150  20.821  0.00  0.00    +0.000 A 
ATOM      3  O   UNL     1       2.074   7.110  20.230  0.00  0.00    +0.000 OA
ATOM      4  C   UNL     1       2.264   7.515  18.931  0.00  0.00    +0.000 A 
ATOM      5  N   UNL     1       1.756   8.700  18.663  0.00  0.00    +0.000 NA
ENDROOT
BRANCH   4   6
ATOM      6  C   UNL     1       3.046   6.595  18.128  0.00  0.00    +0.000 A 
ATOM      7  C   UNL     1       4.175   7.125  17.478  0.00  0.00    +0.000 A 
ATOM      8  C   UNL     1       5.025   6.314  16.750  0.00  0.00    +0.000 A 
ATOM      9  C   UNL     1       4.744   4.954  16.636  0.00  0.00    +0.000 A 
ATOM     10  C   UNL     1       3.613   4.394  17.252  0.00  0.00    +0.000 A 
ATOM     11  C   UNL     1       3.358   3.017  17.134  0.00  0.00    +0.000 A 
ATOM     12  C   UNL     1       2.265   2.432  17.771  0.00  0.00    +0.000 A 
ATOM     13  C   UNL     1       1.411   3.215  18.536  0.00  0.00    +0.000 A 
ATOM     14  C   UNL     1       1.643   4.585  18.654  0.00  0.00    +0.000 A 
ATOM     15  C   UNL     1       2.741   5.209  18.015  0.00  0.00    +0.000 A 
ENDBRANCH   4   6
BRANCH   1  16
ATOM     16  C   UNL     1       0.545  10.442  19.996  0.00  0.00    +0.000 C 
BRANCH  16  17
ATOM     17  N   UNL     1      -0.001  10.996  18.728  0.00  0.00    +0.000 NA
BRANCH  17  18
ATOM     18  C   UNL     1      -1.455  10.670  18.556  0.00  0.00    +0.000 C 
ATOM     19  C   UNL     1      -2.376  11.888  18.769  0.00  0.00    +0.000 C 
ATOM     20  C   UNL     1      -1.855  10.071  17.194  0.00  0.00    +0.000 C 
ENDBRANCH  17  18
BRANCH  17  22
ATOM     21  C   UNL     1       1.581  13.044  18.429  0.00  0.00    +0.000 C 
ATOM     22  C   UNL     1       0.184  12.464  18.622  0.00  0.00    +0.000 C 
ENDBRANCH  17  22
ENDBRANCH  16  17
ENDBRANCH   1  16
TORSDOF 5
ENDMDL
MODEL 7
REMARK VINA RESULT:      -7.0      1.169      1.850
REMARK  Name = 
REMARK  8 active torsions:
REMARK  status: ('A' for Active; 'I' for Inactive)
REMARK    1  A    between atoms: C_1  and  C_2
REMARK    2  A    between atoms: C_2  and  N_3
REMARK    3  A    between atoms: N_3  and  C_4
REMARK    4  A    between atoms: N_3  and  C_20
REMARK    5  A    between atoms: C_4  and  C_5
REMARK    6  A    between atoms: C_8  and  C_9
REMARK    7  A    between atoms: C_20  and  C_21
REMARK    8  A    between atoms: C_20  and  C_22
REMARK                            x       y       z     vdW  Elec       q    Type
REMARK                         _______ _______ _______ _____ _____    ______ ____
ROOT
ATOM      1  C   UNL     1       1.341   9.225  18.808  0.00  0.00    +0.000 A 
ATOM      2  C   UNL     1       1.614   8.559  19.997  0.00  0.00    +0.000 A 
ATOM      3  O   UNL     1       2.314   7.441  19.698  0.00  0.00    +0.000 OA
ATOM      4  C   UNL     1       2.498   7.500  18.339  0.00  0.00    +0.000 A 
ATOM      5  N   UNL     1       1.925   8.539  17.769  0.00  0.00    +0.000 NA
ENDROOT
BRANCH   4   6
ATOM      6  C   UNL     1       3.344   6.450  17.805  0.00  0.00    +0.000 A 
ATOM      7  C   UNL     1       4.593   6.843  17.290  0.00  0.00    +0.000 A 
ATOM      8  C   UNL     1       5.498   5.909  16.827  0.00  0.00    +0.000 A 
ATOM      9  C   UNL     1       5.160   4.557  16.843  0.00  0.00    +0.000 A 
ATOM     10  C   UNL     1       3.913   4.130  17.328  0.00  0.00    +0.000 A 
ATOM     11  C   UNL     1       3.599   2.760  17.348  0.00  0.00    +0.000 A 
ATOM     12  C   UNL     1       2.385   2.309  17.862  0.00  0.00    +0.000 A 
ATOM     13  C   UNL     1       1.467   3.221  18.365  0.00  0.00    +0.000 A 
ATOM     14  C   UNL     1       1.757   4.584  18.343  0.00  0.00    +0.000 A 
ATOM     15  C   UNL     1       2.979   5.074  17.822  0.00  0.00    +0.000 A 
ENDBRANCH   4   6
BRANCH   1  16
ATOM     16  C   UNL     1       0.596  10.495  18.599  0.00  0.00    +0.000 C 
BRANCH  16  17
ATOM     17  N   UNL     1       0.654  11.438  19.747  0.00  0.00    +0.000 NA
BRANCH  17  18
ATOM     18  C   UNL     1       1.025  12.825  19.313  0.00  0.00    +0.000 C 
ATOM     19  C   UNL     1       2.210  12.851  18.325  0.00  0.00    +0.000 C 
ATOM     20  C   UNL     1      -0.096  13.648  18.651  0.00  0.00    +0.000 C 
ENDBRANCH  17  18
BRANCH  17  22
ATOM     21  C   UNL     1      -0.596  11.639  22.024  0.00  0.00    +0.000 C 
ATOM     22  C   UNL     1      -0.620  11.491  20.506  0.00  0.00    +0.000 C 
ENDBRANCH  17  22
ENDBRANCH  16  17
ENDBRANCH   1  16
TORSDOF 5
ENDMDL
MODEL 8
REMARK VINA RESULT:      -7.0      4.933      7.344
REMARK  Name = 
REMARK  8 active torsions:
REMARK  status: ('A' for Active; 'I' for Inactive)
REMARK    1  A    between atoms: C_1  and  C_2
REMARK    2  A    between atoms: C_2  and  N_3
REMARK    3  A    between atoms: N_3  and  C_4
REMARK    4  A    between atoms: N_3  and  C_20
REMARK    5  A    between atoms: C_4  and  C_5
REMARK    6  A    between atoms: C_8  and  C_9
REMARK    7  A    between atoms: C_20  and  C_21
REMARK    8  A    between atoms: C_20  and  C_22
REMARK                            x       y       z     vdW  Elec       q    Type
REMARK                         _______ _______ _______ _____ _____    ______ ____
ROOT
ATOM      1  C   UNL     1       8.157   8.940  17.993  0.00  0.00    +0.000 A 
ATOM      2  C   UNL     1       8.612   7.957  18.865  0.00  0.00    +0.000 A 
ATOM      3  O   UNL     1       7.960   6.808  18.576  0.00  0.00    +0.000 OA
ATOM      4  C   UNL     1       7.176   7.118  17.492  0.00  0.00    +0.000 A 
ATOM      5  N   UNL     1       7.255   8.378  17.121  0.00  0.00    +0.000 NA
ENDROOT
BRANCH   4   6
ATOM      6  C   UNL     1       6.470   5.986  16.923  0.00  0.00    +0.000 A 
ATOM      7  C   UNL     1       7.171   5.211  15.981  0.00  0.00    +0.000 A 
ATOM      8  C   UNL     1       6.611   4.071  15.439  0.00  0.00    +0.000 A 
ATOM      9  C   UNL     1       5.320   3.696  15.809  0.00  0.00    +0.000 A 
ATOM     10  C   UNL     1       4.581   4.460  16.728  0.00  0.00    +0.000 A 
ATOM     11  C   UNL     1       3.287   4.055  17.097  0.00  0.00    +0.000 A 
ATOM     12  C   UNL     1       2.551   4.773  18.038  0.00  0.00    +0.000 A 
ATOM     13  C   UNL     1       3.100   5.905  18.626  0.00  0.00    +0.000 A 
ATOM     14  C   UNL     1       4.378   6.326  18.263  0.00  0.00    +0.000 A 
ATOM     15  C   UNL     1       5.148   5.623  17.306  0.00  0.00    +0.000 A 
ENDBRANCH   4   6
BRANCH   1  16
ATOM     16  C   UNL     1       8.556  10.370  17.908  0.00  0.00    +0.000 C 
BRANCH  16  17
ATOM     17  N   UNL     1       9.623  10.769  18.864  0.00  0.00    +0.000 NA
BRANCH  17  18
ATOM     18  C   UNL     1      10.808  11.366  18.163  0.00  0.00    +0.000 C 
ATOM     19  C   UNL     1      10.487  12.709  17.474  0.00  0.00    +0.000 C 
ATOM     20  C   UNL     1      12.049  11.626  19.037  0.00  0.00    +0.000 C 
ENDBRANCH  17  18
BRANCH  17  22
ATOM     21  C   UNL     1       9.173  11.326  21.368  0.00  0.00    +0.000 C 
ATOM     22  C   UNL     1       9.139  11.719  19.895  0.00  0.00    +0.000 C 
ENDBRANCH  17  22
ENDBRANCH  16  17
ENDBRANCH   1  16
TORSDOF 5
ENDMDL
MODEL 9
REMARK VINA RESULT:      -7.0      0.947      2.686
REMARK  Name = 
REMARK  8 active torsions:
REMARK  status: ('A' for Active; 'I' for Inactive)
REMARK    1  A    between atoms: C_1  and  C_2
REMARK    2  A    between atoms: C_2  and  N_3
REMARK    3  A    between atoms: N_3  and  C_4
REMARK    4  A    between atoms: N_3  and  C_20
REMARK    5  A    between atoms: C_4  and  C_5
REMARK    6  A    between atoms: C_8  and  C_9
REMARK    7  A    between atoms: C_20  and  C_21
REMARK    8  A    between atoms: C_20  and  C_22
REMARK                            x       y       z     vdW  Elec       q    Type
REMARK                         _______ _______ _______ _____ _____    ______ ____
ROOT
ATOM      1  C   UNL     1       1.522   8.937  19.092  0.00  0.00    +0.000 A 
ATOM      2  C   UNL     1       1.717   8.231  20.273  0.00  0.00    +0.000 A 
ATOM      3  O   UNL     1       2.171   6.999  19.953  0.00  0.00    +0.000 OA
ATOM      4  C   UNL     1       2.299   7.020  18.586  0.00  0.00    +0.000 A 
ATOM      5  N   UNL     1       1.912   8.151  18.034  0.00  0.00    +0.000 NA
ENDROOT
BRANCH   4   6
ATOM      6  C   UNL     1       2.898   5.826  18.023  0.00  0.00    +0.000 A 
ATOM      7  C   UNL     1       2.081   4.684  17.946  0.00  0.00    +0.000 A 
ATOM      8  C   UNL     1       2.537   3.520  17.358  0.00  0.00    +0.000 A 
ATOM      9  C   UNL     1       3.838   3.467  16.859  0.00  0.00    +0.000 A 
ATOM     10  C   UNL     1       4.690   4.580  16.941  0.00  0.00    +0.000 A 
ATOM     11  C   UNL     1       5.992   4.508  16.418  0.00  0.00    +0.000 A 
ATOM     12  C   UNL     1       6.842   5.612  16.450  0.00  0.00    +0.000 A 
ATOM     13  C   UNL     1       6.400   6.806  17.005  0.00  0.00    +0.000 A 
ATOM     14  C   UNL     1       5.115   6.892  17.538  0.00  0.00    +0.000 A 
ATOM     15  C   UNL     1       4.231   5.787  17.526  0.00  0.00    +0.000 A 
ENDBRANCH   4   6
BRANCH   1  16
ATOM     16  C   UNL     1       1.028  10.328  18.906  0.00  0.00    +0.000 C 
BRANCH  16  17
ATOM     17  N   UNL     1      -0.341  10.571  19.435  0.00  0.00    +0.000 NA
BRANCH  17  18
ATOM     18  C   UNL     1      -0.344  11.600  20.526  0.00  0.00    +0.000 C 
ATOM     19  C   UNL     1      -1.513  12.600  20.409  0.00  0.00    +0.000 C 
ATOM     20  C   UNL     1      -0.397  11.056  21.967  0.00  0.00    +0.000 C 
ENDBRANCH  17  18
BRANCH  17  22
ATOM     21  C   UNL     1      -1.688   9.996  17.280  0.00  0.00    +0.000 C 
ATOM     22  C   UNL     1      -1.296  10.981  18.376  0.00  0.00    +0.000 C 
ENDBRANCH  17  22
ENDBRANCH  16  17
ENDBRANCH   1  16
TORSDOF 5
ENDMDL
