MODEL 1
REMARK VINA RESULT:      -7.7      0.000      0.000
REMARK  Name = 
REMARK  6 active torsions:
REMARK  status: ('A' for Active; 'I' for Inactive)
REMARK    1  A    between atoms: C_1  and  C_2
REMARK    2  A    between atoms: C_5  and  C_6
REMARK    3  A    between atoms: N_8  and  C_9
REMARK    4  A    between atoms: C_9  and  C_10
REMARK    5  A    between atoms: C_10  and  C_11
REMARK    6  A    between atoms: C_14  and  C_15
REMARK                            x       y       z     vdW  Elec       q    Type
REMARK                         _______ _______ _______ _____ _____    ______ ____
ROOT
ATOM      1  C   UNL     1       2.217   8.655  18.109  0.00  0.00    +0.000 C 
ENDROOT
BRANCH   1   4
ATOM      2  C   UNL     1       0.239  10.026  18.678  0.00  0.00    +0.000 C 
ATOM      3  O   UNL     1       0.793  10.496  19.671  0.00  0.00    +0.000 OA
ATOM      4  N   UNL     1       0.856   9.110  17.848  0.00  0.00    +0.000 N 
ATOM      5  H   UNL     1       0.425   8.855  16.971  0.00  0.00    +0.000 HD
BRANCH   2  10
ATOM      6  C   UNL     1      -5.090  11.696  17.076  0.00  0.00    +0.000 C 
ATOM      7  C   UNL     1      -3.710  11.273  17.495  0.00  0.00    +0.000 A 
ATOM      8  C   UNL     1      -2.996  10.326  16.754  0.00  0.00    +0.000 A 
ATOM      9  C   UNL     1      -1.714   9.937  17.159  0.00  0.00    +0.000 A 
ATOM     10  C   UNL     1      -1.133  10.479  18.312  0.00  0.00    +0.000 A 
ATOM     11  C   UNL     1      -1.839  11.435  19.048  0.00  0.00    +0.000 A 
ATOM     12  C   UNL     1      -3.122  11.829  18.638  0.00  0.00    +0.000 A 
ENDBRANCH   2  10
ENDBRANCH   1   4
BRANCH   1  13
ATOM     13  C   UNL     1       2.291   7.585  19.204  0.00  0.00    +0.000 C 
BRANCH  13  14
ATOM     14  C   UNL     1       3.217   6.465  18.847  0.00  0.00    +0.000 A 
ATOM     15  C   UNL     1       3.468   5.337  19.604  0.00  0.00    +0.000 A 
ATOM     16  S   UNL     1       4.587   4.324  18.807  0.00  0.00    +0.000 S 
ATOM     17  C   UNL     1       4.664   5.439  17.493  0.00  0.00    +0.000 A 
ATOM     18  N   UNL     1       3.926   6.525  17.654  0.00  0.00    +0.000 NA
BRANCH  17  19
ATOM     19  C   UNL     1       5.519   5.177  16.329  0.00  0.00    +0.000 A 
ATOM     20  C   UNL     1       5.081   4.342  15.295  0.00  0.00    +0.000 A 
ATOM     21  C   UNL     1       5.905   4.093  14.197  0.00  0.00    +0.000 A 
ATOM     22  C   UNL     1       7.157   4.683  14.168  0.00  0.00    +0.000 A 
ATOM     23  N   UNL     1       7.628   5.487  15.143  0.00  0.00    +0.000 NA
ATOM     24  C   UNL     1       6.802   5.710  16.198  0.00  0.00    +0.000 A 
ENDBRANCH  17  19
ENDBRANCH  13  14
ENDBRANCH   1  13
TORSDOF 5
ENDMDL
MODEL 2
REMARK VINA RESULT:      -7.5      3.857      8.008
REMARK  Name = 
REMARK  6 active torsions:
REMARK  status: ('A' for Active; 'I' for Inactive)
REMARK    1  A    between atoms: C_1  and  C_2
REMARK    2  A    between atoms: C_5  and  C_6
REMARK    3  A    between atoms: N_8  and  C_9
REMARK    4  A    between atoms: C_9  and  C_10
REMARK    5  A    between atoms: C_10  and  C_11
REMARK    6  A    between atoms: C_14  and  C_15
REMARK                            x       y       z     vdW  Elec       q    Type
REMARK                         _______ _______ _______ _____ _____    ______ ____
ROOT
ATOM      1  C   UNL     1       3.882   2.064  17.336  0.00  0.00    +0.000 C 
ENDROOT
BRANCH   1   4
ATOM      2  C   UNL     1       5.224   4.065  16.777  0.00  0.00    +0.000 C 
ATOM      3  O   UNL     1       4.908   4.002  15.590  0.00  0.00    +0.000 OA
ATOM      4  N   UNL     1       4.774   3.154  17.713  0.00  0.00    +0.000 N 
ATOM      5  H   UNL     1       4.941   3.319  18.696  0.00  0.00    +0.000 HD
BRANCH   2  10
ATOM      6  C   UNL     1       8.527   8.527  18.489  0.00  0.00    +0.000 C 
ATOM      7  C   UNL     1       7.680   7.367  18.048  0.00  0.00    +0.000 A 
ATOM      8  C   UNL     1       6.674   7.537  17.092  0.00  0.00    +0.000 A 
ATOM      9  C   UNL     1       5.889   6.449  16.695  0.00  0.00    +0.000 A 
ATOM     10  C   UNL     1       6.090   5.180  17.254  0.00  0.00    +0.000 A 
ATOM     11  C   UNL     1       7.104   5.004  18.201  0.00  0.00    +0.000 A 
ATOM     12  C   UNL     1       7.894   6.094  18.594  0.00  0.00    +0.000 A 
ENDBRANCH   2  10
ENDBRANCH   1   4
BRANCH   1  13
ATOM     13  C   UNL     1       2.677   1.927  18.272  0.00  0.00    +0.000 C 
BRANCH  13  14
ATOM     14  C   UNL     1       2.499   3.123  19.154  0.00  0.00    +0.000 A 
ATOM     15  C   UNL     1       2.456   3.123  20.535  0.00  0.00    +0.000 A 
ATOM     16  S   UNL     1       2.244   4.712  21.122  0.00  0.00    +0.000 S 
ATOM     17  C   UNL     1       2.235   5.311  19.503  0.00  0.00    +0.000 A 
ATOM     18  N   UNL     1       2.345   4.376  18.575  0.00  0.00    +0.000 NA
BRANCH  17  19
ATOM     19  C   UNL     1       2.078   6.744  19.229  0.00  0.00    +0.000 A 
ATOM     20  C   UNL     1       2.469   7.282  17.997  0.00  0.00    +0.000 A 
ATOM     21  C   UNL     1       2.324   8.647  17.750  0.00  0.00    +0.000 A 
ATOM     22  C   UNL     1       1.797   9.444  18.752  0.00  0.00    +0.000 A 
ATOM     23  N   UNL     1       1.415   8.975  19.957  0.00  0.00    +0.000 NA
ATOM     24  C   UNL     1       1.569   7.643  20.167  0.00  0.00    +0.000 A 
ENDBRANCH  17  19
ENDBRANCH  13  14
ENDBRANCH   1  13
TORSDOF 5
ENDMDL
MODEL 3
REMARK VINA RESULT:      -7.5      3.819      7.989
REMARK  Name = 
REMARK  6 active torsions:
REMARK  status: ('A' for Active; 'I' for Inactive)
REMARK    1  A    between atoms: C_1  and  C_2
REMARK    2  A    between atoms: C_5  and  C_6
REMARK    3  A    between atoms: N_8  and  C_9
REMARK    4  A    between atoms: C_9  and  C_10
REMARK    5  A    between atoms: C_10  and  C_11
REMARK    6  A    between atoms: C_14  and  C_15
REMARK                            x       y       z     vdW  Elec       q    Type
REMARK                         _______ _______ _______ _____ _____    ______ ____
ROOT
ATOM      1  C   UNL     1       4.018   2.470  17.444  0.00  0.00    +0.000 C 
ENDROOT
BRANCH   1   4
ATOM      2  C   UNL     1       5.502   4.206  18.394  0.00  0.00    +0.000 C 
ATOM      3  O   UNL     1       5.626   3.588  19.450  0.00  0.00    +0.000 OA
ATOM      4  N   UNL     1       4.729   3.740  17.348  0.00  0.00    +0.000 N 
ATOM      5  H   UNL     1       4.764   4.204  16.451  0.00  0.00    +0.000 HD
BRANCH   2  10
ATOM      6  C   UNL     1       8.489   9.150  17.774  0.00  0.00    +0.000 C 
ATOM      7  C   UNL     1       7.709   7.877  17.932  0.00  0.00    +0.000 A 
ATOM      8  C   UNL     1       8.159   6.860  18.781  0.00  0.00    +0.000 A 
ATOM      9  C   UNL     1       7.425   5.677  18.914  0.00  0.00    +0.000 A 
ATOM     10  C   UNL     1       6.238   5.487  18.195  0.00  0.00    +0.000 A 
ATOM     11  C   UNL     1       5.778   6.506  17.356  0.00  0.00    +0.000 A 
ATOM     12  C   UNL     1       6.512   7.694  17.227  0.00  0.00    +0.000 A 
ENDBRANCH   2  10
ENDBRANCH   1   4
BRANCH   1  13
ATOM     13  C   UNL     1       2.535   2.640  17.791  0.00  0.00    +0.000 C 
BRANCH  13  14
ATOM     14  C   UNL     1       2.300   3.746  18.772  0.00  0.00    +0.000 A 
ATOM     15  C   UNL     1       2.181   3.615  20.141  0.00  0.00    +0.000 A 
ATOM     16  S   UNL     1       1.926   5.140  20.864  0.00  0.00    +0.000 S 
ATOM     17  C   UNL     1       2.003   5.891  19.312  0.00  0.00    +0.000 A 
ATOM     18  N   UNL     1       2.171   5.049  18.306  0.00  0.00    +0.000 NA
BRANCH  17  19
ATOM     19  C   UNL     1       1.853   7.343  19.167  0.00  0.00    +0.000 A 
ATOM     20  C   UNL     1       2.175   7.977  17.961  0.00  0.00    +0.000 A 
ATOM     21  C   UNL     1       2.037   9.360  17.837  0.00  0.00    +0.000 A 
ATOM     22  C   UNL     1       1.586  10.077  18.933  0.00  0.00    +0.000 A 
ATOM     23  N   UNL     1       1.272   9.513  20.117  0.00  0.00    +0.000 NA
ATOM     24  C   UNL     1       1.417   8.166  20.206  0.00  0.00    +0.000 A 
ENDBRANCH  17  19
ENDBRANCH  13  14
ENDBRANCH   1  13
TORSDOF 5
ENDMDL
MODEL 4
REMARK VINA RESULT:      -7.4      3.546      4.854
REMARK  Name = 
REMARK  6 active torsions:
REMARK  status: ('A' for Active; 'I' for Inactive)
REMARK    1  A    between atoms: C_1  and  C_2
REMARK    2  A    between atoms: C_5  and  C_6
REMARK    3  A    between atoms: N_8  and  C_9
REMARK    4  A    between atoms: C_9  and  C_10
REMARK    5  A    between atoms: C_10  and  C_11
REMARK    6  A    between atoms: C_14  and  C_15
REMARK                            x       y       z     vdW  Elec       q    Type
REMARK                         _______ _______ _______ _____ _____    ______ ____
ROOT
ATOM      1  C   UNL     1       1.714   2.802  20.031  0.00  0.00    +0.000 C 
ENDROOT
BRANCH   1   4
ATOM      2  C   UNL     1       2.024   5.228  20.398  0.00  0.00    +0.000 C 
ATOM      3  O   UNL     1       2.498   5.045  21.519  0.00  0.00    +0.000 OA
ATOM      4  N   UNL     1       1.604   4.188  19.591  0.00  0.00    +0.000 N 
ATOM      5  H   UNL     1       1.353   4.368  18.629  0.00  0.00    +0.000 HD
BRANCH   2  10
ATOM      6  C   UNL     1       1.527  10.671  18.428  0.00  0.00    +0.000 C 
ATOM      7  C   UNL     1       1.655   9.260  18.929  0.00  0.00    +0.000 A 
ATOM      8  C   UNL     1       1.200   8.908  20.203  0.00  0.00    +0.000 A 
ATOM      9  C   UNL     1       1.331   7.592  20.658  0.00  0.00    +0.000 A 
ATOM     10  C   UNL     1       1.927   6.612  19.853  0.00  0.00    +0.000 A 
ATOM     11  C   UNL     1       2.371   6.958  18.573  0.00  0.00    +0.000 A 
ATOM     12  C   UNL     1       2.234   8.277  18.116  0.00  0.00    +0.000 A 
ENDBRANCH   2  10
ENDBRANCH   1   4
BRANCH   1  13
ATOM     13  C   UNL     1       3.009   2.128  19.568  0.00  0.00    +0.000 C 
BRANCH  13  14
ATOM     14  C   UNL     1       3.730   2.929  18.528  0.00  0.00    +0.000 A 
ATOM     15  C   UNL     1       3.566   2.830  17.160  0.00  0.00    +0.000 A 
ATOM     16  S   UNL     1       4.587   3.938  16.358  0.00  0.00    +0.000 S 
ATOM     17  C   UNL     1       5.179   4.497  17.880  0.00  0.00    +0.000 A 
ATOM     18  N   UNL     1       4.673   3.867  18.927  0.00  0.00    +0.000 NA
BRANCH  17  19
ATOM     19  C   UNL     1       6.187   5.560  17.954  0.00  0.00    +0.000 A 
ATOM     20  C   UNL     1       7.176   5.540  18.945  0.00  0.00    +0.000 A 
ATOM     21  C   UNL     1       8.124   6.560  19.011  0.00  0.00    +0.000 A 
ATOM     22  C   UNL     1       8.052   7.586  18.084  0.00  0.00    +0.000 A 
ATOM     23  N   UNL     1       7.114   7.655  17.117  0.00  0.00    +0.000 NA
ATOM     24  C   UNL     1       6.206   6.647  17.079  0.00  0.00    +0.000 A 
ENDBRANCH  17  19
ENDBRANCH  13  14
ENDBRANCH   1  13
TORSDOF 5
ENDMDL
MODEL 5
REMARK VINA RESULT:      -7.4      3.059      8.581
REMARK  Name = 
REMARK  6 active torsions:
REMARK  status: ('A' for Active; 'I' for Inactive)
REMARK    1  A    between atoms: C_1  and  C_2
REMARK    2  A    between atoms: C_5  and  C_6
REMARK    3  A    between atoms: N_8  and  C_9
REMARK    4  A    between atoms: C_9  and  C_10
REMARK    5  A    between atoms: C_10  and  C_11
REMARK    6  A    between atoms: C_14  and  C_15
REMARK                            x       y       z     vdW  Elec       q    Type
REMARK                         _______ _______ _______ _____ _____    ______ ____
ROOT
ATOM      1  C   UNL     1       1.132   7.875  20.960  0.00  0.00    +0.000 C 
ENDROOT
BRANCH   1   4
ATOM      2  C   UNL     1       2.506   6.309  19.627  0.00  0.00    +0.000 C 
ATOM      3  O   UNL     1       2.228   5.365  20.365  0.00  0.00    +0.000 OA
ATOM      4  N   UNL     1       2.018   7.585  19.840  0.00  0.00    +0.000 N 
ATOM      5  H   UNL     1       2.154   8.299  19.137  0.00  0.00    +0.000 HD
BRANCH   2  10
ATOM      6  C   UNL     1       5.859   5.240  15.005  0.00  0.00    +0.000 C 
ATOM      7  C   UNL     1       4.996   5.525  16.202  0.00  0.00    +0.000 A 
ATOM      8  C   UNL     1       4.443   4.482  16.951  0.00  0.00    +0.000 A 
ATOM      9  C   UNL     1       3.637   4.762  18.060  0.00  0.00    +0.000 A 
ATOM     10  C   UNL     1       3.364   6.085  18.430  0.00  0.00    +0.000 A 
ATOM     11  C   UNL     1       3.926   7.131  17.690  0.00  0.00    +0.000 A 
ATOM     12  C   UNL     1       4.738   6.848  16.582  0.00  0.00    +0.000 A 
ENDBRANCH   2  10
ENDBRANCH   1   4
BRANCH   1  13
ATOM     13  C   UNL     1       1.239   9.325  21.447  0.00  0.00    +0.000 C 
BRANCH  13  14
ATOM     14  C   UNL     1       0.661  10.300  20.469  0.00  0.00    +0.000 A 
ATOM     15  C   UNL     1       1.108  11.586  20.235  0.00  0.00    +0.000 A 
ATOM     16  S   UNL     1       0.156  12.335  19.032  0.00  0.00    +0.000 S 
ATOM     17  C   UNL     1      -0.789  10.899  18.883  0.00  0.00    +0.000 A 
ATOM     18  N   UNL     1      -0.440   9.927  19.709  0.00  0.00    +0.000 NA
BRANCH  17  19
ATOM     19  C   UNL     1      -1.900  10.822  17.928  0.00  0.00    +0.000 A 
ATOM     20  C   UNL     1      -1.906   9.855  16.915  0.00  0.00    +0.000 A 
ATOM     21  C   UNL     1      -2.964   9.796  16.008  0.00  0.00    +0.000 A 
ATOM     22  C   UNL     1      -3.990  10.718  16.132  0.00  0.00    +0.000 A 
ATOM     23  N   UNL     1      -4.025  11.673  17.083  0.00  0.00    +0.000 NA
ATOM     24  C   UNL     1      -2.981  11.704  17.951  0.00  0.00    +0.000 A 
ENDBRANCH  17  19
ENDBRANCH  13  14
ENDBRANCH   1  13
TORSDOF 5
ENDMDL
MODEL 6
REMARK VINA RESULT:      -7.4      3.044      4.109
REMARK  Name = 
REMARK  6 active torsions:
REMARK  status: ('A' for Active; 'I' for Inactive)
REMARK    1  A    between atoms: C_1  and  C_2
REMARK    2  A    between atoms: C_5  and  C_6
REMARK    3  A    between atoms: N_8  and  C_9
REMARK    4  A    between atoms: C_9  and  C_10
REMARK    5  A    between atoms: C_10  and  C_11
REMARK    6  A    between atoms: C_14  and  C_15
REMARK                            x       y       z     vdW  Elec       q    Type
REMARK                         _______ _______ _______ _____ _____    ______ ____
ROOT
ATOM      1  C   UNL     1       3.325   3.684  19.010  0.00  0.00    +0.000 C 
ENDROOT
BRANCH   1   4
ATOM      2  C   UNL     1       2.362   5.794  19.869  0.00  0.00    +0.000 C 
ATOM      3  O   UNL     1       2.243   5.332  21.003  0.00  0.00    +0.000 OA
ATOM      4  N   UNL     1       2.879   5.059  18.819  0.00  0.00    +0.000 N 
ATOM      5  H   UNL     1       3.090   5.515  17.942  0.00  0.00    +0.000 HD
BRANCH   2  10
ATOM      6  C   UNL     1       0.971  11.304  18.660  0.00  0.00    +0.000 C 
ATOM      7  C   UNL     1       1.332   9.881  18.982  0.00  0.00    +0.000 A 
ATOM      8  C   UNL     1       1.943   9.063  18.027  0.00  0.00    +0.000 A 
ATOM      9  C   UNL     1       2.268   7.738  18.338  0.00  0.00    +0.000 A 
ATOM     10  C   UNL     1       1.978   7.209  19.603  0.00  0.00    +0.000 A 
ATOM     11  C   UNL     1       1.379   8.029  20.564  0.00  0.00    +0.000 A 
ATOM     12  C   UNL     1       1.058   9.358  20.252  0.00  0.00    +0.000 A 
ENDBRANCH   2  10
ENDBRANCH   1   4
BRANCH   1  13
ATOM     13  C   UNL     1       4.833   3.573  19.255  0.00  0.00    +0.000 C 
BRANCH  13  14
ATOM     14  C   UNL     1       5.633   4.374  18.275  0.00  0.00    +0.000 A 
ATOM     15  C   UNL     1       6.389   5.494  18.558  0.00  0.00    +0.000 A 
ATOM     16  S   UNL     1       7.136   6.080  17.139  0.00  0.00    +0.000 S 
ATOM     17  C   UNL     1       6.419   4.799  16.231  0.00  0.00    +0.000 A 
ATOM     18  N   UNL     1       5.636   4.001  16.938  0.00  0.00    +0.000 NA
BRANCH  17  19
ATOM     19  C   UNL     1       6.660   4.668  14.790  0.00  0.00    +0.000 A 
ATOM     20  C   UNL     1       5.959   3.722  14.031  0.00  0.00    +0.000 A 
ATOM     21  C   UNL     1       6.201   3.601  12.663  0.00  0.00    +0.000 A 
ATOM     22  C   UNL     1       7.151   4.428  12.087  0.00  0.00    +0.000 A 
ATOM     23  N   UNL     1       7.857   5.348  12.776  0.00  0.00    +0.000 NA
ATOM     24  C   UNL     1       7.598   5.442  14.106  0.00  0.00    +0.000 A 
ENDBRANCH  17  19
ENDBRANCH  13  14
ENDBRANCH   1  13
TORSDOF 5
ENDMDL
MODEL 7
REMARK VINA RESULT:      -7.4      3.757      8.479
REMARK  Name = 
REMARK  6 active torsions:
REMARK  status: ('A' for Active; 'I' for Inactive)
REMARK    1  A    between atoms: C_1  and  C_2
REMARK    2  A    between atoms: C_5  and  C_6
REMARK    3  A    between atoms: N_8  and  C_9
REMARK    4  A    between atoms: C_9  and  C_10
REMARK    5  A    between atoms: C_10  and  C_11
REMARK    6  A    between atoms: C_14  and  C_15
REMARK                            x       y       z     vdW  Elec       q    Type
REMARK                         _______ _______ _______ _____ _____    ______ ____
ROOT
ATOM      1  C   UNL     1       1.561   9.056  21.943  0.00  0.00    +0.000 C 
ENDROOT
BRANCH   1   4
ATOM      2  C   UNL     1       1.885   7.530  20.024  0.00  0.00    +0.000 C 
ATOM      3  O   UNL     1       1.918   8.466  19.226  0.00  0.00    +0.000 OA
ATOM      4  N   UNL     1       1.709   7.719  21.382  0.00  0.00    +0.000 N 
ATOM      5  H   UNL     1       1.827   6.942  22.017  0.00  0.00    +0.000 HD
BRANCH   2  10
ATOM      6  C   UNL     1       2.687   2.165  17.944  0.00  0.00    +0.000 C 
ATOM      7  C   UNL     1       2.473   3.549  18.488  0.00  0.00    +0.000 A 
ATOM      8  C   UNL     1       2.792   4.677  17.725  0.00  0.00    +0.000 A 
ATOM      9  C   UNL     1       2.593   5.959  18.246  0.00  0.00    +0.000 A 
ATOM     10  C   UNL     1       2.081   6.135  19.538  0.00  0.00    +0.000 A 
ATOM     11  C   UNL     1       1.749   5.010  20.299  0.00  0.00    +0.000 A 
ATOM     12  C   UNL     1       1.944   3.725  19.773  0.00  0.00    +0.000 A 
ENDBRANCH   2  10
ENDBRANCH   1   4
BRANCH   1  13
ATOM     13  C   UNL     1       0.100   9.510  22.029  0.00  0.00    +0.000 C 
BRANCH  13  14
ATOM     14  C   UNL     1      -0.277  10.439  20.918  0.00  0.00    +0.000 A 
ATOM     15  C   UNL     1       0.185  11.728  20.736  0.00  0.00    +0.000 A 
ATOM     16  S   UNL     1      -0.505  12.414  19.334  0.00  0.00    +0.000 S 
ATOM     17  C   UNL     1      -1.370  10.950  19.041  0.00  0.00    +0.000 A 
ATOM     18  N   UNL     1      -1.186  10.014  19.957  0.00  0.00    +0.000 NA
BRANCH  17  19
ATOM     19  C   UNL     1      -2.254  10.815  17.877  0.00  0.00    +0.000 A 
ATOM     20  C   UNL     1      -1.930   9.940  16.833  0.00  0.00    +0.000 A 
ATOM     21  C   UNL     1      -2.772   9.825  15.727  0.00  0.00    +0.000 A 
ATOM     22  C   UNL     1      -3.920  10.600  15.691  0.00  0.00    +0.000 A 
ATOM     23  N   UNL     1      -4.270  11.462  16.667  0.00  0.00    +0.000 NA
ATOM     24  C   UNL     1      -3.430  11.551  17.730  0.00  0.00    +0.000 A 
ENDBRANCH  17  19
ENDBRANCH  13  14
ENDBRANCH   1  13
TORSDOF 5
ENDMDL
MODEL 8
REMARK VINA RESULT:      -7.4      3.636      4.838
REMARK  Name = 
REMARK  6 active torsions:
REMARK  status: ('A' for Active; 'I' for Inactive)
REMARK    1  A    between atoms: C_1  and  C_2
REMARK    2  A    between atoms: C_5  and  C_6
REMARK    3  A    between atoms: N_8  and  C_9
REMARK    4  A    between atoms: C_9  and  C_10
REMARK    5  A    between atoms: C_10  and  C_11
REMARK    6  A    between atoms: C_14  and  C_15
REMARK                            x       y       z     vdW  Elec       q    Type
REMARK                         _______ _______ _______ _____ _____    ______ ____
ROOT
ATOM      1  C   UNL     1       1.984   2.693  19.700  0.00  0.00    +0.000 C 
ENDROOT
BRANCH   1   4
ATOM      2  C   UNL     1       2.034   5.093  20.297  0.00  0.00    +0.000 C 
ATOM      3  O   UNL     1       2.372   4.845  21.454  0.00  0.00    +0.000 OA
ATOM      4  N   UNL     1       1.814   4.101  19.361  0.00  0.00    +0.000 N 
ATOM      5  H   UNL     1       1.675   4.348  18.390  0.00  0.00    +0.000 HD
BRANCH   2  10
ATOM      6  C   UNL     1       1.585  10.570  18.414  0.00  0.00    +0.000 C 
ATOM      7  C   UNL     1       1.702   9.157  18.910  0.00  0.00    +0.000 A 
ATOM      8  C   UNL     1       2.239   8.154  18.097  0.00  0.00    +0.000 A 
ATOM      9  C   UNL     1       2.337   6.841  18.570  0.00  0.00    +0.000 A 
ATOM     10  C   UNL     1       1.890   6.509  19.856  0.00  0.00    +0.000 A 
ATOM     11  C   UNL     1       1.364   7.512  20.676  0.00  0.00    +0.000 A 
ATOM     12  C   UNL     1       1.272   8.829  20.202  0.00  0.00    +0.000 A 
ENDBRANCH   2  10
ENDBRANCH   1   4
BRANCH   1  13
ATOM     13  C   UNL     1       3.334   2.128  19.246  0.00  0.00    +0.000 C 
BRANCH  13  14
ATOM     14  C   UNL     1       4.051   3.044  18.304  0.00  0.00    +0.000 A 
ATOM     15  C   UNL     1       3.913   3.077  16.931  0.00  0.00    +0.000 A 
ATOM     16  S   UNL     1       4.918   4.284  16.262  0.00  0.00    +0.000 S 
ATOM     17  C   UNL     1       5.469   4.704  17.843  0.00  0.00    +0.000 A 
ATOM     18  N   UNL     1       4.962   3.961  18.812  0.00  0.00    +0.000 NA
BRANCH  17  19
ATOM     19  C   UNL     1       6.447   5.780  18.041  0.00  0.00    +0.000 A 
ATOM     20  C   UNL     1       6.454   6.901  17.203  0.00  0.00    +0.000 A 
ATOM     21  C   UNL     1       7.393   7.914  17.395  0.00  0.00    +0.000 A 
ATOM     22  C   UNL     1       8.312   7.774  18.421  0.00  0.00    +0.000 A 
ATOM     23  N   UNL     1       8.351   6.709  19.248  0.00  0.00    +0.000 NA
ATOM     24  C   UNL     1       7.424   5.740  19.036  0.00  0.00    +0.000 A 
ENDBRANCH  17  19
ENDBRANCH  13  14
ENDBRANCH   1  13
TORSDOF 5
ENDMDL
MODEL 9
REMARK VINA RESULT:      -7.4      3.060      4.187
REMARK  Name = 
REMARK  6 active torsions:
REMARK  status: ('A' for Active; 'I' for Inactive)
REMARK    1  A    between atoms: C_1  and  C_2
REMARK    2  A    between atoms: C_5  and  C_6
REMARK    3  A    between atoms: N_8  and  C_9
REMARK    4  A    between atoms: C_9  and  C_10
REMARK    5  A    between atoms: C_10  and  C_11
REMARK    6  A    between atoms: C_14  and  C_15
REMARK                            x       y       z     vdW  Elec       q    Type
REMARK                         _______ _______ _______ _____ _____    ______ ____
ROOT
ATOM      1  C   UNL     1       2.882   3.541  18.541  0.00  0.00    +0.000 C 
ENDROOT
BRANCH   1   4
ATOM      2  C   UNL     1       2.370   5.758  19.509  0.00  0.00    +0.000 C 
ATOM      3  O   UNL     1       2.520   5.342  20.657  0.00  0.00    +0.000 OA
ATOM      4  N   UNL     1       2.522   4.947  18.401  0.00  0.00    +0.000 N 
ATOM      5  H   UNL     1       2.528   5.354  17.477  0.00  0.00    +0.000 HD
BRANCH   2  10
ATOM      6  C   UNL     1       1.036  11.366  18.785  0.00  0.00    +0.000 C 
ATOM      7  C   UNL     1       1.379   9.914  18.963  0.00  0.00    +0.000 A 
ATOM      8  C   UNL     1       1.155   9.268  20.183  0.00  0.00    +0.000 A 
ATOM      9  C   UNL     1       1.485   7.918  20.336  0.00  0.00    +0.000 A 
ATOM     10  C   UNL     1       2.053   7.195  19.279  0.00  0.00    +0.000 A 
ATOM     11  C   UNL     1       2.267   7.834  18.053  0.00  0.00    +0.000 A 
ATOM     12  C   UNL     1       1.930   9.187  17.899  0.00  0.00    +0.000 A 
ENDBRANCH   2  10
ENDBRANCH   1   4
BRANCH   1  13
ATOM     13  C   UNL     1       4.327   3.337  19.008  0.00  0.00    +0.000 C 
BRANCH  13  14
ATOM     14  C   UNL     1       5.312   4.077  18.159  0.00  0.00    +0.000 A 
ATOM     15  C   UNL     1       6.234   5.008  18.597  0.00  0.00    +0.000 A 
ATOM     16  S   UNL     1       7.157   5.593  17.285  0.00  0.00    +0.000 S 
ATOM     17  C   UNL     1       6.285   4.562  16.210  0.00  0.00    +0.000 A 
ATOM     18  N   UNL     1       5.333   3.849  16.789  0.00  0.00    +0.000 NA
BRANCH  17  19
ATOM     19  C   UNL     1       6.587   4.539  14.775  0.00  0.00    +0.000 A 
ATOM     20  C   UNL     1       5.943   3.633  13.923  0.00  0.00    +0.000 A 
ATOM     21  C   UNL     1       6.244   3.615  12.562  0.00  0.00    +0.000 A 
ATOM     22  C   UNL     1       7.194   4.503  12.086  0.00  0.00    +0.000 A 
ATOM     23  N   UNL     1       7.847   5.387  12.866  0.00  0.00    +0.000 NA
ATOM     24  C   UNL     1       7.533   5.381  14.187  0.00  0.00    +0.000 A 
ENDBRANCH  17  19
ENDBRANCH  13  14
ENDBRANCH   1  13
TORSDOF 5
ENDMDL
