MODEL 1
REMARK VINA RESULT:      -7.8      0.000      0.000
REMARK  Name = 
REMARK  8 active torsions:
REMARK  status: ('A' for Active; 'I' for Inactive)
REMARK    1  A    between atoms: C_1  and  C_2
REMARK    2  A    between atoms: C_7  and  C_8
REMARK    3  A    between atoms: N_10  and  C_11
REMARK    4  A    between atoms: C_20  and  C_21
REMARK    5  A    between atoms: C_21  and  N_22
REMARK    6  A    between atoms: N_22  and  C_23
REMARK    7  A    between atoms: C_23  and  C_24
REMARK    8  A    between atoms: C_24  and  N_25
REMARK                            x       y       z     vdW  Elec       q    Type
REMARK                         _______ _______ _______ _____ _____    ______ ____
ROOT
ATOM      1  C   UNL     1       3.049   5.969  18.218  0.00  0.00    +0.000 A 
ATOM      2  N   UNL     1       2.146   6.630  18.969  0.00  0.00    +0.000 NA
ATOM      3  N   UNL     1       2.207   7.912  18.578  0.00  0.00    +0.000 N 
ATOM      4  C   UNL     1       3.267   8.128  17.751  0.00  0.00    +0.000 A 
ATOM      5  C   UNL     1       3.801   6.895  17.416  0.00  0.00    +0.000 A 
ENDROOT
BRANCH   3   6
ATOM      6  C   UNL     1       1.297   8.880  19.053  0.00  0.00    +0.000 A 
ATOM      7  C   UNL     1       0.641   9.719  18.144  0.00  0.00    +0.000 A 
ATOM      8  C   UNL     1      -0.314  10.623  18.616  0.00  0.00    +0.000 A 
ATOM      9  C   UNL     1      -0.565  10.717  19.982  0.00  0.00    +0.000 A 
ATOM     10  F   UNL     1      -1.475  11.593  20.426  0.00  0.00    +0.000 F 
ATOM     11  C   UNL     1       0.113   9.922  20.895  0.00  0.00    +0.000 A 
ATOM     12  C   UNL     1       1.033   8.994  20.422  0.00  0.00    +0.000 A 
ATOM     13  F   UNL     1       1.718   8.275  21.320  0.00  0.00    +0.000 F 
ENDBRANCH   3   6
BRANCH   1  20
ATOM     14  C   UNL     1       5.195   4.610  19.881  0.00  0.00    +0.000 C 
ATOM     15  C   UNL     1       4.176   3.857  19.064  0.00  0.00    +0.000 A 
ATOM     16  C   UNL     1       4.244   2.450  19.075  0.00  0.00    +0.000 A 
ATOM     17  C   UNL     1       3.339   1.678  18.350  0.00  0.00    +0.000 A 
ATOM     18  C   UNL     1       2.335   2.299  17.622  0.00  0.00    +0.000 A 
ATOM     19  C   UNL     1       2.240   3.691  17.619  0.00  0.00    +0.000 A 
ATOM     20  C   UNL     1       3.169   4.499  18.306  0.00  0.00    +0.000 A 
ENDBRANCH   1  20
BRANCH   5  21
ATOM     21  C   UNL     1       4.942   6.671  16.466  0.00  0.00    +0.000 C 
BRANCH  21  22
ATOM     22  N   UNL     1       6.221   6.444  17.183  0.00  0.00    +0.000 NA
ATOM     23  H   UNL     1       6.029   6.404  18.183  0.00  0.00    +0.000 HD
BRANCH  22  24
ATOM     24  C   UNL     1       6.830   5.176  16.763  0.00  0.00    +0.000 C 
BRANCH  24  25
ATOM     25  C   UNL     1       6.015   4.278  15.819  0.00  0.00    +0.000 C 
BRANCH  25  26
ATOM     26  N   UNL     1       6.692   4.097  14.507  0.00  0.00    +0.000 NA
ATOM     27  C   UNL     1       5.728   3.608  13.513  0.00  0.00    +0.000 C 
ATOM     28  C   UNL     1       6.405   3.338  12.170  0.00  0.00    +0.000 C 
ATOM     29  C   UNL     1       7.101   4.584  11.637  0.00  0.00    +0.000 C 
ATOM     30  C   UNL     1       8.061   5.127  12.681  0.00  0.00    +0.000 C 
ATOM     31  C   UNL     1       7.363   5.321  14.028  0.00  0.00    +0.000 C 
ENDBRANCH  25  26
ENDBRANCH  24  25
ENDBRANCH  22  24
ENDBRANCH  21  22
ENDBRANCH   5  21
TORSDOF 7
ENDMDL
MODEL 2
REMARK VINA RESULT:      -7.7      0.935      1.296
REMARK  Name = 
REMARK  8 active torsions:
REMARK  status: ('A' for Active; 'I' for Inactive)
REMARK    1  A    between atoms: C_1  and  C_2
REMARK    2  A    between atoms: C_7  and  C_8
REMARK    3  A    between atoms: N_10  and  C_11
REMARK    4  A    between atoms: C_20  and  C_21
REMARK    5  A    between atoms: C_21  and  N_22
REMARK    6  A    between atoms: N_22  and  C_23
REMARK    7  A    between atoms: C_23  and  C_24
REMARK    8  A    between atoms: C_24  and  N_25
REMARK                            x       y       z     vdW  Elec       q    Type
REMARK                         _______ _______ _______ _____ _____    ______ ____
ROOT
ATOM      1  C   UNL     1       2.846   6.015  18.572  0.00  0.00    +0.000 A 
ATOM      2  N   UNL     1       2.065   6.651  19.468  0.00  0.00    +0.000 NA
ATOM      3  N   UNL     1       2.078   7.947  19.115  0.00  0.00    +0.000 N 
ATOM      4  C   UNL     1       3.009   8.188  18.151  0.00  0.00    +0.000 A 
ATOM      5  C   UNL     1       3.481   6.967  17.702  0.00  0.00    +0.000 A 
ENDROOT
BRANCH   3   6
ATOM      6  C   UNL     1       1.252   8.899  19.749  0.00  0.00    +0.000 A 
ATOM      7  C   UNL     1       1.222   8.970  21.146  0.00  0.00    +0.000 A 
ATOM      8  C   UNL     1       0.459   9.965  21.764  0.00  0.00    +0.000 A 
ATOM      9  C   UNL     1      -0.301  10.837  20.990  0.00  0.00    +0.000 A 
ATOM     10  F   UNL     1      -1.037  11.781  21.590  0.00  0.00    +0.000 F 
ATOM     11  C   UNL     1      -0.314  10.745  19.605  0.00  0.00    +0.000 A 
ATOM     12  C   UNL     1       0.477   9.782  18.990  0.00  0.00    +0.000 A 
ATOM     13  F   UNL     1       0.409   9.672  17.657  0.00  0.00    +0.000 F 
ENDBRANCH   3   6
BRANCH   1  20
ATOM     14  C   UNL     1       5.291   4.601  19.687  0.00  0.00    +0.000 C 
ATOM     15  C   UNL     1       4.110   3.876  19.094  0.00  0.00    +0.000 A 
ATOM     16  C   UNL     1       4.165   2.469  19.051  0.00  0.00    +0.000 A 
ATOM     17  C   UNL     1       3.115   1.721  18.523  0.00  0.00    +0.000 A 
ATOM     18  C   UNL     1       1.981   2.366  18.051  0.00  0.00    +0.000 A 
ATOM     19  C   UNL     1       1.902   3.758  18.105  0.00  0.00    +0.000 A 
ATOM     20  C   UNL     1       2.967   4.542  18.593  0.00  0.00    +0.000 A 
ENDBRANCH   1  20
BRANCH   5  21
ATOM     21  C   UNL     1       4.471   6.773  16.590  0.00  0.00    +0.000 C 
BRANCH  21  22
ATOM     22  N   UNL     1       5.865   6.985  17.050  0.00  0.00    +0.000 NA
ATOM     23  H   UNL     1       5.860   7.091  18.064  0.00  0.00    +0.000 HD
BRANCH  22  24
ATOM     24  C   UNL     1       6.708   5.837  16.694  0.00  0.00    +0.000 C 
BRANCH  24  25
ATOM     25  C   UNL     1       6.026   4.650  15.996  0.00  0.00    +0.000 C 
BRANCH  25  26
ATOM     26  N   UNL     1       6.682   4.318  14.703  0.00  0.00    +0.000 NA
ATOM     27  C   UNL     1       5.683   3.812  13.753  0.00  0.00    +0.000 C 
ATOM     28  C   UNL     1       6.333   3.387  12.437  0.00  0.00    +0.000 C 
ATOM     29  C   UNL     1       7.106   4.537  11.802  0.00  0.00    +0.000 C 
ATOM     30  C   UNL     1       8.105   5.101  12.798  0.00  0.00    +0.000 C 
ATOM     31  C   UNL     1       7.429   5.451  14.124  0.00  0.00    +0.000 C 
ENDBRANCH  25  26
ENDBRANCH  24  25
ENDBRANCH  22  24
ENDBRANCH  21  22
ENDBRANCH   5  21
TORSDOF 7
ENDMDL
MODEL 3
REMARK VINA RESULT:      -7.7      1.995      5.069
REMARK  Name = 
REMARK  8 active torsions:
REMARK  status: ('A' for Active; 'I' for Inactive)
REMARK    1  A    between atoms: C_1  and  C_2
REMARK    2  A    between atoms: C_7  and  C_8
REMARK    3  A    between atoms: N_10  and  C_11
REMARK    4  A    between atoms: C_20  and  C_21
REMARK    5  A    between atoms: C_21  and  N_22
REMARK    6  A    between atoms: N_22  and  C_23
REMARK    7  A    between atoms: C_23  and  C_24
REMARK    8  A    between atoms: C_24  and  N_25
REMARK                            x       y       z     vdW  Elec       q    Type
REMARK                         _______ _______ _______ _____ _____    ______ ____
ROOT
ATOM      1  C   UNL     1       4.462   5.782  17.839  0.00  0.00    +0.000 A 
ATOM      2  N   UNL     1       3.490   6.708  17.726  0.00  0.00    +0.000 NA
ATOM      3  N   UNL     1       3.018   6.901  18.968  0.00  0.00    +0.000 N 
ATOM      4  C   UNL     1       3.514   5.977  19.836  0.00  0.00    +0.000 A 
ATOM      5  C   UNL     1       4.514   5.276  19.183  0.00  0.00    +0.000 A 
ENDROOT
BRANCH   3   6
ATOM      6  C   UNL     1       2.079   7.913  19.258  0.00  0.00    +0.000 A 
ATOM      7  C   UNL     1       1.479   7.960  20.522  0.00  0.00    +0.000 A 
ATOM      8  C   UNL     1       0.607   9.009  20.827  0.00  0.00    +0.000 A 
ATOM      9  C   UNL     1       0.303   9.961  19.858  0.00  0.00    +0.000 A 
ATOM     10  F   UNL     1      -0.542  10.957  20.155  0.00  0.00    +0.000 F 
ATOM     11  C   UNL     1       0.856   9.896  18.586  0.00  0.00    +0.000 A 
ATOM     12  C   UNL     1       1.755   8.877  18.298  0.00  0.00    +0.000 A 
ATOM     13  F   UNL     1       2.236   8.798  17.050  0.00  0.00    +0.000 F 
ENDBRANCH   3   6
BRANCH   1  20
ATOM     14  C   UNL     1       7.302   6.785  17.456  0.00  0.00    +0.000 C 
ATOM     15  C   UNL     1       6.600   5.884  16.472  0.00  0.00    +0.000 A 
ATOM     16  C   UNL     1       7.308   5.506  15.315  0.00  0.00    +0.000 A 
ATOM     17  C   UNL     1       6.734   4.673  14.357  0.00  0.00    +0.000 A 
ATOM     18  C   UNL     1       5.452   4.182  14.552  0.00  0.00    +0.000 A 
ATOM     19  C   UNL     1       4.744   4.530  15.704  0.00  0.00    +0.000 A 
ATOM     20  C   UNL     1       5.283   5.407  16.668  0.00  0.00    +0.000 A 
ENDBRANCH   1  20
BRANCH   5  21
ATOM     21  C   UNL     1       5.372   4.209  19.800  0.00  0.00    +0.000 C 
BRANCH  21  22
ATOM     22  N   UNL     1       5.454   3.003  18.941  0.00  0.00    +0.000 NA
ATOM     23  H   UNL     1       6.437   2.784  18.780  0.00  0.00    +0.000 HD
BRANCH  22  24
ATOM     24  C   UNL     1       4.812   1.857  19.596  0.00  0.00    +0.000 C 
BRANCH  24  25
ATOM     25  C   UNL     1       3.621   1.207  18.874  0.00  0.00    +0.000 C 
BRANCH  25  26
ATOM     26  N   UNL     1       2.336   1.874  19.217  0.00  0.00    +0.000 NA
ATOM     27  C   UNL     1       2.393   2.389  20.591  0.00  0.00    +0.000 C 
ATOM     28  C   UNL     1       1.061   3.014  21.005  0.00  0.00    +0.000 C 
ATOM     29  C   UNL     1       0.653   4.134  20.056  0.00  0.00    +0.000 C 
ATOM     30  C   UNL     1       0.644   3.622  18.626  0.00  0.00    +0.000 C 
ATOM     31  C   UNL     1       1.968   2.945  18.271  0.00  0.00    +0.000 C 
ENDBRANCH  25  26
ENDBRANCH  24  25
ENDBRANCH  22  24
ENDBRANCH  21  22
ENDBRANCH   5  21
TORSDOF 7
ENDMDL
MODEL 4
REMARK VINA RESULT:      -7.7      1.222      1.850
REMARK  Name = 
REMARK  8 active torsions:
REMARK  status: ('A' for Active; 'I' for Inactive)
REMARK    1  A    between atoms: C_1  and  C_2
REMARK    2  A    between atoms: C_7  and  C_8
REMARK    3  A    between atoms: N_10  and  C_11
REMARK    4  A    between atoms: C_20  and  C_21
REMARK    5  A    between atoms: C_21  and  N_22
REMARK    6  A    between atoms: N_22  and  C_23
REMARK    7  A    between atoms: C_23  and  C_24
REMARK    8  A    between atoms: C_24  and  N_25
REMARK                            x       y       z     vdW  Elec       q    Type
REMARK                         _______ _______ _______ _____ _____    ______ ____
ROOT
ATOM      1  C   UNL     1       2.561   5.963  18.998  0.00  0.00    +0.000 A 
ATOM      2  N   UNL     1       1.873   6.515  20.016  0.00  0.00    +0.000 NA
ATOM      3  N   UNL     1       1.853   7.836  19.774  0.00  0.00    +0.000 N 
ATOM      4  C   UNL     1       2.685   8.164  18.747  0.00  0.00    +0.000 A 
ATOM      5  C   UNL     1       3.109   6.988  18.153  0.00  0.00    +0.000 A 
ENDROOT
BRANCH   3   6
ATOM      6  C   UNL     1       1.094   8.726  20.562  0.00  0.00    +0.000 A 
ATOM      7  C   UNL     1       1.168   8.651  21.958  0.00  0.00    +0.000 A 
ATOM      8  C   UNL     1       0.472   9.584  22.731  0.00  0.00    +0.000 A 
ATOM      9  C   UNL     1      -0.327  10.540  22.110  0.00  0.00    +0.000 A 
ATOM     10  F   UNL     1      -0.999  11.425  22.859  0.00  0.00    +0.000 F 
ATOM     11  C   UNL     1      -0.444  10.594  20.728  0.00  0.00    +0.000 A 
ATOM     12  C   UNL     1       0.282   9.692  19.959  0.00  0.00    +0.000 A 
ATOM     13  F   UNL     1       0.114   9.723  18.631  0.00  0.00    +0.000 F 
ENDBRANCH   3   6
BRANCH   1  20
ATOM     14  C   UNL     1       5.167   4.499  19.536  0.00  0.00    +0.000 C 
ATOM     15  C   UNL     1       3.897   3.806  19.114  0.00  0.00    +0.000 A 
ATOM     16  C   UNL     1       3.941   2.407  18.954  0.00  0.00    +0.000 A 
ATOM     17  C   UNL     1       2.811   1.688  18.570  0.00  0.00    +0.000 A 
ATOM     18  C   UNL     1       1.611   2.352  18.364  0.00  0.00    +0.000 A 
ATOM     19  C   UNL     1       1.545   3.736  18.538  0.00  0.00    +0.000 A 
ATOM     20  C   UNL     1       2.683   4.494  18.883  0.00  0.00    +0.000 A 
ENDBRANCH   1  20
BRANCH   5  21
ATOM     21  C   UNL     1       3.986   6.895  16.937  0.00  0.00    +0.000 C 
BRANCH  21  22
ATOM     22  N   UNL     1       5.420   7.067  17.276  0.00  0.00    +0.000 NA
ATOM     23  H   UNL     1       5.557   6.799  18.250  0.00  0.00    +0.000 HD
BRANCH  22  24
ATOM     24  C   UNL     1       6.259   6.216  16.424  0.00  0.00    +0.000 C 
BRANCH  24  25
ATOM     25  C   UNL     1       5.609   4.960  15.821  0.00  0.00    +0.000 C 
BRANCH  25  26
ATOM     26  N   UNL     1       5.863   4.854  14.359  0.00  0.00    +0.000 NA
ATOM     27  C   UNL     1       7.291   5.058  14.086  0.00  0.00    +0.000 C 
ATOM     28  C   UNL     1       7.577   5.032  12.585  0.00  0.00    +0.000 C 
ATOM     29  C   UNL     1       7.116   3.725  11.953  0.00  0.00    +0.000 C 
ATOM     30  C   UNL     1       5.653   3.481  12.277  0.00  0.00    +0.000 C 
ATOM     31  C   UNL     1       5.395   3.580  13.781  0.00  0.00    +0.000 C 
ENDBRANCH  25  26
ENDBRANCH  24  25
ENDBRANCH  22  24
ENDBRANCH  21  22
ENDBRANCH   5  21
TORSDOF 7
ENDMDL
MODEL 5
REMARK VINA RESULT:      -7.4      0.585      1.059
REMARK  Name = 
REMARK  8 active torsions:
REMARK  status: ('A' for Active; 'I' for Inactive)
REMARK    1  A    between atoms: C_1  and  C_2
REMARK    2  A    between atoms: C_7  and  C_8
REMARK    3  A    between atoms: N_10  and  C_11
REMARK    4  A    between atoms: C_20  and  C_21
REMARK    5  A    between atoms: C_21  and  N_22
REMARK    6  A    between atoms: N_22  and  C_23
REMARK    7  A    between atoms: C_23  and  C_24
REMARK    8  A    between atoms: C_24  and  N_25
REMARK                            x       y       z     vdW  Elec       q    Type
REMARK                         _______ _______ _______ _____ _____    ______ ____
ROOT
ATOM      1  C   UNL     1       2.813   6.174  18.424  0.00  0.00    +0.000 A 
ATOM      2  N   UNL     1       1.932   6.845  19.192  0.00  0.00    +0.000 NA
ATOM      3  N   UNL     1       2.004   8.127  18.800  0.00  0.00    +0.000 N 
ATOM      4  C   UNL     1       3.051   8.329  17.954  0.00  0.00    +0.000 A 
ATOM      5  C   UNL     1       3.563   7.090  17.610  0.00  0.00    +0.000 A 
ENDROOT
BRANCH   3   6
ATOM      6  C   UNL     1       1.115   9.107  19.291  0.00  0.00    +0.000 A 
ATOM      7  C   UNL     1       0.403   9.910  18.392  0.00  0.00    +0.000 A 
ATOM      8  C   UNL     1      -0.530  10.826  18.885  0.00  0.00    +0.000 A 
ATOM      9  C   UNL     1      -0.705  10.967  20.258  0.00  0.00    +0.000 A 
ATOM     10  F   UNL     1      -1.595  11.853  20.722  0.00  0.00    +0.000 F 
ATOM     11  C   UNL     1       0.029  10.207  21.159  0.00  0.00    +0.000 A 
ATOM     12  C   UNL     1       0.927   9.268  20.668  0.00  0.00    +0.000 A 
ATOM     13  F   UNL     1       1.666   8.584  21.551  0.00  0.00    +0.000 F 
ENDBRANCH   3   6
BRANCH   1  20
ATOM     14  C   UNL     1       5.235   4.779  19.611  0.00  0.00    +0.000 C 
ATOM     15  C   UNL     1       4.047   4.043  19.045  0.00  0.00    +0.000 A 
ATOM     16  C   UNL     1       4.084   2.635  19.065  0.00  0.00    +0.000 A 
ATOM     17  C   UNL     1       3.026   1.878  18.565  0.00  0.00    +0.000 A 
ATOM     18  C   UNL     1       1.903   2.516  18.060  0.00  0.00    +0.000 A 
ATOM     19  C   UNL     1       1.842   3.910  18.053  0.00  0.00    +0.000 A 
ATOM     20  C   UNL     1       2.915   4.702  18.511  0.00  0.00    +0.000 A 
ENDBRANCH   1  20
BRANCH   5  21
ATOM     21  C   UNL     1       4.684   6.851  16.639  0.00  0.00    +0.000 C 
BRANCH  21  22
ATOM     22  N   UNL     1       6.012   7.030  17.275  0.00  0.00    +0.000 NA
ATOM     23  H   UNL     1       6.046   6.463  18.122  0.00  0.00    +0.000 HD
BRANCH  22  24
ATOM     24  C   UNL     1       7.082   6.598  16.369  0.00  0.00    +0.000 C 
BRANCH  24  25
ATOM     25  C   UNL     1       7.090   5.123  15.937  0.00  0.00    +0.000 C 
BRANCH  25  26
ATOM     26  N   UNL     1       6.708   4.964  14.508  0.00  0.00    +0.000 NA
ATOM     27  C   UNL     1       7.885   5.164  13.653  0.00  0.00    +0.000 C 
ATOM     28  C   UNL     1       7.515   5.083  12.172  0.00  0.00    +0.000 C 
ATOM     29  C   UNL     1       6.858   3.751  11.834  0.00  0.00    +0.000 C 
ATOM     30  C   UNL     1       5.671   3.512  12.751  0.00  0.00    +0.000 C 
ATOM     31  C   UNL     1       6.066   3.667  14.220  0.00  0.00    +0.000 C 
ENDBRANCH  25  26
ENDBRANCH  24  25
ENDBRANCH  22  24
ENDBRANCH  21  22
ENDBRANCH   5  21
TORSDOF 7
ENDMDL
MODEL 6
REMARK VINA RESULT:      -7.4      5.005      8.965
REMARK  Name = 
REMARK  8 active torsions:
REMARK  status: ('A' for Active; 'I' for Inactive)
REMARK    1  A    between atoms: C_1  and  C_2
REMARK    2  A    between atoms: C_7  and  C_8
REMARK    3  A    between atoms: N_10  and  C_11
REMARK    4  A    between atoms: C_20  and  C_21
REMARK    5  A    between atoms: C_21  and  N_22
REMARK    6  A    between atoms: N_22  and  C_23
REMARK    7  A    between atoms: C_23  and  C_24
REMARK    8  A    between atoms: C_24  and  N_25
REMARK                            x       y       z     vdW  Elec       q    Type
REMARK                         _______ _______ _______ _____ _____    ______ ____
ROOT
ATOM      1  C   UNL     1       0.229  10.357  18.829  0.00  0.00    +0.000 A 
ATOM      2  N   UNL     1      -1.104  10.191  18.726  0.00  0.00    +0.000 NA
ATOM      3  N   UNL     1      -1.616  11.420  18.550  0.00  0.00    +0.000 N 
ATOM      4  C   UNL     1      -0.674  12.382  18.749  0.00  0.00    +0.000 A 
ATOM      5  C   UNL     1       0.556  11.756  18.853  0.00  0.00    +0.000 A 
ENDROOT
BRANCH   3   6
ATOM      6  C   UNL     1      -2.982  11.622  18.262  0.00  0.00    +0.000 A 
ATOM      7  C   UNL     1      -3.846  12.061  19.272  0.00  0.00    +0.000 A 
ATOM      8  C   UNL     1      -5.181  12.331  18.960  0.00  0.00    +0.000 A 
ATOM      9  C   UNL     1      -5.650  12.111  17.668  0.00  0.00    +0.000 A 
ATOM     10  F   UNL     1      -6.933  12.363  17.380  0.00  0.00    +0.000 F 
ATOM     11  C   UNL     1      -4.812  11.632  16.670  0.00  0.00    +0.000 A 
ATOM     12  C   UNL     1      -3.474  11.403  16.971  0.00  0.00    +0.000 A 
ATOM     13  F   UNL     1      -2.695  10.889  16.012  0.00  0.00    +0.000 F 
ENDBRANCH   3   6
BRANCH   1  20
ATOM     14  C   UNL     1       0.511   8.712  21.366  0.00  0.00    +0.000 C 
ATOM     15  C   UNL     1       1.279   8.426  20.101  0.00  0.00    +0.000 A 
ATOM     16  C   UNL     1       2.178   7.342  20.117  0.00  0.00    +0.000 A 
ATOM     17  C   UNL     1       2.925   7.006  18.990  0.00  0.00    +0.000 A 
ATOM     18  C   UNL     1       2.766   7.733  17.819  0.00  0.00    +0.000 A 
ATOM     19  C   UNL     1       1.863   8.796  17.780  0.00  0.00    +0.000 A 
ATOM     20  C   UNL     1       1.128   9.187  18.918  0.00  0.00    +0.000 A 
ENDBRANCH   1  20
BRANCH   5  21
ATOM     21  C   UNL     1       1.877  12.455  19.007  0.00  0.00    +0.000 C 
BRANCH  21  22
ATOM     22  N   UNL     1       2.308  13.104  17.745  0.00  0.00    +0.000 NA
ATOM     23  H   UNL     1       1.511  13.143  17.111  0.00  0.00    +0.000 HD
BRANCH  22  24
ATOM     24  C   UNL     1       2.780  14.471  18.002  0.00  0.00    +0.000 C 
BRANCH  24  25
ATOM     25  C   UNL     1       2.233  15.184  19.249  0.00  0.00    +0.000 C 
BRANCH  25  26
ATOM     26  N   UNL     1       1.411  16.371  18.890  0.00  0.00    +0.000 NA
ATOM     27  C   UNL     1       1.993  17.046  17.723  0.00  0.00    +0.000 C 
ATOM     28  C   UNL     1       1.218  18.316  17.372  0.00  0.00    +0.000 C 
ATOM     29  C   UNL     1      -0.252  18.014  17.107  0.00  0.00    +0.000 C 
ATOM     30  C   UNL     1      -0.848  17.268  18.288  0.00  0.00    +0.000 C 
ATOM     31  C   UNL     1      -0.008  16.043  18.651  0.00  0.00    +0.000 C 
ENDBRANCH  25  26
ENDBRANCH  24  25
ENDBRANCH  22  24
ENDBRANCH  21  22
ENDBRANCH   5  21
TORSDOF 7
ENDMDL
MODEL 7
REMARK VINA RESULT:      -7.4      1.050      2.070
REMARK  Name = 
REMARK  8 active torsions:
REMARK  status: ('A' for Active; 'I' for Inactive)
REMARK    1  A    between atoms: C_1  and  C_2
REMARK    2  A    between atoms: C_7  and  C_8
REMARK    3  A    between atoms: N_10  and  C_11
REMARK    4  A    between atoms: C_20  and  C_21
REMARK    5  A    between atoms: C_21  and  N_22
REMARK    6  A    between atoms: N_22  and  C_23
REMARK    7  A    between atoms: C_23  and  C_24
REMARK    8  A    between atoms: C_24  and  N_25
REMARK                            x       y       z     vdW  Elec       q    Type
REMARK                         _______ _______ _______ _____ _____    ______ ____
ROOT
ATOM      1  C   UNL     1       2.983   5.839  18.828  0.00  0.00    +0.000 A 
ATOM      2  N   UNL     1       2.122   6.438  19.674  0.00  0.00    +0.000 NA
ATOM      3  N   UNL     1       2.125   7.739  19.344  0.00  0.00    +0.000 N 
ATOM      4  C   UNL     1       3.116   8.022  18.454  0.00  0.00    +0.000 A 
ATOM      5  C   UNL     1       3.653   6.822  18.022  0.00  0.00    +0.000 A 
ENDROOT
BRANCH   3   6
ATOM      6  C   UNL     1       1.229   8.658  19.930  0.00  0.00    +0.000 A 
ATOM      7  C   UNL     1       0.953   8.580  21.300  0.00  0.00    +0.000 A 
ATOM      8  C   UNL     1       0.124   9.540  21.886  0.00  0.00    +0.000 A 
ATOM      9  C   UNL     1      -0.459  10.527  21.098  0.00  0.00    +0.000 A 
ATOM     10  F   UNL     1      -1.261  11.437  21.666  0.00  0.00    +0.000 F 
ATOM     11  C   UNL     1      -0.229  10.586  19.730  0.00  0.00    +0.000 A 
ATOM     12  C   UNL     1       0.629   9.656  19.155  0.00  0.00    +0.000 A 
ATOM     13  F   UNL     1       0.796   9.694  17.827  0.00  0.00    +0.000 F 
ENDBRANCH   3   6
BRANCH   1  20
ATOM     14  C   UNL     1       1.158   3.997  17.248  0.00  0.00    +0.000 C 
ATOM     15  C   UNL     1       2.287   3.503  18.116  0.00  0.00    +0.000 A 
ATOM     16  C   UNL     1       2.485   2.110  18.197  0.00  0.00    +0.000 A 
ATOM     17  C   UNL     1       3.508   1.570  18.974  0.00  0.00    +0.000 A 
ATOM     18  C   UNL     1       4.366   2.414  19.664  0.00  0.00    +0.000 A 
ATOM     19  C   UNL     1       4.196   3.797  19.577  0.00  0.00    +0.000 A 
ATOM     20  C   UNL     1       3.143   4.370  18.835  0.00  0.00    +0.000 A 
ENDBRANCH   1  20
BRANCH   5  21
ATOM     21  C   UNL     1       4.727   6.674  16.982  0.00  0.00    +0.000 C 
BRANCH  21  22
ATOM     22  N   UNL     1       6.012   6.231  17.576  0.00  0.00    +0.000 NA
ATOM     23  H   UNL     1       5.825   5.836  18.497  0.00  0.00    +0.000 HD
BRANCH  22  24
ATOM     24  C   UNL     1       6.644   5.207  16.736  0.00  0.00    +0.000 C 
BRANCH  24  25
ATOM     25  C   UNL     1       7.431   5.688  15.506  0.00  0.00    +0.000 C 
BRANCH  25  26
ATOM     26  N   UNL     1       6.821   5.206  14.237  0.00  0.00    +0.000 NA
ATOM     27  C   UNL     1       7.861   5.059  13.210  0.00  0.00    +0.000 C 
ATOM     28  C   UNL     1       7.260   4.639  11.869  0.00  0.00    +0.000 C 
ATOM     29  C   UNL     1       6.477   3.338  11.994  0.00  0.00    +0.000 C 
ATOM     30  C   UNL     1       5.435   3.465  13.091  0.00  0.00    +0.000 C 
ATOM     31  C   UNL     1       6.063   3.951  14.398  0.00  0.00    +0.000 C 
ENDBRANCH  25  26
ENDBRANCH  24  25
ENDBRANCH  22  24
ENDBRANCH  21  22
ENDBRANCH   5  21
TORSDOF 7
ENDMDL
MODEL 8
REMARK VINA RESULT:      -7.3      3.301     10.130
REMARK  Name = 
REMARK  8 active torsions:
REMARK  status: ('A' for Active; 'I' for Inactive)
REMARK    1  A    between atoms: C_1  and  C_2
REMARK    2  A    between atoms: C_7  and  C_8
REMARK    3  A    between atoms: N_10  and  C_11
REMARK    4  A    between atoms: C_20  and  C_21
REMARK    5  A    between atoms: C_21  and  N_22
REMARK    6  A    between atoms: N_22  and  C_23
REMARK    7  A    between atoms: C_23  and  C_24
REMARK    8  A    between atoms: C_24  and  N_25
REMARK                            x       y       z     vdW  Elec       q    Type
REMARK                         _______ _______ _______ _____ _____    ______ ____
ROOT
ATOM      1  C   UNL     1       0.999   9.183  19.090  0.00  0.00    +0.000 A 
ATOM      2  N   UNL     1       1.763   8.594  18.150  0.00  0.00    +0.000 NA
ATOM      3  N   UNL     1       2.348   7.547  18.752  0.00  0.00    +0.000 N 
ATOM      4  C   UNL     1       2.146   7.573  20.098  0.00  0.00    +0.000 A 
ATOM      5  C   UNL     1       1.215   8.561  20.368  0.00  0.00    +0.000 A 
ENDROOT
BRANCH   3   6
ATOM      6  C   UNL     1       3.116   6.608  18.031  0.00  0.00    +0.000 A 
ATOM      7  C   UNL     1       4.237   7.036  17.311  0.00  0.00    +0.000 A 
ATOM      8  C   UNL     1       5.036   6.091  16.662  0.00  0.00    +0.000 A 
ATOM      9  C   UNL     1       4.681   4.745  16.693  0.00  0.00    +0.000 A 
ATOM     10  F   UNL     1       5.446   3.847  16.061  0.00  0.00    +0.000 F 
ATOM     11  C   UNL     1       3.545   4.316  17.367  0.00  0.00    +0.000 A 
ATOM     12  C   UNL     1       2.775   5.252  18.046  0.00  0.00    +0.000 A 
ATOM     13  F   UNL     1       1.654   4.827  18.643  0.00  0.00    +0.000 F 
ENDBRANCH   3   6
BRANCH   1  20
ATOM     14  C   UNL     1       1.976  12.058  19.061  0.00  0.00    +0.000 C 
ATOM     15  C   UNL     1       0.558  11.660  18.742  0.00  0.00    +0.000 A 
ATOM     16  C   UNL     1      -0.352  12.688  18.428  0.00  0.00    +0.000 A 
ATOM     17  C   UNL     1      -1.681  12.406  18.117  0.00  0.00    +0.000 A 
ATOM     18  C   UNL     1      -2.117  11.090  18.092  0.00  0.00    +0.000 A 
ATOM     19  C   UNL     1      -1.222  10.058  18.380  0.00  0.00    +0.000 A 
ATOM     20  C   UNL     1       0.116  10.316  18.741  0.00  0.00    +0.000 A 
ENDBRANCH   1  20
BRANCH   5  21
ATOM     21  C   UNL     1       0.653   8.879  21.724  0.00  0.00    +0.000 C 
BRANCH  21  22
ATOM     22  N   UNL     1       0.806  10.316  22.061  0.00  0.00    +0.000 NA
ATOM     23  H   UNL     1       1.283  10.781  21.289  0.00  0.00    +0.000 HD
BRANCH  22  24
ATOM     24  C   UNL     1      -0.507  10.943  22.258  0.00  0.00    +0.000 C 
BRANCH  24  25
ATOM     25  C   UNL     1      -0.565  12.479  22.244  0.00  0.00    +0.000 C 
BRANCH  25  26
ATOM     26  N   UNL     1      -1.903  12.985  22.654  0.00  0.00    +0.000 NA
ATOM     27  C   UNL     1      -2.686  13.343  21.465  0.00  0.00    +0.000 C 
ATOM     28  C   UNL     1      -4.039  13.939  21.850  0.00  0.00    +0.000 C 
ATOM     29  C   UNL     1      -4.842  12.981  22.721  0.00  0.00    +0.000 C 
ATOM     30  C   UNL     1      -4.017  12.564  23.927  0.00  0.00    +0.000 C 
ATOM     31  C   UNL     1      -2.646  12.035  23.504  0.00  0.00    +0.000 C 
ENDBRANCH  25  26
ENDBRANCH  24  25
ENDBRANCH  22  24
ENDBRANCH  21  22
ENDBRANCH   5  21
TORSDOF 7
ENDMDL
MODEL 9
REMARK VINA RESULT:      -7.3      3.140      8.214
REMARK  Name = 
REMARK  8 active torsions:
REMARK  status: ('A' for Active; 'I' for Inactive)
REMARK    1  A    between atoms: C_1  and  C_2
REMARK    2  A    between atoms: C_7  and  C_8
REMARK    3  A    between atoms: N_10  and  C_11
REMARK    4  A    between atoms: C_20  and  C_21
REMARK    5  A    between atoms: C_21  and  N_22
REMARK    6  A    between atoms: N_22  and  C_23
REMARK    7  A    between atoms: C_23  and  C_24
REMARK    8  A    between atoms: C_24  and  N_25
REMARK                            x       y       z     vdW  Elec       q    Type
REMARK                         _______ _______ _______ _____ _____    ______ ____
ROOT
ATOM      1  C   UNL     1       3.416   4.887  18.067  0.00  0.00    +0.000 A 
ATOM      2  N   UNL     1       4.005   4.224  17.053  0.00  0.00    +0.000 NA
ATOM      3  N   UNL     1       4.574   5.163  16.279  0.00  0.00    +0.000 N 
ATOM      4  C   UNL     1       4.188   6.413  16.653  0.00  0.00    +0.000 A 
ATOM      5  C   UNL     1       3.504   6.306  17.852  0.00  0.00    +0.000 A 
ENDROOT
BRANCH   3   6
ATOM      6  C   UNL     1       5.406   4.826  15.191  0.00  0.00    +0.000 A 
ATOM      7  C   UNL     1       4.903   4.031  14.154  0.00  0.00    +0.000 A 
ATOM      8  C   UNL     1       5.709   3.765  13.044  0.00  0.00    +0.000 A 
ATOM      9  C   UNL     1       7.015   4.245  13.005  0.00  0.00    +0.000 A 
ATOM     10  F   UNL     1       7.784   3.977  11.942  0.00  0.00    +0.000 F 
ATOM     11  C   UNL     1       7.538   4.995  14.049  0.00  0.00    +0.000 A 
ATOM     12  C   UNL     1       6.722   5.295  15.133  0.00  0.00    +0.000 A 
ATOM     13  F   UNL     1       7.261   5.972  16.155  0.00  0.00    +0.000 F 
ENDBRANCH   3   6
BRANCH   1  20
ATOM     14  C   UNL     1       4.940   2.883  19.764  0.00  0.00    +0.000 C 
ATOM     15  C   UNL     1       3.481   3.201  19.964  0.00  0.00    +0.000 A 
ATOM     16  C   UNL     1       2.800   2.515  20.990  0.00  0.00    +0.000 A 
ATOM     17  C   UNL     1       1.451   2.752  21.245  0.00  0.00    +0.000 A 
ATOM     18  C   UNL     1       0.766   3.697  20.496  0.00  0.00    +0.000 A 
ATOM     19  C   UNL     1       1.431   4.400  19.491  0.00  0.00    +0.000 A 
ATOM     20  C   UNL     1       2.783   4.149  19.181  0.00  0.00    +0.000 A 
ENDBRANCH   1  20
BRANCH   5  21
ATOM     21  C   UNL     1       2.964   7.456  18.652  0.00  0.00    +0.000 C 
BRANCH  21  22
ATOM     22  N   UNL     1       2.738   8.656  17.809  0.00  0.00    +0.000 NA
ATOM     23  H   UNL     1       2.792   8.379  16.829  0.00  0.00    +0.000 HD
BRANCH  22  24
ATOM     24  C   UNL     1       1.412   9.229  18.070  0.00  0.00    +0.000 C 
BRANCH  24  25
ATOM     25  C   UNL     1       1.339  10.437  19.017  0.00  0.00    +0.000 C 
BRANCH  25  26
ATOM     26  N   UNL     1       0.347  10.227  20.106  0.00  0.00    +0.000 NA
ATOM     27  C   UNL     1       0.710   9.039  20.888  0.00  0.00    +0.000 C 
ATOM     28  C   UNL     1      -0.330   8.746  21.969  0.00  0.00    +0.000 C 
ATOM     29  C   UNL     1      -0.512   9.937  22.902  0.00  0.00    +0.000 C 
ATOM     30  C   UNL     1      -0.836  11.182  22.096  0.00  0.00    +0.000 C 
ATOM     31  C   UNL     1       0.190  11.403  20.983  0.00  0.00    +0.000 C 
ENDBRANCH  25  26
ENDBRANCH  24  25
ENDBRANCH  22  24
ENDBRANCH  21  22
ENDBRANCH   5  21
TORSDOF 7
ENDMDL
