MODEL 1
REMARK VINA RESULT:      -7.6      0.000      0.000
REMARK  Name = 
REMARK  3 active torsions:
REMARK  status: ('A' for Active; 'I' for Inactive)
REMARK    1  A    between atoms: O_1  and  C_2
REMARK    2  A    between atoms: C_7  and  N_8
REMARK    3  A    between atoms: C_11  and  C_12
REMARK                            x       y       z     vdW  Elec       q    Type
REMARK                         _______ _______ _______ _____ _____    ______ ____
ROOT
ATOM      1  N   UNL     1       3.681   2.129  19.296  0.00  0.00    +0.000 NA
ATOM      2  C   UNL     1       4.747   3.068  19.574  0.00  0.00    +0.000 C 
ATOM      3  C   UNL     1       4.494   4.443  18.991  0.00  0.00    +0.000 C 
ATOM      4  C   UNL     1       4.026   4.433  17.522  0.00  0.00    +0.000 C 
ATOM      5  C   UNL     1       3.308   3.159  17.036  0.00  0.00    +0.000 C 
ATOM      6  C   UNL     1       3.576   1.899  17.856  0.00  0.00    +0.000 C 
ENDROOT
BRANCH   1  12
ATOM      7  C   UNL     1       2.482   2.862  21.428  0.00  0.00    +0.000 C 
ATOM      8  C   UNL     1       2.264   4.372  21.337  0.00  0.00    +0.000 C 
ATOM      9  C   UNL     1       0.990   4.764  20.600  0.00  0.00    +0.000 C 
ATOM     10  C   UNL     1       0.631   3.934  19.374  0.00  0.00    +0.000 C 
ATOM     11  C   UNL     1       1.063   2.473  19.395  0.00  0.00    +0.000 C 
ATOM     12  C   UNL     1       2.415   2.126  20.063  0.00  0.00    +0.000 C 
BRANCH   7  13
ATOM     13  O   UNL     1       1.471   2.316  22.285  0.00  0.00    +0.000 OA
ATOM     14  H   UNL     1       1.238   3.000  22.935  0.00  0.00    +0.000 HD
ENDBRANCH   7  13
ENDBRANCH   1  12
BRANCH   4  15
ATOM     15  C   UNL     1       5.187   4.815  16.624  0.00  0.00    +0.000 A 
ATOM     16  C   UNL     1       5.378   4.216  15.375  0.00  0.00    +0.000 A 
ATOM     17  C   UNL     1       6.530   4.508  14.667  0.00  0.00    +0.000 A 
ATOM     18  N   UNL     1       7.476   5.368  15.093  0.00  0.00    +0.000 NA
ATOM     19  C   UNL     1       7.259   5.963  16.285  0.00  0.00    +0.000 A 
ATOM     20  C   UNL     1       6.148   5.725  17.080  0.00  0.00    +0.000 A 
ENDBRANCH   4  15
TORSDOF 3
ENDMDL
MODEL 2
REMARK VINA RESULT:      -7.5      0.191      1.093
REMARK  Name = 
REMARK  3 active torsions:
REMARK  status: ('A' for Active; 'I' for Inactive)
REMARK    1  A    between atoms: O_1  and  C_2
REMARK    2  A    between atoms: C_7  and  N_8
REMARK    3  A    between atoms: C_11  and  C_12
REMARK                            x       y       z     vdW  Elec       q    Type
REMARK                         _______ _______ _______ _____ _____    ______ ____
ROOT
ATOM      1  N   UNL     1       3.565   2.013  19.309  0.00  0.00    +0.000 NA
ATOM      2  C   UNL     1       4.733   2.801  19.645  0.00  0.00    +0.000 C 
ATOM      3  C   UNL     1       4.647   4.230  19.150  0.00  0.00    +0.000 C 
ATOM      4  C   UNL     1       4.191   4.367  17.683  0.00  0.00    +0.000 C 
ATOM      5  C   UNL     1       3.332   3.219  17.118  0.00  0.00    +0.000 C 
ATOM      6  C   UNL     1       3.444   1.887  17.858  0.00  0.00    +0.000 C 
ENDROOT
BRANCH   1  12
ATOM      7  C   UNL     1       2.433   2.817  21.452  0.00  0.00    +0.000 C 
ATOM      8  C   UNL     1       2.351   4.342  21.385  0.00  0.00    +0.000 C 
ATOM      9  C   UNL     1       1.119   4.858  20.653  0.00  0.00    +0.000 C 
ATOM     10  C   UNL     1       0.689   4.082  19.414  0.00  0.00    +0.000 C 
ATOM     11  C   UNL     1       0.989   2.589  19.412  0.00  0.00    +0.000 C 
ATOM     12  C   UNL     1       2.303   2.111  20.075  0.00  0.00    +0.000 C 
BRANCH   7  13
ATOM     13  O   UNL     1       1.375   2.350  22.300  0.00  0.00    +0.000 OA
ATOM     14  H   UNL     1       0.911   1.640  21.824  0.00  0.00    +0.000 HD
ENDBRANCH   7  13
ENDBRANCH   1  12
BRANCH   4  15
ATOM     15  C   UNL     1       5.395   4.664  16.810  0.00  0.00    +0.000 A 
ATOM     16  C   UNL     1       6.324   5.651  17.151  0.00  0.00    +0.000 A 
ATOM     17  C   UNL     1       7.321   5.967  16.245  0.00  0.00    +0.000 A 
ATOM     18  N   UNL     1       7.477   5.353  15.056  0.00  0.00    +0.000 NA
ATOM     19  C   UNL     1       6.592   4.379  14.757  0.00  0.00    +0.000 A 
ATOM     20  C   UNL     1       5.547   4.001  15.587  0.00  0.00    +0.000 A 
ENDBRANCH   4  15
TORSDOF 3
ENDMDL
MODEL 3
REMARK VINA RESULT:      -7.0      2.874      6.307
REMARK  Name = 
REMARK  3 active torsions:
REMARK  status: ('A' for Active; 'I' for Inactive)
REMARK    1  A    between atoms: O_1  and  C_2
REMARK    2  A    between atoms: C_7  and  N_8
REMARK    3  A    between atoms: C_11  and  C_12
REMARK                            x       y       z     vdW  Elec       q    Type
REMARK                         _______ _______ _______ _____ _____    ______ ____
ROOT
ATOM      1  N   UNL     1       5.017   6.391  18.190  0.00  0.00    +0.000 NA
ATOM      2  C   UNL     1       5.425   5.449  19.213  0.00  0.00    +0.000 C 
ATOM      3  C   UNL     1       5.029   4.021  18.896  0.00  0.00    +0.000 C 
ATOM      4  C   UNL     1       3.569   3.857  18.428  0.00  0.00    +0.000 C 
ATOM      5  C   UNL     1       2.913   5.086  17.769  0.00  0.00    +0.000 C 
ATOM      6  C   UNL     1       3.560   6.431  18.095  0.00  0.00    +0.000 C 
ENDROOT
BRANCH   1  12
ATOM      7  C   UNL     1       7.239   6.054  16.977  0.00  0.00    +0.000 C 
ATOM      8  C   UNL     1       7.401   4.556  16.720  0.00  0.00    +0.000 C 
ATOM      9  C   UNL     1       6.737   4.080  15.436  0.00  0.00    +0.000 C 
ATOM     10  C   UNL     1       5.388   4.703  15.096  0.00  0.00    +0.000 C 
ATOM     11  C   UNL     1       5.166   6.134  15.565  0.00  0.00    +0.000 C 
ATOM     12  C   UNL     1       5.770   6.554  16.926  0.00  0.00    +0.000 C 
BRANCH   7  13
ATOM     13  O   UNL     1       7.991   6.762  15.982  0.00  0.00    +0.000 OA
ATOM     14  H   UNL     1       8.591   7.369  16.447  0.00  0.00    +0.000 HD
ENDBRANCH   7  13
ENDBRANCH   1  12
BRANCH   4  15
ATOM     15  C   UNL     1       2.736   3.306  19.570  0.00  0.00    +0.000 A 
ATOM     16  C   UNL     1       1.348   3.467  19.611  0.00  0.00    +0.000 A 
ATOM     17  C   UNL     1       0.666   3.063  20.745  0.00  0.00    +0.000 A 
ATOM     18  N   UNL     1       1.255   2.487  21.810  0.00  0.00    +0.000 NA
ATOM     19  C   UNL     1       2.591   2.308  21.740  0.00  0.00    +0.000 A 
ATOM     20  C   UNL     1       3.368   2.694  20.659  0.00  0.00    +0.000 A 
ENDBRANCH   4  15
TORSDOF 3
ENDMDL
MODEL 4
REMARK VINA RESULT:      -6.9      3.685      5.038
REMARK  Name = 
REMARK  3 active torsions:
REMARK  status: ('A' for Active; 'I' for Inactive)
REMARK    1  A    between atoms: O_1  and  C_2
REMARK    2  A    between atoms: C_7  and  N_8
REMARK    3  A    between atoms: C_11  and  C_12
REMARK                            x       y       z     vdW  Elec       q    Type
REMARK                         _______ _______ _______ _____ _____    ______ ____
ROOT
ATOM      1  N   UNL     1       4.478   4.949  19.369  0.00  0.00    +0.000 NA
ATOM      2  C   UNL     1       3.387   5.351  20.232  0.00  0.00    +0.000 C 
ATOM      3  C   UNL     1       2.147   5.765  19.467  0.00  0.00    +0.000 C 
ATOM      4  C   UNL     1       2.417   6.730  18.295  0.00  0.00    +0.000 C 
ATOM      5  C   UNL     1       3.824   6.677  17.668  0.00  0.00    +0.000 C 
ATOM      6  C   UNL     1       4.916   6.079  18.553  0.00  0.00    +0.000 C 
ENDROOT
BRANCH   1  12
ATOM      7  C   UNL     1       4.011   2.452  19.627  0.00  0.00    +0.000 C 
ATOM      8  C   UNL     1       2.495   2.261  19.590  0.00  0.00    +0.000 C 
ATOM      9  C   UNL     1       1.929   2.124  18.183  0.00  0.00    +0.000 C 
ATOM     10  C   UNL     1       2.544   3.017  17.113  0.00  0.00    +0.000 C 
ATOM     11  C   UNL     1       4.012   3.380  17.296  0.00  0.00    +0.000 C 
ATOM     12  C   UNL     1       4.529   3.612  18.736  0.00  0.00    +0.000 C 
BRANCH   7  13
ATOM     13  O   UNL     1       4.625   1.234  19.184  0.00  0.00    +0.000 OA
ATOM     14  H   UNL     1       5.250   0.954  19.874  0.00  0.00    +0.000 HD
ENDBRANCH   7  13
ENDBRANCH   1  12
BRANCH   4  15
ATOM     15  C   UNL     1       2.025   8.137  18.705  0.00  0.00    +0.000 A 
ATOM     16  C   UNL     1       1.445   8.405  19.948  0.00  0.00    +0.000 A 
ATOM     17  C   UNL     1       0.985   9.685  20.205  0.00  0.00    +0.000 A 
ATOM     18  N   UNL     1       1.094  10.710  19.337  0.00  0.00    +0.000 NA
ATOM     19  C   UNL     1       1.688  10.441  18.155  0.00  0.00    +0.000 A 
ATOM     20  C   UNL     1       2.164   9.190  17.794  0.00  0.00    +0.000 A 
ENDBRANCH   4  15
TORSDOF 3
ENDMDL
MODEL 5
REMARK VINA RESULT:      -6.8      2.115      3.572
REMARK  Name = 
REMARK  3 active torsions:
REMARK  status: ('A' for Active; 'I' for Inactive)
REMARK    1  A    between atoms: O_1  and  C_2
REMARK    2  A    between atoms: C_7  and  N_8
REMARK    3  A    between atoms: C_11  and  C_12
REMARK                            x       y       z     vdW  Elec       q    Type
REMARK                         _______ _______ _______ _____ _____    ______ ____
ROOT
ATOM      1  N   UNL     1       5.175   5.896  17.937  0.00  0.00    +0.000 NA
ATOM      2  C   UNL     1       4.486   5.907  16.663  0.00  0.00    +0.000 C 
ATOM      3  C   UNL     1       4.559   4.579  15.938  0.00  0.00    +0.000 C 
ATOM      4  C   UNL     1       5.970   3.959  15.890  0.00  0.00    +0.000 C 
ATOM      5  C   UNL     1       6.941   4.366  17.016  0.00  0.00    +0.000 C 
ATOM      6  C   UNL     1       6.605   5.672  17.734  0.00  0.00    +0.000 C 
ENDROOT
BRANCH   1  12
ATOM      7  C   UNL     1       3.095   5.693  19.404  0.00  0.00    +0.000 C 
ATOM      8  C   UNL     1       2.080   4.837  18.647  0.00  0.00    +0.000 C 
ATOM      9  C   UNL     1       2.260   3.340  18.862  0.00  0.00    +0.000 C 
ATOM     10  C   UNL     1       3.695   2.830  18.921  0.00  0.00    +0.000 C 
ATOM     11  C   UNL     1       4.734   3.795  19.476  0.00  0.00    +0.000 C 
ATOM     12  C   UNL     1       4.575   5.299  19.151  0.00  0.00    +0.000 C 
BRANCH   7  13
ATOM     13  O   UNL     1       2.828   5.567  20.807  0.00  0.00    +0.000 OA
ATOM     14  H   UNL     1       1.863   5.525  20.919  0.00  0.00    +0.000 HD
ENDBRANCH   7  13
ENDBRANCH   1  12
BRANCH   4  15
ATOM     15  C   UNL     1       6.566   4.176  14.513  0.00  0.00    +0.000 A 
ATOM     16  C   UNL     1       7.557   5.134  14.284  0.00  0.00    +0.000 A 
ATOM     17  C   UNL     1       7.959   5.377  12.982  0.00  0.00    +0.000 A 
ATOM     18  N   UNL     1       7.474   4.717  11.912  0.00  0.00    +0.000 NA
ATOM     19  C   UNL     1       6.543   3.771  12.154  0.00  0.00    +0.000 A 
ATOM     20  C   UNL     1       6.060   3.466  13.417  0.00  0.00    +0.000 A 
ENDBRANCH   4  15
TORSDOF 3
ENDMDL
MODEL 6
REMARK VINA RESULT:      -6.7      2.130      3.463
REMARK  Name = 
REMARK  3 active torsions:
REMARK  status: ('A' for Active; 'I' for Inactive)
REMARK    1  A    between atoms: O_1  and  C_2
REMARK    2  A    between atoms: C_7  and  N_8
REMARK    3  A    between atoms: C_11  and  C_12
REMARK                            x       y       z     vdW  Elec       q    Type
REMARK                         _______ _______ _______ _____ _____    ______ ____
ROOT
ATOM      1  N   UNL     1       5.227   5.932  17.935  0.00  0.00    +0.000 NA
ATOM      2  C   UNL     1       4.480   6.021  16.697  0.00  0.00    +0.000 C 
ATOM      3  C   UNL     1       4.457   4.718  15.924  0.00  0.00    +0.000 C 
ATOM      4  C   UNL     1       5.833   4.036  15.787  0.00  0.00    +0.000 C 
ATOM      5  C   UNL     1       6.874   4.358  16.878  0.00  0.00    +0.000 C 
ATOM      6  C   UNL     1       6.633   5.651  17.656  0.00  0.00    +0.000 C 
ENDROOT
BRANCH   1  12
ATOM      7  C   UNL     1       3.162   5.653  19.410  0.00  0.00    +0.000 C 
ATOM      8  C   UNL     1       2.181   4.748  18.663  0.00  0.00    +0.000 C 
ATOM      9  C   UNL     1       2.426   3.262  18.888  0.00  0.00    +0.000 C 
ATOM     10  C   UNL     1       3.881   2.813  18.947  0.00  0.00    +0.000 C 
ATOM     11  C   UNL     1       4.880   3.826  19.491  0.00  0.00    +0.000 C 
ATOM     12  C   UNL     1       4.656   5.320  19.155  0.00  0.00    +0.000 C 
BRANCH   7  13
ATOM     13  O   UNL     1       2.904   5.526  20.815  0.00  0.00    +0.000 OA
ATOM     14  H   UNL     1       3.428   4.775  21.141  0.00  0.00    +0.000 HD
ENDBRANCH   7  13
ENDBRANCH   1  12
BRANCH   4  15
ATOM     15  C   UNL     1       6.374   4.275  14.391  0.00  0.00    +0.000 A 
ATOM     16  C   UNL     1       5.910   3.551  13.289  0.00  0.00    +0.000 A 
ATOM     17  C   UNL     1       6.541   3.719  12.069  0.00  0.00    +0.000 A 
ATOM     18  N   UNL     1       7.563   4.573  11.865  0.00  0.00    +0.000 NA
ATOM     19  C   UNL     1       7.976   5.290  12.931  0.00  0.00    +0.000 A 
ATOM     20  C   UNL     1       7.424   5.181  14.198  0.00  0.00    +0.000 A 
ENDBRANCH   4  15
TORSDOF 3
ENDMDL
MODEL 7
REMARK VINA RESULT:      -6.7      3.713      5.007
REMARK  Name = 
REMARK  3 active torsions:
REMARK  status: ('A' for Active; 'I' for Inactive)
REMARK    1  A    between atoms: O_1  and  C_2
REMARK    2  A    between atoms: C_7  and  N_8
REMARK    3  A    between atoms: C_11  and  C_12
REMARK                            x       y       z     vdW  Elec       q    Type
REMARK                         _______ _______ _______ _____ _____    ______ ____
ROOT
ATOM      1  N   UNL     1       4.445   5.068  19.366  0.00  0.00    +0.000 NA
ATOM      2  C   UNL     1       3.328   5.459  20.202  0.00  0.00    +0.000 C 
ATOM      3  C   UNL     1       2.088   5.816  19.406  0.00  0.00    +0.000 C 
ATOM      4  C   UNL     1       2.349   6.758  18.213  0.00  0.00    +0.000 C 
ATOM      5  C   UNL     1       3.767   6.731  17.610  0.00  0.00    +0.000 C 
ATOM      6  C   UNL     1       4.862   6.189  18.527  0.00  0.00    +0.000 C 
ENDROOT
BRANCH   1  12
ATOM      7  C   UNL     1       4.040   2.567  19.681  0.00  0.00    +0.000 C 
ATOM      8  C   UNL     1       2.531   2.333  19.617  0.00  0.00    +0.000 C 
ATOM      9  C   UNL     1       2.000   2.144  18.203  0.00  0.00    +0.000 C 
ATOM     10  C   UNL     1       2.614   3.026  17.122  0.00  0.00    +0.000 C 
ATOM     11  C   UNL     1       4.067   3.434  17.326  0.00  0.00    +0.000 C 
ATOM     12  C   UNL     1       4.545   3.718  18.770  0.00  0.00    +0.000 C 
BRANCH   7  13
ATOM     13  O   UNL     1       4.697   1.356  19.283  0.00  0.00    +0.000 OA
ATOM     14  H   UNL     1       5.388   1.168  19.941  0.00  0.00    +0.000 HD
ENDBRANCH   7  13
ENDBRANCH   1  12
BRANCH   4  15
ATOM     15  C   UNL     1       1.909   8.162  18.579  0.00  0.00    +0.000 A 
ATOM     16  C   UNL     1       2.117   9.245  17.720  0.00  0.00    +0.000 A 
ATOM     17  C   UNL     1       1.819  10.518  18.171  0.00  0.00    +0.000 A 
ATOM     18  N   UNL     1       1.301  10.782  19.387  0.00  0.00    +0.000 NA
ATOM     19  C   UNL     1       1.074   9.723  20.191  0.00  0.00    +0.000 A 
ATOM     20  C   UNL     1       1.357   8.411  19.841  0.00  0.00    +0.000 A 
ENDBRANCH   4  15
TORSDOF 3
ENDMDL
MODEL 8
REMARK VINA RESULT:      -6.7      1.829      3.068
REMARK  Name = 
REMARK  3 active torsions:
REMARK  status: ('A' for Active; 'I' for Inactive)
REMARK    1  A    between atoms: O_1  and  C_2
REMARK    2  A    between atoms: C_7  and  N_8
REMARK    3  A    between atoms: C_11  and  C_12
REMARK                            x       y       z     vdW  Elec       q    Type
REMARK                         _______ _______ _______ _____ _____    ______ ____
ROOT
ATOM      1  N   UNL     1       3.565   5.198  17.625  0.00  0.00    +0.000 NA
ATOM      2  C   UNL     1       3.529   4.081  16.703  0.00  0.00    +0.000 C 
ATOM      3  C   UNL     1       4.886   3.439  16.496  0.00  0.00    +0.000 C 
ATOM      4  C   UNL     1       6.028   4.440  16.234  0.00  0.00    +0.000 C 
ATOM      5  C   UNL     1       5.840   5.864  16.793  0.00  0.00    +0.000 C 
ATOM      6  C   UNL     1       4.396   6.271  17.084  0.00  0.00    +0.000 C 
ENDROOT
BRANCH   1  12
ATOM      7  C   UNL     1       2.239   5.208  19.807  0.00  0.00    +0.000 C 
ATOM      8  C   UNL     1       1.340   3.973  19.805  0.00  0.00    +0.000 C 
ATOM      9  C   UNL     1       2.020   2.718  20.336  0.00  0.00    +0.000 C 
ATOM     10  C   UNL     1       3.479   2.518  19.944  0.00  0.00    +0.000 C 
ATOM     11  C   UNL     1       4.302   3.782  19.730  0.00  0.00    +0.000 C 
ATOM     12  C   UNL     1       3.602   5.005  19.092  0.00  0.00    +0.000 C 
BRANCH   7  13
ATOM     13  O   UNL     1       2.495   5.572  21.170  0.00  0.00    +0.000 OA
ATOM     14  H   UNL     1       2.302   6.521  21.261  0.00  0.00    +0.000 HD
ENDBRANCH   7  13
ENDBRANCH   1  12
BRANCH   4  15
ATOM     15  C   UNL     1       6.361   4.445  14.754  0.00  0.00    +0.000 A 
ATOM     16  C   UNL     1       5.707   3.601  13.852  0.00  0.00    +0.000 A 
ATOM     17  C   UNL     1       6.152   3.556  12.543  0.00  0.00    +0.000 A 
ATOM     18  N   UNL     1       7.165   4.308  12.068  0.00  0.00    +0.000 NA
ATOM     19  C   UNL     1       7.762   5.142  12.944  0.00  0.00    +0.000 A 
ATOM     20  C   UNL     1       7.405   5.247  14.279  0.00  0.00    +0.000 A 
ENDBRANCH   4  15
TORSDOF 3
ENDMDL
MODEL 9
REMARK VINA RESULT:      -6.7      2.017      3.035
REMARK  Name = 
REMARK  3 active torsions:
REMARK  status: ('A' for Active; 'I' for Inactive)
REMARK    1  A    between atoms: O_1  and  C_2
REMARK    2  A    between atoms: C_7  and  N_8
REMARK    3  A    between atoms: C_11  and  C_12
REMARK                            x       y       z     vdW  Elec       q    Type
REMARK                         _______ _______ _______ _____ _____    ______ ____
ROOT
ATOM      1  N   UNL     1       2.191   4.730  18.099  0.00  0.00    +0.000 NA
ATOM      2  C   UNL     1       3.236   4.432  17.141  0.00  0.00    +0.000 C 
ATOM      3  C   UNL     1       4.536   4.009  17.793  0.00  0.00    +0.000 C 
ATOM      4  C   UNL     1       4.984   4.912  18.960  0.00  0.00    +0.000 C 
ATOM      5  C   UNL     1       3.875   5.685  19.700  0.00  0.00    +0.000 C 
ATOM      6  C   UNL     1       2.575   5.876  18.922  0.00  0.00    +0.000 C 
ENDROOT
BRANCH   1  12
ATOM      7  C   UNL     1       2.090   2.271  18.778  0.00  0.00    +0.000 C 
ATOM      8  C   UNL     1       3.083   2.068  19.922  0.00  0.00    +0.000 C 
ATOM      9  C   UNL     1       2.505   2.372  21.297  0.00  0.00    +0.000 C 
ATOM     10  C   UNL     1       1.570   3.573  21.391  0.00  0.00    +0.000 C 
ATOM     11  C   UNL     1       0.750   3.891  20.148  0.00  0.00    +0.000 C 
ATOM     12  C   UNL     1       1.409   3.666  18.766  0.00  0.00    +0.000 C 
BRANCH   7  13
ATOM     13  O   UNL     1       1.068   1.271  18.891  0.00  0.00    +0.000 OA
ATOM     14  H   UNL     1       0.312   1.677  19.346  0.00  0.00    +0.000 HD
ENDBRANCH   7  13
ENDBRANCH   1  12
BRANCH   4  15
ATOM     15  C   UNL     1       6.100   5.824  18.486  0.00  0.00    +0.000 A 
ATOM     16  C   UNL     1       7.340   5.864  19.130  0.00  0.00    +0.000 A 
ATOM     17  C   UNL     1       8.263   6.816  18.735  0.00  0.00    +0.000 A 
ATOM     18  N   UNL     1       8.056   7.694  17.734  0.00  0.00    +0.000 NA
ATOM     19  C   UNL     1       6.867   7.619  17.101  0.00  0.00    +0.000 A 
ATOM     20  C   UNL     1       5.868   6.716  17.432  0.00  0.00    +0.000 A 
ENDBRANCH   4  15
TORSDOF 3
ENDMDL
