MODEL 1
REMARK VINA RESULT:      -8.0      0.000      0.000
REMARK  Name = 
REMARK  6 active torsions:
REMARK  status: ('A' for Active; 'I' for Inactive)
REMARK    1  A    between atoms: C_2  and  C_14
REMARK    2  A    between atoms: N_3  and  C_4
REMARK    3  A    between atoms: C_10  and  C_11
REMARK    4  A    between atoms: C_11  and  O_13
REMARK    5  A    between atoms: C_17  and  S_18
REMARK    6  A    between atoms: S_18  and  C_19
REMARK                            x       y       z     vdW  Elec       q    Type
REMARK                         _______ _______ _______ _____ _____    ______ ____
ROOT
ATOM      1  O   UNL     1       2.960   5.203  18.072  0.00  0.00    +0.000 OA
ATOM      2  C   UNL     1       3.343   6.379  18.032  0.00  0.00    +0.000 C 
ATOM      3  N   UNL     1       4.536   6.819  17.450  0.00  0.00    +0.000 N 
ATOM      4  H   UNL     1       4.842   7.777  17.615  0.00  0.00    +0.000 HD
ENDROOT
BRANCH   3   5
ATOM      5  C   UNL     1       5.466   5.952  16.809  0.00  0.00    +0.000 A 
ATOM      6  C   UNL     1       5.218   5.540  15.489  0.00  0.00    +0.000 A 
ATOM      7  C   UNL     1       6.025   4.603  14.853  0.00  0.00    +0.000 A 
ATOM      8 BR   UNL     1       5.592   4.055  13.095  0.00  0.00    +0.000 Br
ATOM      9  C   UNL     1       7.113   4.063  15.506  0.00  0.00    +0.000 A 
ATOM     10  C   UNL     1       7.420   4.487  16.799  0.00  0.00    +0.000 A 
ATOM     11  C   UNL     1       6.627   5.462  17.451  0.00  0.00    +0.000 A 
BRANCH  11  12
ATOM     12  C   UNL     1       7.011   5.862  18.829  0.00  0.00    +0.000 C 
ATOM     13  O   UNL     1       6.373   5.542  19.817  0.00  0.00    +0.000 OA
BRANCH  12  14
ATOM     14  O   UNL     1       8.107   6.653  18.888  0.00  0.00    +0.000 OA
ATOM     15  H   UNL     1       8.966   6.207  18.755  0.00  0.00    +0.000 HD
ENDBRANCH  12  14
ENDBRANCH  11  12
ENDBRANCH   3   5
BRANCH   2  16
ATOM     16  C   UNL     1       2.463   7.348  18.716  0.00  0.00    +0.000 A 
ATOM     17  C   UNL     1       2.017   8.520  18.104  0.00  0.00    +0.000 A 
ATOM     18  C   UNL     1       1.301   9.458  18.853  0.00  0.00    +0.000 A 
ATOM     19  C   UNL     1       1.002   9.234  20.204  0.00  0.00    +0.000 A 
ATOM     20  C   UNL     1       1.454   8.063  20.816  0.00  0.00    +0.000 A 
ATOM     21  C   UNL     1       2.174   7.127  20.075  0.00  0.00    +0.000 A 
BRANCH  19  22
ATOM     22  S   UNL     1       0.163  10.508  21.119  0.00  0.00    +0.000 S 
BRANCH  22  23
ATOM     23  C   UNL     1      -0.365   9.615  22.586  0.00  0.00    +0.000 C 
ATOM     24  F   UNL     1      -0.922   8.409  22.327  0.00  0.00    +0.000 F 
ATOM     25  F   UNL     1       0.686   9.398  23.412  0.00  0.00    +0.000 F 
ATOM     26  F   UNL     1      -1.279  10.332  23.283  0.00  0.00    +0.000 F 
ENDBRANCH  22  23
ENDBRANCH  19  22
ENDBRANCH   2  16
TORSDOF 6
ENDMDL
MODEL 2
REMARK VINA RESULT:      -7.9      0.125      1.016
REMARK  Name = 
REMARK  6 active torsions:
REMARK  status: ('A' for Active; 'I' for Inactive)
REMARK    1  A    between atoms: C_2  and  C_14
REMARK    2  A    between atoms: N_3  and  C_4
REMARK    3  A    between atoms: C_10  and  C_11
REMARK    4  A    between atoms: C_11  and  O_13
REMARK    5  A    between atoms: C_17  and  S_18
REMARK    6  A    between atoms: S_18  and  C_19
REMARK                            x       y       z     vdW  Elec       q    Type
REMARK                         _______ _______ _______ _____ _____    ______ ____
ROOT
ATOM      1  O   UNL     1       2.807   5.285  17.786  0.00  0.00    +0.000 OA
ATOM      2  C   UNL     1       3.271   6.427  17.894  0.00  0.00    +0.000 C 
ATOM      3  N   UNL     1       4.529   6.834  17.436  0.00  0.00    +0.000 N 
ATOM      4  H   UNL     1       4.887   7.744  17.720  0.00  0.00    +0.000 HD
ENDROOT
BRANCH   3   5
ATOM      5  C   UNL     1       5.439   5.969  16.764  0.00  0.00    +0.000 A 
ATOM      6  C   UNL     1       5.134   5.532  15.464  0.00  0.00    +0.000 A 
ATOM      7  C   UNL     1       5.923   4.596  14.805  0.00  0.00    +0.000 A 
ATOM      8 BR   UNL     1       5.414   4.013  13.080  0.00  0.00    +0.000 Br
ATOM      9  C   UNL     1       7.048   4.081  15.414  0.00  0.00    +0.000 A 
ATOM     10  C   UNL     1       7.411   4.531  16.684  0.00  0.00    +0.000 A 
ATOM     11  C   UNL     1       6.637   5.506  17.358  0.00  0.00    +0.000 A 
BRANCH  11  12
ATOM     12  C   UNL     1       7.080   5.934  18.709  0.00  0.00    +0.000 C 
ATOM     13  O   UNL     1       8.086   6.595  18.902  0.00  0.00    +0.000 OA
BRANCH  12  14
ATOM     14  O   UNL     1       6.292   5.487  19.714  0.00  0.00    +0.000 OA
ATOM     15  H   UNL     1       6.428   5.907  20.586  0.00  0.00    +0.000 HD
ENDBRANCH  12  14
ENDBRANCH  11  12
ENDBRANCH   3   5
BRANCH   2  16
ATOM     16  C   UNL     1       2.415   7.386  18.621  0.00  0.00    +0.000 A 
ATOM     17  C   UNL     1       1.929   8.555  18.035  0.00  0.00    +0.000 A 
ATOM     18  C   UNL     1       1.240   9.483  18.820  0.00  0.00    +0.000 A 
ATOM     19  C   UNL     1       1.006   9.252  20.183  0.00  0.00    +0.000 A 
ATOM     20  C   UNL     1       1.497   8.083  20.769  0.00  0.00    +0.000 A 
ATOM     21  C   UNL     1       2.191   7.157  19.991  0.00  0.00    +0.000 A 
BRANCH  19  22
ATOM     22  S   UNL     1       0.198  10.515  21.140  0.00  0.00    +0.000 S 
BRANCH  22  23
ATOM     23  C   UNL     1      -0.358   9.585  22.574  0.00  0.00    +0.000 C 
ATOM     24  F   UNL     1      -1.300  10.217  23.311  0.00  0.00    +0.000 F 
ATOM     25  F   UNL     1      -0.883   8.396  22.192  0.00  0.00    +0.000 F 
ATOM     26  F   UNL     1       0.679   9.314  23.404  0.00  0.00    +0.000 F 
ENDBRANCH  22  23
ENDBRANCH  19  22
ENDBRANCH   2  16
TORSDOF 6
ENDMDL
MODEL 3
REMARK VINA RESULT:      -7.6      1.862      2.298
REMARK  Name = 
REMARK  6 active torsions:
REMARK  status: ('A' for Active; 'I' for Inactive)
REMARK    1  A    between atoms: C_2  and  C_14
REMARK    2  A    between atoms: N_3  and  C_4
REMARK    3  A    between atoms: C_10  and  C_11
REMARK    4  A    between atoms: C_11  and  O_13
REMARK    5  A    between atoms: C_17  and  S_18
REMARK    6  A    between atoms: S_18  and  C_19
REMARK                            x       y       z     vdW  Elec       q    Type
REMARK                         _______ _______ _______ _____ _____    ______ ____
ROOT
ATOM      1  O   UNL     1       2.900   5.543  17.882  0.00  0.00    +0.000 OA
ATOM      2  C   UNL     1       3.405   6.672  17.880  0.00  0.00    +0.000 C 
ATOM      3  N   UNL     1       4.669   6.990  17.373  0.00  0.00    +0.000 N 
ATOM      4  H   UNL     1       5.063   7.909  17.568  0.00  0.00    +0.000 HD
ENDROOT
BRANCH   3   5
ATOM      5  C   UNL     1       5.539   6.035  16.772  0.00  0.00    +0.000 A 
ATOM      6  C   UNL     1       5.284   5.612  15.457  0.00  0.00    +0.000 A 
ATOM      7  C   UNL     1       6.026   4.598  14.861  0.00  0.00    +0.000 A 
ATOM      8 BR   UNL     1       5.584   4.042  13.108  0.00  0.00    +0.000 Br
ATOM      9  C   UNL     1       7.053   3.988  15.550  0.00  0.00    +0.000 A 
ATOM     10  C   UNL     1       7.368   4.419  16.839  0.00  0.00    +0.000 A 
ATOM     11  C   UNL     1       6.644   5.471  17.450  0.00  0.00    +0.000 A 
BRANCH  11  12
ATOM     12  C   UNL     1       7.031   5.874  18.827  0.00  0.00    +0.000 C 
ATOM     13  O   UNL     1       6.398   5.553  19.818  0.00  0.00    +0.000 OA
BRANCH  12  14
ATOM     14  O   UNL     1       8.125   6.668  18.881  0.00  0.00    +0.000 OA
ATOM     15  H   UNL     1       8.735   6.509  19.627  0.00  0.00    +0.000 HD
ENDBRANCH  12  14
ENDBRANCH  11  12
ENDBRANCH   3   5
BRANCH   2  16
ATOM     16  C   UNL     1       2.593   7.723  18.527  0.00  0.00    +0.000 A 
ATOM     17  C   UNL     1       2.080   7.590  19.817  0.00  0.00    +0.000 A 
ATOM     18  C   UNL     1       1.207   8.562  20.314  0.00  0.00    +0.000 A 
ATOM     19  C   UNL     1       0.854   9.682  19.550  0.00  0.00    +0.000 A 
ATOM     20  C   UNL     1       1.366   9.812  18.256  0.00  0.00    +0.000 A 
ATOM     21  C   UNL     1       2.232   8.842  17.753  0.00  0.00    +0.000 A 
BRANCH  19  22
ATOM     22  S   UNL     1      -0.329  10.834  20.212  0.00  0.00    +0.000 S 
BRANCH  22  23
ATOM     23  C   UNL     1      -1.513  10.953  18.865  0.00  0.00    +0.000 C 
ATOM     24  F   UNL     1      -1.817   9.766  18.292  0.00  0.00    +0.000 F 
ATOM     25  F   UNL     1      -2.675  11.493  19.304  0.00  0.00    +0.000 F 
ATOM     26  F   UNL     1      -1.044  11.760  17.882  0.00  0.00    +0.000 F 
ENDBRANCH  22  23
ENDBRANCH  19  22
ENDBRANCH   2  16
TORSDOF 6
ENDMDL
MODEL 4
REMARK VINA RESULT:      -7.6      1.862      2.419
REMARK  Name = 
REMARK  6 active torsions:
REMARK  status: ('A' for Active; 'I' for Inactive)
REMARK    1  A    between atoms: C_2  and  C_14
REMARK    2  A    between atoms: N_3  and  C_4
REMARK    3  A    between atoms: C_10  and  C_11
REMARK    4  A    between atoms: C_11  and  O_13
REMARK    5  A    between atoms: C_17  and  S_18
REMARK    6  A    between atoms: S_18  and  C_19
REMARK                            x       y       z     vdW  Elec       q    Type
REMARK                         _______ _______ _______ _____ _____    ______ ____
ROOT
ATOM      1  O   UNL     1       2.894   5.527  17.895  0.00  0.00    +0.000 OA
ATOM      2  C   UNL     1       3.382   6.663  17.854  0.00  0.00    +0.000 C 
ATOM      3  N   UNL     1       4.622   6.989  17.298  0.00  0.00    +0.000 N 
ATOM      4  H   UNL     1       5.009   7.917  17.462  0.00  0.00    +0.000 HD
ENDROOT
BRANCH   3   5
ATOM      5  C   UNL     1       5.485   6.036  16.685  0.00  0.00    +0.000 A 
ATOM      6  C   UNL     1       5.190   5.580  15.389  0.00  0.00    +0.000 A 
ATOM      7  C   UNL     1       5.926   4.566  14.787  0.00  0.00    +0.000 A 
ATOM      8 BR   UNL     1       5.431   3.966  13.064  0.00  0.00    +0.000 Br
ATOM      9  C   UNL     1       6.988   3.988  15.451  0.00  0.00    +0.000 A 
ATOM     10  C   UNL     1       7.342   4.451  16.718  0.00  0.00    +0.000 A 
ATOM     11  C   UNL     1       6.624   5.504  17.334  0.00  0.00    +0.000 A 
BRANCH  11  12
ATOM     12  C   UNL     1       7.054   5.942  18.686  0.00  0.00    +0.000 C 
ATOM     13  O   UNL     1       8.068   6.589  18.886  0.00  0.00    +0.000 OA
BRANCH  12  14
ATOM     14  O   UNL     1       6.244   5.520  19.685  0.00  0.00    +0.000 OA
ATOM     15  H   UNL     1       6.579   5.652  20.594  0.00  0.00    +0.000 HD
ENDBRANCH  12  14
ENDBRANCH  11  12
ENDBRANCH   3   5
BRANCH   2  16
ATOM     16  C   UNL     1       2.576   7.714  18.509  0.00  0.00    +0.000 A 
ATOM     17  C   UNL     1       2.088   7.587  19.809  0.00  0.00    +0.000 A 
ATOM     18  C   UNL     1       1.219   8.558  20.316  0.00  0.00    +0.000 A 
ATOM     19  C   UNL     1       0.846   9.671  19.551  0.00  0.00    +0.000 A 
ATOM     20  C   UNL     1       1.333   9.795  18.247  0.00  0.00    +0.000 A 
ATOM     21  C   UNL     1       2.195   8.825  17.735  0.00  0.00    +0.000 A 
BRANCH  19  22
ATOM     22  S   UNL     1      -0.330  10.822  20.227  0.00  0.00    +0.000 S 
BRANCH  22  23
ATOM     23  C   UNL     1      -1.511  10.968  18.880  0.00  0.00    +0.000 C 
ATOM     24  F   UNL     1      -2.699  11.503  19.244  0.00  0.00    +0.000 F 
ATOM     25  F   UNL     1      -1.009  11.747  17.893  0.00  0.00    +0.000 F 
ATOM     26  F   UNL     1      -1.773   9.754  18.336  0.00  0.00    +0.000 F 
ENDBRANCH  22  23
ENDBRANCH  19  22
ENDBRANCH   2  16
TORSDOF 6
ENDMDL
MODEL 5
REMARK VINA RESULT:      -7.6      0.251      1.262
REMARK  Name = 
REMARK  6 active torsions:
REMARK  status: ('A' for Active; 'I' for Inactive)
REMARK    1  A    between atoms: C_2  and  C_14
REMARK    2  A    between atoms: N_3  and  C_4
REMARK    3  A    between atoms: C_10  and  C_11
REMARK    4  A    between atoms: C_11  and  O_13
REMARK    5  A    between atoms: C_17  and  S_18
REMARK    6  A    between atoms: S_18  and  C_19
REMARK                            x       y       z     vdW  Elec       q    Type
REMARK                         _______ _______ _______ _____ _____    ______ ____
ROOT
ATOM      1  O   UNL     1       3.067   5.303  18.273  0.00  0.00    +0.000 OA
ATOM      2  C   UNL     1       3.475   6.470  18.219  0.00  0.00    +0.000 C 
ATOM      3  N   UNL     1       4.655   6.884  17.593  0.00  0.00    +0.000 N 
ATOM      4  H   UNL     1       4.988   7.835  17.747  0.00  0.00    +0.000 HD
ENDROOT
BRANCH   3   5
ATOM      5  C   UNL     1       5.540   5.997  16.917  0.00  0.00    +0.000 A 
ATOM      6  C   UNL     1       5.225   5.579  15.613  0.00  0.00    +0.000 A 
ATOM      7  C   UNL     1       5.986   4.624  14.949  0.00  0.00    +0.000 A 
ATOM      8 BR   UNL     1       5.463   4.069  13.218  0.00  0.00    +0.000 Br
ATOM      9  C   UNL     1       7.095   4.071  15.556  0.00  0.00    +0.000 A 
ATOM     10  C   UNL     1       7.468   4.501  16.829  0.00  0.00    +0.000 A 
ATOM     11  C   UNL     1       6.722   5.494  17.509  0.00  0.00    +0.000 A 
BRANCH  11  12
ATOM     12  C   UNL     1       7.176   5.899  18.864  0.00  0.00    +0.000 C 
ATOM     13  O   UNL     1       6.713   5.429  19.889  0.00  0.00    +0.000 OA
BRANCH  12  14
ATOM     14  O   UNL     1       8.118   6.871  18.862  0.00  0.00    +0.000 OA
ATOM     15  H   UNL     1       8.064   7.521  19.589  0.00  0.00    +0.000 HD
ENDBRANCH  12  14
ENDBRANCH  11  12
ENDBRANCH   3   5
BRANCH   2  16
ATOM     16  C   UNL     1       2.643   7.459  18.936  0.00  0.00    +0.000 A 
ATOM     17  C   UNL     1       2.152   7.237  20.222  0.00  0.00    +0.000 A 
ATOM     18  C   UNL     1       1.259   8.152  20.786  0.00  0.00    +0.000 A 
ATOM     19  C   UNL     1       0.865   9.305  20.092  0.00  0.00    +0.000 A 
ATOM     20  C   UNL     1       1.355   9.523  18.802  0.00  0.00    +0.000 A 
ATOM     21  C   UNL     1       2.240   8.609  18.233  0.00  0.00    +0.000 A 
BRANCH  19  22
ATOM     22  S   UNL     1      -0.340  10.383  20.834  0.00  0.00    +0.000 S 
BRANCH  22  23
ATOM     23  C   UNL     1      -0.382   9.772  22.523  0.00  0.00    +0.000 C 
ATOM     24  F   UNL     1       0.835   9.678  23.106  0.00  0.00    +0.000 F 
ATOM     25  F   UNL     1      -1.134  10.587  23.302  0.00  0.00    +0.000 F 
ATOM     26  F   UNL     1      -0.944   8.540  22.576  0.00  0.00    +0.000 F 
ENDBRANCH  22  23
ENDBRANCH  19  22
ENDBRANCH   2  16
TORSDOF 6
ENDMDL
MODEL 6
REMARK VINA RESULT:      -7.6      1.631      1.816
REMARK  Name = 
REMARK  6 active torsions:
REMARK  status: ('A' for Active; 'I' for Inactive)
REMARK    1  A    between atoms: C_2  and  C_14
REMARK    2  A    between atoms: N_3  and  C_4
REMARK    3  A    between atoms: C_10  and  C_11
REMARK    4  A    between atoms: C_11  and  O_13
REMARK    5  A    between atoms: C_17  and  S_18
REMARK    6  A    between atoms: S_18  and  C_19
REMARK                            x       y       z     vdW  Elec       q    Type
REMARK                         _______ _______ _______ _____ _____    ______ ____
ROOT
ATOM      1  O   UNL     1       2.942   5.363  17.822  0.00  0.00    +0.000 OA
ATOM      2  C   UNL     1       3.386   6.517  17.796  0.00  0.00    +0.000 C 
ATOM      3  N   UNL     1       4.635   6.890  17.291  0.00  0.00    +0.000 N 
ATOM      4  H   UNL     1       4.978   7.834  17.467  0.00  0.00    +0.000 HD
ENDROOT
BRANCH   3   5
ATOM      5  C   UNL     1       5.560   5.970  16.720  0.00  0.00    +0.000 A 
ATOM      6  C   UNL     1       5.367   5.537  15.398  0.00  0.00    +0.000 A 
ATOM      7  C   UNL     1       6.165   4.553  14.827  0.00  0.00    +0.000 A 
ATOM      8 BR   UNL     1       5.805   3.981  13.061  0.00  0.00    +0.000 Br
ATOM      9  C   UNL     1       7.192   3.983  15.551  0.00  0.00    +0.000 A 
ATOM     10  C   UNL     1       7.447   4.425  16.850  0.00  0.00    +0.000 A 
ATOM     11  C   UNL     1       6.663   5.448  17.436  0.00  0.00    +0.000 A 
BRANCH  11  12
ATOM     12  C   UNL     1       6.988   5.865  18.824  0.00  0.00    +0.000 C 
ATOM     13  O   UNL     1       6.287   5.592  19.783  0.00  0.00    +0.000 OA
BRANCH  12  14
ATOM     14  O   UNL     1       8.111   6.614  18.925  0.00  0.00    +0.000 OA
ATOM     15  H   UNL     1       8.957   6.136  18.819  0.00  0.00    +0.000 HD
ENDBRANCH  12  14
ENDBRANCH  11  12
ENDBRANCH   3   5
BRANCH   2  16
ATOM     16  C   UNL     1       2.513   7.538  18.411  0.00  0.00    +0.000 A 
ATOM     17  C   UNL     1       2.141   8.707  17.748  0.00  0.00    +0.000 A 
ATOM     18  C   UNL     1       1.428   9.692  18.436  0.00  0.00    +0.000 A 
ATOM     19  C   UNL     1       1.058   9.519  19.777  0.00  0.00    +0.000 A 
ATOM     20  C   UNL     1       1.435   8.349  20.441  0.00  0.00    +0.000 A 
ATOM     21  C   UNL     1       2.153   7.367  19.760  0.00  0.00    +0.000 A 
BRANCH  19  22
ATOM     22  S   UNL     1       0.227  10.849  20.617  0.00  0.00    +0.000 S 
BRANCH  22  23
ATOM     23  C   UNL     1      -1.154  11.169  19.513  0.00  0.00    +0.000 C 
ATOM     24  F   UNL     1      -1.657  10.061  18.923  0.00  0.00    +0.000 F 
ATOM     25  F   UNL     1      -2.171  11.758  20.186  0.00  0.00    +0.000 F 
ATOM     26  F   UNL     1      -0.790  12.017  18.520  0.00  0.00    +0.000 F 
ENDBRANCH  22  23
ENDBRANCH  19  22
ENDBRANCH   2  16
TORSDOF 6
ENDMDL
MODEL 7
REMARK VINA RESULT:      -7.6      1.634      1.981
REMARK  Name = 
REMARK  6 active torsions:
REMARK  status: ('A' for Active; 'I' for Inactive)
REMARK    1  A    between atoms: C_2  and  C_14
REMARK    2  A    between atoms: N_3  and  C_4
REMARK    3  A    between atoms: C_10  and  C_11
REMARK    4  A    between atoms: C_11  and  O_13
REMARK    5  A    between atoms: C_17  and  S_18
REMARK    6  A    between atoms: S_18  and  C_19
REMARK                            x       y       z     vdW  Elec       q    Type
REMARK                         _______ _______ _______ _____ _____    ______ ____
ROOT
ATOM      1  O   UNL     1       2.962   5.380  17.912  0.00  0.00    +0.000 OA
ATOM      2  C   UNL     1       3.376   6.542  17.806  0.00  0.00    +0.000 C 
ATOM      3  N   UNL     1       4.586   6.916  17.213  0.00  0.00    +0.000 N 
ATOM      4  H   UNL     1       4.914   7.875  17.324  0.00  0.00    +0.000 HD
ENDROOT
BRANCH   3   5
ATOM      5  C   UNL     1       5.500   5.989  16.637  0.00  0.00    +0.000 A 
ATOM      6  C   UNL     1       5.256   5.505  15.340  0.00  0.00    +0.000 A 
ATOM      7  C   UNL     1       6.045   4.512  14.772  0.00  0.00    +0.000 A 
ATOM      8 BR   UNL     1       5.617   3.871  13.045  0.00  0.00    +0.000 Br
ATOM      9  C   UNL     1       7.111   3.985  15.470  0.00  0.00    +0.000 A 
ATOM     10  C   UNL     1       7.415   4.478  16.739  0.00  0.00    +0.000 A 
ATOM     11  C   UNL     1       6.641   5.511  17.321  0.00  0.00    +0.000 A 
BRANCH  11  12
ATOM     12  C   UNL     1       7.019   5.983  18.677  0.00  0.00    +0.000 C 
ATOM     13  O   UNL     1       8.007   6.663  18.895  0.00  0.00    +0.000 OA
BRANCH  12  14
ATOM     14  O   UNL     1       6.194   5.553  19.660  0.00  0.00    +0.000 OA
ATOM     15  H   UNL     1       6.601   5.435  20.541  0.00  0.00    +0.000 HD
ENDBRANCH  12  14
ENDBRANCH  11  12
ENDBRANCH   3   5
BRANCH   2  16
ATOM     16  C   UNL     1       2.513   7.573  18.419  0.00  0.00    +0.000 A 
ATOM     17  C   UNL     1       2.172   8.755  17.763  0.00  0.00    +0.000 A 
ATOM     18  C   UNL     1       1.467   9.746  18.452  0.00  0.00    +0.000 A 
ATOM     19  C   UNL     1       1.076   9.566  19.786  0.00  0.00    +0.000 A 
ATOM     20  C   UNL     1       1.423   8.383  20.443  0.00  0.00    +0.000 A 
ATOM     21  C   UNL     1       2.132   7.394  19.762  0.00  0.00    +0.000 A 
BRANCH  19  22
ATOM     22  S   UNL     1       0.259  10.903  20.628  0.00  0.00    +0.000 S 
BRANCH  22  23
ATOM     23  C   UNL     1      -1.138  11.216  19.541  0.00  0.00    +0.000 C 
ATOM     24  F   UNL     1      -2.184  11.824  20.149  0.00  0.00    +0.000 F 
ATOM     25  F   UNL     1      -0.765  12.007  18.507  0.00  0.00    +0.000 F 
ATOM     26  F   UNL     1      -1.604  10.059  19.011  0.00  0.00    +0.000 F 
ENDBRANCH  22  23
ENDBRANCH  19  22
ENDBRANCH   2  16
TORSDOF 6
ENDMDL
MODEL 8
REMARK VINA RESULT:      -7.5      5.293      7.922
REMARK  Name = 
REMARK  6 active torsions:
REMARK  status: ('A' for Active; 'I' for Inactive)
REMARK    1  A    between atoms: C_2  and  C_14
REMARK    2  A    between atoms: N_3  and  C_4
REMARK    3  A    between atoms: C_10  and  C_11
REMARK    4  A    between atoms: C_11  and  O_13
REMARK    5  A    between atoms: C_17  and  S_18
REMARK    6  A    between atoms: S_18  and  C_19
REMARK                            x       y       z     vdW  Elec       q    Type
REMARK                         _______ _______ _______ _____ _____    ______ ____
ROOT
ATOM      1  O   UNL     1       2.189   9.455  17.425  0.00  0.00    +0.000 OA
ATOM      2  C   UNL     1       1.779   8.721  18.333  0.00  0.00    +0.000 C 
ATOM      3  N   UNL     1       0.675   8.987  19.149  0.00  0.00    +0.000 N 
ATOM      4  H   UNL     1       0.519   8.408  19.972  0.00  0.00    +0.000 HD
ENDROOT
BRANCH   3   5
ATOM      5  C   UNL     1      -0.135  10.152  19.022  0.00  0.00    +0.000 A 
ATOM      6  C   UNL     1      -1.139  10.182  18.039  0.00  0.00    +0.000 A 
ATOM      7  C   UNL     1      -1.881  11.331  17.789  0.00  0.00    +0.000 A 
ATOM      8 BR   UNL     1      -3.174  11.312  16.409  0.00  0.00    +0.000 Br
ATOM      9  C   UNL     1      -1.658  12.478  18.523  0.00  0.00    +0.000 A 
ATOM     10  C   UNL     1      -0.705  12.468  19.542  0.00  0.00    +0.000 A 
ATOM     11  C   UNL     1       0.038  11.298  19.831  0.00  0.00    +0.000 A 
BRANCH  11  12
ATOM     12  C   UNL     1       1.039  11.363  20.926  0.00  0.00    +0.000 C 
ATOM     13  O   UNL     1       1.210  10.460  21.727  0.00  0.00    +0.000 OA
BRANCH  12  14
ATOM     14  O   UNL     1       1.715  12.534  20.985  0.00  0.00    +0.000 OA
ATOM     15  H   UNL     1       1.581  13.067  21.794  0.00  0.00    +0.000 HD
ENDBRANCH  12  14
ENDBRANCH  11  12
ENDBRANCH   3   5
BRANCH   2  16
ATOM     16  C   UNL     1       2.587   7.507  18.570  0.00  0.00    +0.000 A 
ATOM     17  C   UNL     1       3.567   7.070  17.680  0.00  0.00    +0.000 A 
ATOM     18  C   UNL     1       4.196   5.842  17.898  0.00  0.00    +0.000 A 
ATOM     19  C   UNL     1       3.878   5.049  19.009  0.00  0.00    +0.000 A 
ATOM     20  C   UNL     1       2.893   5.486  19.898  0.00  0.00    +0.000 A 
ATOM     21  C   UNL     1       2.258   6.708  19.680  0.00  0.00    +0.000 A 
BRANCH  19  22
ATOM     22  S   UNL     1       4.656   3.458  19.178  0.00  0.00    +0.000 S 
BRANCH  22  23
ATOM     23  C   UNL     1       3.350   2.354  18.625  0.00  0.00    +0.000 C 
ATOM     24  F   UNL     1       2.392   2.124  19.553  0.00  0.00    +0.000 F 
ATOM     25  F   UNL     1       2.731   2.863  17.532  0.00  0.00    +0.000 F 
ATOM     26  F   UNL     1       3.856   1.148  18.271  0.00  0.00    +0.000 F 
ENDBRANCH  22  23
ENDBRANCH  19  22
ENDBRANCH   2  16
TORSDOF 6
ENDMDL
MODEL 9
REMARK VINA RESULT:      -7.4      5.280      7.911
REMARK  Name = 
REMARK  6 active torsions:
REMARK  status: ('A' for Active; 'I' for Inactive)
REMARK    1  A    between atoms: C_2  and  C_14
REMARK    2  A    between atoms: N_3  and  C_4
REMARK    3  A    between atoms: C_10  and  C_11
REMARK    4  A    between atoms: C_11  and  O_13
REMARK    5  A    between atoms: C_17  and  S_18
REMARK    6  A    between atoms: S_18  and  C_19
REMARK                            x       y       z     vdW  Elec       q    Type
REMARK                         _______ _______ _______ _____ _____    ______ ____
ROOT
ATOM      1  O   UNL     1       2.125   9.438  17.356  0.00  0.00    +0.000 OA
ATOM      2  C   UNL     1       1.753   8.745  18.311  0.00  0.00    +0.000 C 
ATOM      3  N   UNL     1       0.685   9.049  19.161  0.00  0.00    +0.000 N 
ATOM      4  H   UNL     1       0.564   8.505  20.015  0.00  0.00    +0.000 HD
ENDROOT
BRANCH   3   5
ATOM      5  C   UNL     1      -0.128  10.209  19.020  0.00  0.00    +0.000 A 
ATOM      6  C   UNL     1      -1.152  10.212  18.058  0.00  0.00    +0.000 A 
ATOM      7  C   UNL     1      -1.900  11.354  17.793  0.00  0.00    +0.000 A 
ATOM      8 BR   UNL     1      -3.222  11.297  16.441  0.00  0.00    +0.000 Br
ATOM      9  C   UNL     1      -1.663  12.520  18.490  0.00  0.00    +0.000 A 
ATOM     10  C   UNL     1      -0.689  12.539  19.488  0.00  0.00    +0.000 A 
ATOM     11  C   UNL     1       0.061  11.377  19.793  0.00  0.00    +0.000 A 
BRANCH  11  12
ATOM     12  C   UNL     1       1.085  11.472  20.865  0.00  0.00    +0.000 C 
ATOM     13  O   UNL     1       1.838  12.423  20.985  0.00  0.00    +0.000 OA
BRANCH  12  14
ATOM     14  O   UNL     1       1.140  10.387  21.672  0.00  0.00    +0.000 OA
ATOM     15  H   UNL     1       2.030  10.020  21.837  0.00  0.00    +0.000 HD
ENDBRANCH  12  14
ENDBRANCH  11  12
ENDBRANCH   3   5
BRANCH   2  16
ATOM     16  C   UNL     1       2.569   7.540  18.565  0.00  0.00    +0.000 A 
ATOM     17  C   UNL     1       3.550   7.095  17.680  0.00  0.00    +0.000 A 
ATOM     18  C   UNL     1       4.188   5.875  17.915  0.00  0.00    +0.000 A 
ATOM     19  C   UNL     1       3.877   5.096  19.038  0.00  0.00    +0.000 A 
ATOM     20  C   UNL     1       2.890   5.540  19.922  0.00  0.00    +0.000 A 
ATOM     21  C   UNL     1       2.246   6.755  19.687  0.00  0.00    +0.000 A 
BRANCH  19  22
ATOM     22  S   UNL     1       4.664   3.513  19.229  0.00  0.00    +0.000 S 
BRANCH  22  23
ATOM     23  C   UNL     1       3.378   2.395  18.659  0.00  0.00    +0.000 C 
ATOM     24  F   UNL     1       2.718   2.828  17.560  0.00  0.00    +0.000 F 
ATOM     25  F   UNL     1       3.903   1.184  18.356  0.00  0.00    +0.000 F 
ATOM     26  F   UNL     1       2.449   2.196  19.627  0.00  0.00    +0.000 F 
ENDBRANCH  22  23
ENDBRANCH  19  22
ENDBRANCH   2  16
TORSDOF 6
ENDMDL
