MODEL 1
REMARK VINA RESULT:      -8.6      0.000      0.000
REMARK  Name = 
REMARK  6 active torsions:
REMARK  status: ('A' for Active; 'I' for Inactive)
REMARK    1  A    between atoms: C_7  and  C_8
REMARK    2  A    between atoms: N_10  and  CA_11
REMARK    3  A    between atoms: CA_11  and  C_12
REMARK    4  A    between atoms: CA_11  and  C_14
REMARK    5  A    between atoms: C_12  and  O_13
REMARK    6  A    between atoms: C_24  and  C_25
REMARK                            x       y       z     vdW  Elec       q    Type
REMARK                         _______ _______ _______ _____ _____    ______ ____
ROOT
ATOM      1  O   UNL     1       4.311   4.228  19.028  0.00  0.00    +0.000 OA
ATOM      2  C   UNL     1       3.722   5.289  19.120  0.00  0.00    +0.000 C 
ATOM      3  N   UNL     1       2.988   5.704  20.210  0.00  0.00    +0.000 N 
ATOM      4  C   UNL     1       2.341   6.903  19.962  0.00  0.00    +0.000 A 
ATOM      5  C   UNL     1       1.526   7.580  20.843  0.00  0.00    +0.000 A 
ATOM      6  C   UNL     1       0.976   8.782  20.402  0.00  0.00    +0.000 A 
ATOM      7  C   UNL     1       1.218   9.272  19.093  0.00  0.00    +0.000 A 
ATOM      8  C   UNL     1       2.025   8.531  18.206  0.00  0.00    +0.000 A 
ATOM      9  C   UNL     1       2.619   7.365  18.671  0.00  0.00    +0.000 A 
ATOM     10  C   UNL     1       3.583   6.399  18.093  0.00  0.00    +0.000 C 
ATOM     11  C   UNL     1       4.283   6.568  16.961  0.00  0.00    +0.000 C 
ATOM     12  H   UNL     1       2.927   5.157  21.055  0.00  0.00    +0.000 HD
ENDROOT
BRANCH  11  13
ATOM     13  C   UNL     1       5.283   5.690  16.458  0.00  0.00    +0.000 A 
ATOM     14  C   UNL     1       6.662   5.784  16.366  0.00  0.00    +0.000 A 
ATOM     15  C   UNL     1       7.148   4.596  15.764  0.00  0.00    +0.000 A 
ATOM     16  C   UNL     1       6.058   3.811  15.480  0.00  0.00    +0.000 A 
ATOM     17  N   UNL     1       4.940   4.486  15.887  0.00  0.00    +0.000 N 
ATOM     18  H   UNL     1       4.003   4.090  15.883  0.00  0.00    +0.000 HD
ENDBRANCH  11  13
BRANCH   7  19
ATOM     19  C   UNL     1       0.648  10.618  18.768  0.00  0.00    +0.000 C 
ATOM     20  O   UNL     1       1.386  11.544  18.433  0.00  0.00    +0.000 OA
ATOM     21  N   UNL     1      -0.713  10.788  18.844  0.00  0.00    +0.000 N 
ATOM     22  H   UNL     1      -1.276  10.115  19.344  0.00  0.00    +0.000 HD
BRANCH  21  23
ATOM     23  CA  UNL     1      -1.381  12.034  18.468  0.00  0.00    +0.000 C 
BRANCH  23  24
ATOM     24  C   UNL     1      -2.883  11.870  18.232  0.00  0.00    +0.000 A 
ATOM     25  C   UNL     1      -3.743  12.206  19.303  0.00  0.00    +0.000 A 
ATOM     26  C   UNL     1      -5.124  12.007  19.224  0.00  0.00    +0.000 A 
ATOM     27  C   UNL     1      -5.686  11.474  18.071  0.00  0.00    +0.000 A 
ATOM     28  C   UNL     1      -4.865  11.146  16.996  0.00  0.00    +0.000 A 
ATOM     29  C   UNL     1      -3.477  11.332  17.074  0.00  0.00    +0.000 A 
ATOM     30 CL   UNL     1      -2.573  10.843  15.682  0.00  0.00    +0.000 Cl
ENDBRANCH  23  24
BRANCH  23  31
ATOM     31  C   UNL     1      -1.128  13.179  19.483  0.00  0.00    +0.000 C 
BRANCH  31  32
ATOM     32  O   UNL     1      -0.815  14.436  18.883  0.00  0.00    +0.000 OA
ATOM     33  H   UNL     1       0.158  14.500  18.782  0.00  0.00    +0.000 HD
ENDBRANCH  31  32
ENDBRANCH  23  31
ENDBRANCH  21  23
ENDBRANCH   7  19
TORSDOF 6
ENDMDL
MODEL 2
REMARK VINA RESULT:      -7.8      1.977      2.420
REMARK  Name = 
REMARK  6 active torsions:
REMARK  status: ('A' for Active; 'I' for Inactive)
REMARK    1  A    between atoms: C_7  and  C_8
REMARK    2  A    between atoms: N_10  and  CA_11
REMARK    3  A    between atoms: CA_11  and  C_12
REMARK    4  A    between atoms: CA_11  and  C_14
REMARK    5  A    between atoms: C_12  and  O_13
REMARK    6  A    between atoms: C_24  and  C_25
REMARK                            x       y       z     vdW  Elec       q    Type
REMARK                         _______ _______ _______ _____ _____    ______ ____
ROOT
ATOM      1  O   UNL     1       4.223   4.207  19.050  0.00  0.00    +0.000 OA
ATOM      2  C   UNL     1       3.636   5.260  19.215  0.00  0.00    +0.000 C 
ATOM      3  N   UNL     1       2.874   5.586  20.316  0.00  0.00    +0.000 N 
ATOM      4  C   UNL     1       2.238   6.805  20.153  0.00  0.00    +0.000 A 
ATOM      5  C   UNL     1       1.402   7.410  21.065  0.00  0.00    +0.000 A 
ATOM      6  C   UNL     1       0.869   8.648  20.713  0.00  0.00    +0.000 A 
ATOM      7  C   UNL     1       1.149   9.246  19.458  0.00  0.00    +0.000 A 
ATOM      8  C   UNL     1       1.977   8.578  18.533  0.00  0.00    +0.000 A 
ATOM      9  C   UNL     1       2.554   7.374  18.914  0.00  0.00    +0.000 A 
ATOM     10  C   UNL     1       3.530   6.454  18.283  0.00  0.00    +0.000 C 
ATOM     11  C   UNL     1       4.262   6.714  17.189  0.00  0.00    +0.000 C 
ATOM     12  H   UNL     1       2.787   4.969  21.109  0.00  0.00    +0.000 HD
ENDROOT
BRANCH  11  13
ATOM     13  C   UNL     1       5.272   5.875  16.640  0.00  0.00    +0.000 A 
ATOM     14  C   UNL     1       5.368   5.166  15.455  0.00  0.00    +0.000 A 
ATOM     15  C   UNL     1       6.616   4.492  15.441  0.00  0.00    +0.000 A 
ATOM     16  C   UNL     1       7.246   4.784  16.626  0.00  0.00    +0.000 A 
ATOM     17  N   UNL     1       6.422   5.604  17.346  0.00  0.00    +0.000 N 
ATOM     18  H   UNL     1       6.685   6.050  18.222  0.00  0.00    +0.000 HD
ENDBRANCH  11  13
BRANCH   7  19
ATOM     19  C   UNL     1       0.594  10.619  19.233  0.00  0.00    +0.000 C 
ATOM     20  O   UNL     1       1.037  11.332  18.333  0.00  0.00    +0.000 OA
ATOM     21  N   UNL     1      -0.424  11.053  20.046  0.00  0.00    +0.000 N 
ATOM     22  H   UNL     1      -0.612  10.575  20.916  0.00  0.00    +0.000 HD
BRANCH  21  23
ATOM     23  CA  UNL     1      -1.096  12.340  19.862  0.00  0.00    +0.000 C 
BRANCH  23  24
ATOM     24  C   UNL     1      -2.397  12.465  20.655  0.00  0.00    +0.000 A 
ATOM     25  C   UNL     1      -3.580  12.699  19.917  0.00  0.00    +0.000 A 
ATOM     26  C   UNL     1      -4.806  12.921  20.550  0.00  0.00    +0.000 A 
ATOM     27  C   UNL     1      -4.888  12.905  21.936  0.00  0.00    +0.000 A 
ATOM     28  C   UNL     1      -3.741  12.663  22.688  0.00  0.00    +0.000 A 
ATOM     29  C   UNL     1      -2.506  12.453  22.059  0.00  0.00    +0.000 A 
ATOM     30 CL   UNL     1      -1.157  12.206  23.114  0.00  0.00    +0.000 Cl
ENDBRANCH  23  24
BRANCH  23  31
ATOM     31  C   UNL     1      -0.171  13.547  20.169  0.00  0.00    +0.000 C 
BRANCH  31  32
ATOM     32  O   UNL     1       0.327  14.215  19.010  0.00  0.00    +0.000 OA
ATOM     33  H   UNL     1       1.257  14.476  19.176  0.00  0.00    +0.000 HD
ENDBRANCH  31  32
ENDBRANCH  23  31
ENDBRANCH  21  23
ENDBRANCH   7  19
TORSDOF 6
ENDMDL
MODEL 3
REMARK VINA RESULT:      -7.8      4.102      5.409
REMARK  Name = 
REMARK  6 active torsions:
REMARK  status: ('A' for Active; 'I' for Inactive)
REMARK    1  A    between atoms: C_7  and  C_8
REMARK    2  A    between atoms: N_10  and  CA_11
REMARK    3  A    between atoms: CA_11  and  C_12
REMARK    4  A    between atoms: CA_11  and  C_14
REMARK    5  A    between atoms: C_12  and  O_13
REMARK    6  A    between atoms: C_24  and  C_25
REMARK                            x       y       z     vdW  Elec       q    Type
REMARK                         _______ _______ _______ _____ _____    ______ ____
ROOT
ATOM      1  O   UNL     1       3.200   5.919  17.735  0.00  0.00    +0.000 OA
ATOM      2  C   UNL     1       2.596   6.753  18.384  0.00  0.00    +0.000 C 
ATOM      3  N   UNL     1       2.309   8.035  17.968  0.00  0.00    +0.000 N 
ATOM      4  C   UNL     1       1.717   8.777  18.976  0.00  0.00    +0.000 A 
ATOM      5  C   UNL     1       1.316  10.092  18.883  0.00  0.00    +0.000 A 
ATOM      6  C   UNL     1       0.728  10.656  20.013  0.00  0.00    +0.000 A 
ATOM      7  C   UNL     1       0.579   9.921  21.217  0.00  0.00    +0.000 A 
ATOM      8  C   UNL     1       1.039   8.590  21.287  0.00  0.00    +0.000 A 
ATOM      9  C   UNL     1       1.568   8.014  20.140  0.00  0.00    +0.000 A 
ATOM     10  C   UNL     1       2.046   6.654  19.796  0.00  0.00    +0.000 C 
ATOM     11  C   UNL     1       1.883   5.552  20.542  0.00  0.00    +0.000 C 
ATOM     12  H   UNL     1       2.548   8.365  17.046  0.00  0.00    +0.000 HD
ENDROOT
BRANCH  11  13
ATOM     13  C   UNL     1       2.251   4.228  20.170  0.00  0.00    +0.000 A 
ATOM     14  C   UNL     1       1.515   3.089  19.888  0.00  0.00    +0.000 A 
ATOM     15  C   UNL     1       2.421   2.042  19.577  0.00  0.00    +0.000 A 
ATOM     16  C   UNL     1       3.689   2.555  19.698  0.00  0.00    +0.000 A 
ATOM     17  N   UNL     1       3.575   3.867  20.070  0.00  0.00    +0.000 N 
ATOM     18  H   UNL     1       4.359   4.511  20.135  0.00  0.00    +0.000 HD
ENDBRANCH  11  13
BRANCH   7  19
ATOM     19  C   UNL     1      -0.150  10.605  22.332  0.00  0.00    +0.000 C 
ATOM     20  O   UNL     1      -0.100  10.159  23.478  0.00  0.00    +0.000 OA
ATOM     21  N   UNL     1      -0.864  11.743  22.044  0.00  0.00    +0.000 N 
ATOM     22  H   UNL     1      -1.098  11.961  21.087  0.00  0.00    +0.000 HD
BRANCH  21  23
ATOM     23  CA  UNL     1      -1.542  12.537  23.069  0.00  0.00    +0.000 C 
BRANCH  23  24
ATOM     24  C   UNL     1      -1.012  13.967  23.180  0.00  0.00    +0.000 A 
ATOM     25  C   UNL     1      -0.004  14.352  22.267  0.00  0.00    +0.000 A 
ATOM     26  C   UNL     1       0.613  15.604  22.342  0.00  0.00    +0.000 A 
ATOM     27  C   UNL     1       0.234  16.509  23.324  0.00  0.00    +0.000 A 
ATOM     28  C   UNL     1      -0.766  16.162  24.229  0.00  0.00    +0.000 A 
ATOM     29  C   UNL     1      -1.379  14.903  24.166  0.00  0.00    +0.000 A 
ATOM     30 CL   UNL     1      -2.576  14.588  25.377  0.00  0.00    +0.000 Cl
ENDBRANCH  23  24
BRANCH  23  31
ATOM     31  C   UNL     1      -3.083  12.557  22.888  0.00  0.00    +0.000 C 
BRANCH  31  32
ATOM     32  O   UNL     1      -3.805  11.899  23.929  0.00  0.00    +0.000 OA
ATOM     33  H   UNL     1      -3.476  10.978  24.002  0.00  0.00    +0.000 HD
ENDBRANCH  31  32
ENDBRANCH  23  31
ENDBRANCH  21  23
ENDBRANCH   7  19
TORSDOF 6
ENDMDL
MODEL 4
REMARK VINA RESULT:      -7.7      2.760      2.988
REMARK  Name = 
REMARK  6 active torsions:
REMARK  status: ('A' for Active; 'I' for Inactive)
REMARK    1  A    between atoms: C_7  and  C_8
REMARK    2  A    between atoms: N_10  and  CA_11
REMARK    3  A    between atoms: CA_11  and  C_12
REMARK    4  A    between atoms: CA_11  and  C_14
REMARK    5  A    between atoms: C_12  and  O_13
REMARK    6  A    between atoms: C_24  and  C_25
REMARK                            x       y       z     vdW  Elec       q    Type
REMARK                         _______ _______ _______ _____ _____    ______ ____
ROOT
ATOM      1  O   UNL     1       4.094   4.053  18.688  0.00  0.00    +0.000 OA
ATOM      2  C   UNL     1       3.563   5.116  18.949  0.00  0.00    +0.000 C 
ATOM      3  N   UNL     1       2.803   5.377  20.068  0.00  0.00    +0.000 N 
ATOM      4  C   UNL     1       2.239   6.641  20.018  0.00  0.00    +0.000 A 
ATOM      5  C   UNL     1       1.422   7.201  20.975  0.00  0.00    +0.000 A 
ATOM      6  C   UNL     1       0.965   8.496  20.740  0.00  0.00    +0.000 A 
ATOM      7  C   UNL     1       1.299   9.196  19.552  0.00  0.00    +0.000 A 
ATOM      8  C   UNL     1       2.104   8.574  18.576  0.00  0.00    +0.000 A 
ATOM      9  C   UNL     1       2.606   7.308  18.843  0.00  0.00    +0.000 A 
ATOM     10  C   UNL     1       3.540   6.399  18.137  0.00  0.00    +0.000 C 
ATOM     11  C   UNL     1       4.303   6.722  17.082  0.00  0.00    +0.000 C 
ATOM     12  H   UNL     1       2.668   4.692  20.796  0.00  0.00    +0.000 HD
ENDROOT
BRANCH  11  13
ATOM     13  C   UNL     1       5.274   5.884  16.465  0.00  0.00    +0.000 A 
ATOM     14  C   UNL     1       5.359   5.303  15.211  0.00  0.00    +0.000 A 
ATOM     15  C   UNL     1       6.562   4.555  15.149  0.00  0.00    +0.000 A 
ATOM     16  C   UNL     1       7.176   4.674  16.371  0.00  0.00    +0.000 A 
ATOM     17  N   UNL     1       6.384   5.463  17.161  0.00  0.00    +0.000 N 
ATOM     18  H   UNL     1       6.650   5.792  18.085  0.00  0.00    +0.000 HD
ENDBRANCH  11  13
BRANCH   7  19
ATOM     19  C   UNL     1       0.825  10.613  19.456  0.00  0.00    +0.000 C 
ATOM     20  O   UNL     1       0.687  11.153  18.358  0.00  0.00    +0.000 OA
ATOM     21  N   UNL     1       0.539  11.287  20.619  0.00  0.00    +0.000 N 
ATOM     22  H   UNL     1       0.878  10.933  21.501  0.00  0.00    +0.000 HD
BRANCH  21  23
ATOM     23  CA  UNL     1      -0.009  12.643  20.638  0.00  0.00    +0.000 C 
BRANCH  23  24
ATOM     24  C   UNL     1      -1.156  12.820  21.633  0.00  0.00    +0.000 A 
ATOM     25  C   UNL     1      -1.385  11.765  22.546  0.00  0.00    +0.000 A 
ATOM     26  C   UNL     1      -2.463  11.786  23.435  0.00  0.00    +0.000 A 
ATOM     27  C   UNL     1      -3.338  12.864  23.443  0.00  0.00    +0.000 A 
ATOM     28  C   UNL     1      -3.130  13.924  22.564  0.00  0.00    +0.000 A 
ATOM     29  C   UNL     1      -2.057  13.903  21.662  0.00  0.00    +0.000 A 
ATOM     30 CL   UNL     1      -1.940  15.264  20.599  0.00  0.00    +0.000 Cl
ENDBRANCH  23  24
BRANCH  23  31
ATOM     31  C   UNL     1       1.076  13.724  20.884  0.00  0.00    +0.000 C 
BRANCH  31  32
ATOM     32  O   UNL     1       2.324  13.208  21.348  0.00  0.00    +0.000 OA
ATOM     33  H   UNL     1       2.663  13.800  22.052  0.00  0.00    +0.000 HD
ENDBRANCH  31  32
ENDBRANCH  23  31
ENDBRANCH  21  23
ENDBRANCH   7  19
TORSDOF 6
ENDMDL
MODEL 5
REMARK VINA RESULT:      -7.7      2.553      4.051
REMARK  Name = 
REMARK  6 active torsions:
REMARK  status: ('A' for Active; 'I' for Inactive)
REMARK    1  A    between atoms: C_7  and  C_8
REMARK    2  A    between atoms: N_10  and  CA_11
REMARK    3  A    between atoms: CA_11  and  C_12
REMARK    4  A    between atoms: CA_11  and  C_14
REMARK    5  A    between atoms: C_12  and  O_13
REMARK    6  A    between atoms: C_24  and  C_25
REMARK                            x       y       z     vdW  Elec       q    Type
REMARK                         _______ _______ _______ _____ _____    ______ ____
ROOT
ATOM      1  O   UNL     1       4.092   3.691  18.028  0.00  0.00    +0.000 OA
ATOM      2  C   UNL     1       3.586   4.678  18.527  0.00  0.00    +0.000 C 
ATOM      3  N   UNL     1       2.811   4.689  19.667  0.00  0.00    +0.000 N 
ATOM      4  C   UNL     1       2.284   5.946  19.913  0.00  0.00    +0.000 A 
ATOM      5  C   UNL     1       1.465   6.288  20.966  0.00  0.00    +0.000 A 
ATOM      6  C   UNL     1       1.048   7.615  21.040  0.00  0.00    +0.000 A 
ATOM      7  C   UNL     1       1.424   8.566  20.058  0.00  0.00    +0.000 A 
ATOM      8  C   UNL     1       2.230   8.170  18.971  0.00  0.00    +0.000 A 
ATOM      9  C   UNL     1       2.692   6.861  18.936  0.00  0.00    +0.000 A 
ATOM     10  C   UNL     1       3.614   6.118  18.044  0.00  0.00    +0.000 C 
ATOM     11  C   UNL     1       4.406   6.658  17.106  0.00  0.00    +0.000 C 
ATOM     12  H   UNL     1       2.644   3.856  20.209  0.00  0.00    +0.000 HD
ENDROOT
BRANCH  11  13
ATOM     13  C   UNL     1       5.365   5.960  16.319  0.00  0.00    +0.000 A 
ATOM     14  C   UNL     1       5.401   5.589  14.985  0.00  0.00    +0.000 A 
ATOM     15  C   UNL     1       6.617   4.900  14.749  0.00  0.00    +0.000 A 
ATOM     16  C   UNL     1       7.289   4.844  15.946  0.00  0.00    +0.000 A 
ATOM     17  N   UNL     1       6.519   5.471  16.887  0.00  0.00    +0.000 N 
ATOM     18  H   UNL     1       6.823   5.658  17.839  0.00  0.00    +0.000 HD
ENDBRANCH  11  13
BRANCH   7  19
ATOM     19  C   UNL     1       0.991   9.980  20.296  0.00  0.00    +0.000 C 
ATOM     20  O   UNL     1       1.068  10.476  21.421  0.00  0.00    +0.000 OA
ATOM     21  N   UNL     1       0.520  10.708  19.231  0.00  0.00    +0.000 N 
ATOM     22  H   UNL     1       0.235  10.235  18.386  0.00  0.00    +0.000 HD
BRANCH  21  23
ATOM     23  CA  UNL     1       0.150  12.120  19.333  0.00  0.00    +0.000 C 
BRANCH  23  24
ATOM     24  C   UNL     1       1.353  13.064  19.320  0.00  0.00    +0.000 A 
ATOM     25  C   UNL     1       2.217  12.991  18.204  0.00  0.00    +0.000 A 
ATOM     26  C   UNL     1       3.392  13.743  18.136  0.00  0.00    +0.000 A 
ATOM     27  C   UNL     1       3.734  14.597  19.177  0.00  0.00    +0.000 A 
ATOM     28  C   UNL     1       2.894  14.700  20.283  0.00  0.00    +0.000 A 
ATOM     29  C   UNL     1       1.720  13.938  20.362  0.00  0.00    +0.000 A 
ATOM     30 CL   UNL     1       0.793  14.132  21.810  0.00  0.00    +0.000 Cl
ENDBRANCH  23  24
BRANCH  23  31
ATOM     31  C   UNL     1      -0.872  12.551  18.250  0.00  0.00    +0.000 C 
BRANCH  31  32
ATOM     32  O   UNL     1      -1.334  11.484  17.420  0.00  0.00    +0.000 OA
ATOM     33  H   UNL     1      -0.833  10.673  17.649  0.00  0.00    +0.000 HD
ENDBRANCH  31  32
ENDBRANCH  23  31
ENDBRANCH  21  23
ENDBRANCH   7  19
TORSDOF 6
ENDMDL
MODEL 6
REMARK VINA RESULT:      -7.7      2.988      3.630
REMARK  Name = 
REMARK  6 active torsions:
REMARK  status: ('A' for Active; 'I' for Inactive)
REMARK    1  A    between atoms: C_7  and  C_8
REMARK    2  A    between atoms: N_10  and  CA_11
REMARK    3  A    between atoms: CA_11  and  C_12
REMARK    4  A    between atoms: CA_11  and  C_14
REMARK    5  A    between atoms: C_12  and  O_13
REMARK    6  A    between atoms: C_24  and  C_25
REMARK                            x       y       z     vdW  Elec       q    Type
REMARK                         _______ _______ _______ _____ _____    ______ ____
ROOT
ATOM      1  O   UNL     1       4.110   4.306  18.995  0.00  0.00    +0.000 OA
ATOM      2  C   UNL     1       3.574   5.395  19.078  0.00  0.00    +0.000 C 
ATOM      3  N   UNL     1       2.823   5.837  20.145  0.00  0.00    +0.000 N 
ATOM      4  C   UNL     1       2.248   7.070  19.888  0.00  0.00    +0.000 A 
ATOM      5  C   UNL     1       1.436   7.779  20.747  0.00  0.00    +0.000 A 
ATOM      6  C   UNL     1       0.966   9.012  20.301  0.00  0.00    +0.000 A 
ATOM      7  C   UNL     1       1.281   9.502  19.008  0.00  0.00    +0.000 A 
ATOM      8  C   UNL     1       2.081   8.730  18.142  0.00  0.00    +0.000 A 
ATOM      9  C   UNL     1       2.597   7.531  18.614  0.00  0.00    +0.000 A 
ATOM     10  C   UNL     1       3.531   6.522  18.060  0.00  0.00    +0.000 C 
ATOM     11  C   UNL     1       4.280   6.666  16.957  0.00  0.00    +0.000 C 
ATOM     12  H   UNL     1       2.701   5.284  20.980  0.00  0.00    +0.000 HD
ENDROOT
BRANCH  11  13
ATOM     13  C   UNL     1       5.253   5.742  16.480  0.00  0.00    +0.000 A 
ATOM     14  C   UNL     1       5.302   4.914  15.371  0.00  0.00    +0.000 A 
ATOM     15  C   UNL     1       6.527   4.200  15.405  0.00  0.00    +0.000 A 
ATOM     16  C   UNL     1       7.189   4.588  16.544  0.00  0.00    +0.000 A 
ATOM     17  N   UNL     1       6.406   5.504  17.191  0.00  0.00    +0.000 N 
ATOM     18  H   UNL     1       6.701   6.026  18.012  0.00  0.00    +0.000 HD
ENDBRANCH  11  13
BRANCH   7  19
ATOM     19  C   UNL     1       0.794  10.880  18.679  0.00  0.00    +0.000 C 
ATOM     20  O   UNL     1      -0.386  11.073  18.388  0.00  0.00    +0.000 OA
ATOM     21  N   UNL     1       1.693  11.918  18.722  0.00  0.00    +0.000 N 
ATOM     22  H   UNL     1       2.684  11.725  18.720  0.00  0.00    +0.000 HD
BRANCH  21  23
ATOM     23  CA  UNL     1       1.309  13.312  18.502  0.00  0.00    +0.000 C 
BRANCH  23  24
ATOM     24  C   UNL     1       0.738  13.989  19.748  0.00  0.00    +0.000 A 
ATOM     25  C   UNL     1      -0.590  14.468  19.668  0.00  0.00    +0.000 A 
ATOM     26  C   UNL     1      -1.176  15.182  20.717  0.00  0.00    +0.000 A 
ATOM     27  C   UNL     1      -0.455  15.430  21.878  0.00  0.00    +0.000 A 
ATOM     28  C   UNL     1       0.850  14.958  21.990  0.00  0.00    +0.000 A 
ATOM     29  C   UNL     1       1.446  14.252  20.936  0.00  0.00    +0.000 A 
ATOM     30 CL   UNL     1       3.086  13.761  21.192  0.00  0.00    +0.000 Cl
ENDBRANCH  23  24
BRANCH  23  31
ATOM     31  C   UNL     1       2.465  14.167  17.919  0.00  0.00    +0.000 C 
BRANCH  31  32
ATOM     32  O   UNL     1       3.729  13.504  17.893  0.00  0.00    +0.000 OA
ATOM     33  H   UNL     1       3.981  13.351  16.957  0.00  0.00    +0.000 HD
ENDBRANCH  31  32
ENDBRANCH  23  31
ENDBRANCH  21  23
ENDBRANCH   7  19
TORSDOF 6
ENDMDL
MODEL 7
REMARK VINA RESULT:      -7.7      1.279      1.597
REMARK  Name = 
REMARK  6 active torsions:
REMARK  status: ('A' for Active; 'I' for Inactive)
REMARK    1  A    between atoms: C_7  and  C_8
REMARK    2  A    between atoms: N_10  and  CA_11
REMARK    3  A    between atoms: CA_11  and  C_12
REMARK    4  A    between atoms: CA_11  and  C_14
REMARK    5  A    between atoms: C_12  and  O_13
REMARK    6  A    between atoms: C_24  and  C_25
REMARK                            x       y       z     vdW  Elec       q    Type
REMARK                         _______ _______ _______ _____ _____    ______ ____
ROOT
ATOM      1  O   UNL     1       3.734   4.892  19.512  0.00  0.00    +0.000 OA
ATOM      2  C   UNL     1       3.106   5.927  19.623  0.00  0.00    +0.000 C 
ATOM      3  N   UNL     1       2.332   6.280  20.708  0.00  0.00    +0.000 N 
ATOM      4  C   UNL     1       1.648   7.463  20.483  0.00  0.00    +0.000 A 
ATOM      5  C   UNL     1       0.788   8.080  21.365  0.00  0.00    +0.000 A 
ATOM      6  C   UNL     1       0.207   9.276  20.950  0.00  0.00    +0.000 A 
ATOM      7  C   UNL     1       0.462   9.819  19.665  0.00  0.00    +0.000 A 
ATOM      8  C   UNL     1       1.316   9.137  18.774  0.00  0.00    +0.000 A 
ATOM      9  C   UNL     1       1.940   7.978  19.215  0.00  0.00    +0.000 A 
ATOM     10  C   UNL     1       2.953   7.067  18.631  0.00  0.00    +0.000 C 
ATOM     11  C   UNL     1       3.673   7.298  17.524  0.00  0.00    +0.000 C 
ATOM     12  H   UNL     1       2.269   5.701  21.531  0.00  0.00    +0.000 HD
ENDROOT
BRANCH  11  13
ATOM     13  C   UNL     1       4.716   6.473  17.017  0.00  0.00    +0.000 A 
ATOM     14  C   UNL     1       6.072   6.678  16.826  0.00  0.00    +0.000 A 
ATOM     15  C   UNL     1       6.627   5.494  16.277  0.00  0.00    +0.000 A 
ATOM     16  C   UNL     1       5.597   4.599  16.123  0.00  0.00    +0.000 A 
ATOM     17  N   UNL     1       4.449   5.205  16.556  0.00  0.00    +0.000 N 
ATOM     18  H   UNL     1       3.553   4.731  16.643  0.00  0.00    +0.000 HD
ENDBRANCH  11  13
BRANCH   7  19
ATOM     19  C   UNL     1      -0.147  11.155  19.371  0.00  0.00    +0.000 C 
ATOM     20  O   UNL     1       0.440  11.965  18.653  0.00  0.00    +0.000 OA
ATOM     21  N   UNL     1      -1.376  11.446  19.911  0.00  0.00    +0.000 N 
ATOM     22  H   UNL     1      -1.732  10.894  20.677  0.00  0.00    +0.000 HD
BRANCH  21  23
ATOM     23  CA  UNL     1      -2.099  12.685  19.621  0.00  0.00    +0.000 C 
BRANCH  23  24
ATOM     24  C   UNL     1      -3.584  12.618  19.977  0.00  0.00    +0.000 A 
ATOM     25  C   UNL     1      -3.947  12.982  21.294  0.00  0.00    +0.000 A 
ATOM     26  C   UNL     1      -5.264  12.869  21.750  0.00  0.00    +0.000 A 
ATOM     27  C   UNL     1      -6.256  12.398  20.901  0.00  0.00    +0.000 A 
ATOM     28  C   UNL     1      -5.931  12.045  19.594  0.00  0.00    +0.000 A 
ATOM     29  C   UNL     1      -4.609  12.145  19.135  0.00  0.00    +0.000 A 
ATOM     30 CL   UNL     1      -4.338  11.634  17.504  0.00  0.00    +0.000 Cl
ENDBRANCH  23  24
BRANCH  23  31
ATOM     31  C   UNL     1      -1.451  13.926  20.287  0.00  0.00    +0.000 C 
BRANCH  31  32
ATOM     32  O   UNL     1      -0.814  14.818  19.372  0.00  0.00    +0.000 OA
ATOM     33  H   UNL     1      -1.263  15.689  19.423  0.00  0.00    +0.000 HD
ENDBRANCH  31  32
ENDBRANCH  23  31
ENDBRANCH  21  23
ENDBRANCH   7  19
TORSDOF 6
ENDMDL
MODEL 8
REMARK VINA RESULT:      -7.7      3.460      9.574
REMARK  Name = 
REMARK  6 active torsions:
REMARK  status: ('A' for Active; 'I' for Inactive)
REMARK    1  A    between atoms: C_7  and  C_8
REMARK    2  A    between atoms: N_10  and  CA_11
REMARK    3  A    between atoms: CA_11  and  C_12
REMARK    4  A    between atoms: CA_11  and  C_14
REMARK    5  A    between atoms: C_12  and  O_13
REMARK    6  A    between atoms: C_24  and  C_25
REMARK                            x       y       z     vdW  Elec       q    Type
REMARK                         _______ _______ _______ _____ _____    ______ ____
ROOT
ATOM      1  O   UNL     1      -1.147  13.685  19.527  0.00  0.00    +0.000 OA
ATOM      2  C   UNL     1      -0.508  12.650  19.544  0.00  0.00    +0.000 C 
ATOM      3  N   UNL     1       0.325  12.208  18.538  0.00  0.00    +0.000 N 
ATOM      4  C   UNL     1       0.814  10.940  18.802  0.00  0.00    +0.000 A 
ATOM      5  C   UNL     1       1.663  10.216  17.994  0.00  0.00    +0.000 A 
ATOM      6  C   UNL     1       2.049   8.957  18.447  0.00  0.00    +0.000 A 
ATOM      7  C   UNL     1       1.563   8.428  19.670  0.00  0.00    +0.000 A 
ATOM      8  C   UNL     1       0.663   9.181  20.451  0.00  0.00    +0.000 A 
ATOM      9  C   UNL     1       0.330  10.460  20.024  0.00  0.00    +0.000 A 
ATOM     10  C   UNL     1      -0.475  11.562  20.603  0.00  0.00    +0.000 C 
ATOM     11  C   UNL     1      -0.942  11.619  21.858  0.00  0.00    +0.000 C 
ATOM     12  H   UNL     1       0.503  12.756  17.711  0.00  0.00    +0.000 HD
ENDROOT
BRANCH  11  13
ATOM     13  C   UNL     1      -1.627  12.719  22.447  0.00  0.00    +0.000 A 
ATOM     14  C   UNL     1      -1.259  13.663  23.390  0.00  0.00    +0.000 A 
ATOM     15  C   UNL     1      -2.362  14.530  23.603  0.00  0.00    +0.000 A 
ATOM     16  C   UNL     1      -3.386  14.086  22.803  0.00  0.00    +0.000 A 
ATOM     17  N   UNL     1      -2.938  12.986  22.124  0.00  0.00    +0.000 N 
ATOM     18  H   UNL     1      -3.463  12.517  21.391  0.00  0.00    +0.000 HD
ENDBRANCH  11  13
BRANCH   7  19
ATOM     19  C   UNL     1       2.122   7.105  20.095  0.00  0.00    +0.000 C 
ATOM     20  O   UNL     1       1.555   6.435  20.958  0.00  0.00    +0.000 OA
ATOM     21  N   UNL     1       3.272   6.657  19.492  0.00  0.00    +0.000 N 
ATOM     22  H   UNL     1       3.853   7.302  18.977  0.00  0.00    +0.000 HD
BRANCH  21  23
ATOM     23  CA  UNL     1       3.857   5.345  19.769  0.00  0.00    +0.000 C 
BRANCH  23  24
ATOM     24  C   UNL     1       2.985   4.180  19.298  0.00  0.00    +0.000 A 
ATOM     25  C   UNL     1       2.732   4.086  17.910  0.00  0.00    +0.000 A 
ATOM     26  C   UNL     1       1.874   3.115  17.386  0.00  0.00    +0.000 A 
ATOM     27  C   UNL     1       1.253   2.205  18.232  0.00  0.00    +0.000 A 
ATOM     28  C   UNL     1       1.495   2.265  19.601  0.00  0.00    +0.000 A 
ATOM     29  C   UNL     1       2.345   3.245  20.134  0.00  0.00    +0.000 A 
ATOM     30 CL   UNL     1       2.523   3.232  21.856  0.00  0.00    +0.000 Cl
ENDBRANCH  23  24
BRANCH  23  31
ATOM     31  C   UNL     1       5.291   5.196  19.198  0.00  0.00    +0.000 C 
BRANCH  31  32
ATOM     32  O   UNL     1       5.835   3.881  19.312  0.00  0.00    +0.000 OA
ATOM     33  H   UNL     1       5.099   3.252  19.468  0.00  0.00    +0.000 HD
ENDBRANCH  31  32
ENDBRANCH  23  31
ENDBRANCH  21  23
ENDBRANCH   7  19
TORSDOF 6
ENDMDL
MODEL 9
REMARK VINA RESULT:      -7.6      2.895      3.222
REMARK  Name = 
REMARK  6 active torsions:
REMARK  status: ('A' for Active; 'I' for Inactive)
REMARK    1  A    between atoms: C_7  and  C_8
REMARK    2  A    between atoms: N_10  and  CA_11
REMARK    3  A    between atoms: CA_11  and  C_12
REMARK    4  A    between atoms: CA_11  and  C_14
REMARK    5  A    between atoms: C_12  and  O_13
REMARK    6  A    between atoms: C_24  and  C_25
REMARK                            x       y       z     vdW  Elec       q    Type
REMARK                         _______ _______ _______ _____ _____    ______ ____
ROOT
ATOM      1  O   UNL     1       4.188   4.284  18.977  0.00  0.00    +0.000 OA
ATOM      2  C   UNL     1       3.639   5.366  19.067  0.00  0.00    +0.000 C 
ATOM      3  N   UNL     1       2.898   5.800  20.145  0.00  0.00    +0.000 N 
ATOM      4  C   UNL     1       2.304   7.026  19.895  0.00  0.00    +0.000 A 
ATOM      5  C   UNL     1       1.497   7.726  20.765  0.00  0.00    +0.000 A 
ATOM      6  C   UNL     1       1.004   8.952  20.324  0.00  0.00    +0.000 A 
ATOM      7  C   UNL     1       1.294   9.445  19.026  0.00  0.00    +0.000 A 
ATOM      8  C   UNL     1       2.091   8.681  18.149  0.00  0.00    +0.000 A 
ATOM      9  C   UNL     1       2.628   7.489  18.615  0.00  0.00    +0.000 A 
ATOM     10  C   UNL     1       3.567   6.491  18.049  0.00  0.00    +0.000 C 
ATOM     11  C   UNL     1       4.298   6.643  16.934  0.00  0.00    +0.000 C 
ATOM     12  H   UNL     1       2.796   5.247  20.982  0.00  0.00    +0.000 HD
ENDROOT
BRANCH  11  13
ATOM     13  C   UNL     1       5.274   5.730  16.444  0.00  0.00    +0.000 A 
ATOM     14  C   UNL     1       5.307   4.885  15.348  0.00  0.00    +0.000 A 
ATOM     15  C   UNL     1       6.547   4.196  15.357  0.00  0.00    +0.000 A 
ATOM     16  C   UNL     1       7.235   4.616  16.469  0.00  0.00    +0.000 A 
ATOM     17  N   UNL     1       6.452   5.528  17.124  0.00  0.00    +0.000 N 
ATOM     18  H   UNL     1       6.760   6.070  17.927  0.00  0.00    +0.000 HD
ENDBRANCH  11  13
BRANCH   7  19
ATOM     19  C   UNL     1       0.785  10.816  18.703  0.00  0.00    +0.000 C 
ATOM     20  O   UNL     1      -0.341  10.969  18.229  0.00  0.00    +0.000 OA
ATOM     21  N   UNL     1       1.600  11.892  18.957  0.00  0.00    +0.000 N 
ATOM     22  H   UNL     1       2.587  11.749  19.110  0.00  0.00    +0.000 HD
BRANCH  21  23
ATOM     23  CA  UNL     1       1.173  13.277  18.759  0.00  0.00    +0.000 C 
BRANCH  23  24
ATOM     24  C   UNL     1       0.388  13.846  19.941  0.00  0.00    +0.000 A 
ATOM     25  C   UNL     1       0.374  13.083  21.131  0.00  0.00    +0.000 A 
ATOM     26  C   UNL     1      -0.387  13.466  22.238  0.00  0.00    +0.000 A 
ATOM     27  C   UNL     1      -1.148  14.627  22.192  0.00  0.00    +0.000 A 
ATOM     28  C   UNL     1      -1.142  15.406  21.038  0.00  0.00    +0.000 A 
ATOM     29  C   UNL     1      -0.391  15.019  19.920  0.00  0.00    +0.000 A 
ATOM     30 CL   UNL     1      -0.508  16.057  18.539  0.00  0.00    +0.000 Cl
ENDBRANCH  23  24
BRANCH  23  31
ATOM     31  C   UNL     1       2.351  14.221  18.403  0.00  0.00    +0.000 C 
BRANCH  31  32
ATOM     32  O   UNL     1       3.278  14.431  19.469  0.00  0.00    +0.000 OA
ATOM     33  H   UNL     1       4.185  14.436  19.096  0.00  0.00    +0.000 HD
ENDBRANCH  31  32
ENDBRANCH  23  31
ENDBRANCH  21  23
ENDBRANCH   7  19
TORSDOF 6
ENDMDL
