MODEL 1
REMARK VINA RESULT:      -8.8      0.000      0.000
REMARK  Name = 
REMARK  10 active torsions:
REMARK  status: ('A' for Active; 'I' for Inactive)
REMARK    1  A    between atoms: C_1  and  C_2
REMARK    2  A    between atoms: C_3  and  C_4
REMARK    3  A    between atoms: N_13  and  C_14
REMARK    4  A    between atoms: C_14  and  C_15
REMARK    5  A    between atoms: C_17  and  C_18
REMARK    6  A    between atoms: C_24  and  C_25
REMARK    7  A    between atoms: C_30  and  C_31
REMARK    8  A    between atoms: C_31  and  C_32
REMARK    9  A    between atoms: C_32  and  C_33
REMARK   10  A    between atoms: C_33  and  O_35
REMARK                            x       y       z     vdW  Elec       q    Type
REMARK                         _______ _______ _______ _____ _____    ______ ____
ROOT
ATOM      1  C   UNL     1       3.809   5.744  19.069  0.00  0.00    +0.000 A 
ATOM      2  C   UNL     1       3.990   4.341  19.183  0.00  0.00    +0.000 A 
ATOM      3  C   UNL     1       3.019   3.513  19.751  0.00  0.00    +0.000 A 
ATOM      4  C   UNL     1       1.927   4.122  20.359  0.00  0.00    +0.000 A 
ATOM      5  C   UNL     1       1.753   5.516  20.284  0.00  0.00    +0.000 A 
ATOM      6  C   UNL     1       2.609   6.356  19.539  0.00  0.00    +0.000 A 
ENDROOT
BRANCH   6   7
ATOM      7  C   UNL     1       2.195   7.780  19.218  0.00  0.00    +0.000 A 
ATOM      8  C   UNL     1       2.560   8.361  17.982  0.00  0.00    +0.000 A 
ATOM      9  C   UNL     1       2.039   9.559  17.491  0.00  0.00    +0.000 A 
ATOM     10  C   UNL     1       1.176  10.288  18.275  0.00  0.00    +0.000 A 
ATOM     11  C   UNL     1       0.884   9.833  19.554  0.00  0.00    +0.000 A 
ATOM     12  C   UNL     1       1.360   8.593  20.054  0.00  0.00    +0.000 A 
BRANCH  12  13
ATOM     13  C   UNL     1       1.021   8.237  21.501  0.00  0.00    +0.000 C 
BRANCH  13  14
ATOM     14  C   UNL     1      -0.379   8.630  21.980  0.00  0.00    +0.000 C 
BRANCH  14  15
ATOM     15  C   UNL     1      -0.347   9.669  23.070  0.00  0.00    +0.000 C 
ATOM     16  O   UNL     1      -1.245  10.452  23.334  0.00  0.00    +0.000 OA
BRANCH  15  17
ATOM     17  O   UNL     1       0.808   9.620  23.778  0.00  0.00    +0.000 OA
ATOM     18  H   UNL     1       0.725   9.132  24.622  0.00  0.00    +0.000 HD
ENDBRANCH  15  17
ENDBRANCH  14  15
ENDBRANCH  13  14
ENDBRANCH  12  13
ENDBRANCH   6   7
BRANCH   3  19
ATOM     19  C   UNL     1       3.139   2.010  19.678  0.00  0.00    +0.000 C 
ATOM     20  F   UNL     1       1.952   1.365  19.879  0.00  0.00    +0.000 F 
ATOM     21  F   UNL     1       3.608   1.565  18.484  0.00  0.00    +0.000 F 
ATOM     22  F   UNL     1       3.985   1.518  20.626  0.00  0.00    +0.000 F 
ENDBRANCH   3  19
BRANCH   1  23
ATOM     23  C   UNL     1       4.997   6.487  18.487  0.00  0.00    +0.000 C 
BRANCH  23  30
ATOM     24  C   UNL     1       4.209   5.060  15.826  0.00  0.00    +0.000 C 
ATOM     25  C   UNL     1       5.331   4.633  16.764  0.00  0.00    +0.000 C 
ATOM     26  C   UNL     1       6.585   4.060  16.096  0.00  0.00    +0.000 C 
ATOM     27  O   UNL     1       7.677   4.555  16.879  0.00  0.00    +0.000 OA
ATOM     28  C   UNL     1       7.231   5.524  17.730  0.00  0.00    +0.000 C 
ATOM     29  O   UNL     1       7.998   6.129  18.449  0.00  0.00    +0.000 OA
ATOM     30  N   UNL     1       5.856   5.658  17.626  0.00  0.00    +0.000 N 
BRANCH  26  31
ATOM     31  C   UNL     1       6.844   4.336  14.629  0.00  0.00    +0.000 A 
ATOM     32  C   UNL     1       7.724   5.335  14.186  0.00  0.00    +0.000 A 
ATOM     33  C   UNL     1       7.985   5.497  12.822  0.00  0.00    +0.000 A 
ATOM     34  C   UNL     1       7.362   4.674  11.886  0.00  0.00    +0.000 A 
ATOM     35  C   UNL     1       6.468   3.696  12.310  0.00  0.00    +0.000 A 
ATOM     36  C   UNL     1       6.206   3.533  13.671  0.00  0.00    +0.000 A 
ENDBRANCH  26  31
ENDBRANCH  23  30
ENDBRANCH   1  23
TORSDOF 9
ENDMDL
MODEL 2
REMARK VINA RESULT:      -8.7      0.317      1.055
REMARK  Name = 
REMARK  10 active torsions:
REMARK  status: ('A' for Active; 'I' for Inactive)
REMARK    1  A    between atoms: C_1  and  C_2
REMARK    2  A    between atoms: C_3  and  C_4
REMARK    3  A    between atoms: N_13  and  C_14
REMARK    4  A    between atoms: C_14  and  C_15
REMARK    5  A    between atoms: C_17  and  C_18
REMARK    6  A    between atoms: C_24  and  C_25
REMARK    7  A    between atoms: C_30  and  C_31
REMARK    8  A    between atoms: C_31  and  C_32
REMARK    9  A    between atoms: C_32  and  C_33
REMARK   10  A    between atoms: C_33  and  O_35
REMARK                            x       y       z     vdW  Elec       q    Type
REMARK                         _______ _______ _______ _____ _____    ______ ____
ROOT
ATOM      1  C   UNL     1       3.817   5.904  19.109  0.00  0.00    +0.000 A 
ATOM      2  C   UNL     1       4.086   4.524  19.307  0.00  0.00    +0.000 A 
ATOM      3  C   UNL     1       3.239   3.705  20.056  0.00  0.00    +0.000 A 
ATOM      4  C   UNL     1       2.198   4.313  20.749  0.00  0.00    +0.000 A 
ATOM      5  C   UNL     1       1.942   5.687  20.590  0.00  0.00    +0.000 A 
ATOM      6  C   UNL     1       2.652   6.499  19.679  0.00  0.00    +0.000 A 
ENDROOT
BRANCH   6   7
ATOM      7  C   UNL     1       2.126   7.872  19.305  0.00  0.00    +0.000 A 
ATOM      8  C   UNL     1       2.371   8.396  18.014  0.00  0.00    +0.000 A 
ATOM      9  C   UNL     1       1.742   9.526  17.491  0.00  0.00    +0.000 A 
ATOM     10  C   UNL     1       0.885  10.248  18.289  0.00  0.00    +0.000 A 
ATOM     11  C   UNL     1       0.707   9.858  19.609  0.00  0.00    +0.000 A 
ATOM     12  C   UNL     1       1.296   8.683  20.146  0.00  0.00    +0.000 A 
BRANCH  12  13
ATOM     13  C   UNL     1       1.075   8.398  21.632  0.00  0.00    +0.000 C 
BRANCH  13  14
ATOM     14  C   UNL     1      -0.311   8.741  22.184  0.00  0.00    +0.000 C 
BRANCH  14  15
ATOM     15  C   UNL     1      -0.263   9.804  23.250  0.00  0.00    +0.000 C 
ATOM     16  O   UNL     1      -0.957  10.807  23.288  0.00  0.00    +0.000 OA
BRANCH  15  17
ATOM     17  O   UNL     1       0.638   9.506  24.219  0.00  0.00    +0.000 OA
ATOM     18  H   UNL     1       1.472   9.130  23.870  0.00  0.00    +0.000 HD
ENDBRANCH  15  17
ENDBRANCH  14  15
ENDBRANCH  13  14
ENDBRANCH  12  13
ENDBRANCH   6   7
BRANCH   3  19
ATOM     19  C   UNL     1       3.430   2.208  20.085  0.00  0.00    +0.000 C 
ATOM     20  F   UNL     1       4.094   1.770  21.195  0.00  0.00    +0.000 F 
ATOM     21  F   UNL     1       2.262   1.516  20.053  0.00  0.00    +0.000 F 
ATOM     22  F   UNL     1       4.163   1.765  19.025  0.00  0.00    +0.000 F 
ENDBRANCH   3  19
BRANCH   1  23
ATOM     23  C   UNL     1       4.883   6.647  18.325  0.00  0.00    +0.000 C 
BRANCH  23  30
ATOM     24  C   UNL     1       4.147   4.940  15.820  0.00  0.00    +0.000 C 
ATOM     25  C   UNL     1       5.284   4.648  16.791  0.00  0.00    +0.000 C 
ATOM     26  C   UNL     1       6.559   4.058  16.177  0.00  0.00    +0.000 C 
ATOM     27  O   UNL     1       7.632   4.667  16.904  0.00  0.00    +0.000 OA
ATOM     28  C   UNL     1       7.150   5.698  17.658  0.00  0.00    +0.000 C 
ATOM     29  O   UNL     1       7.895   6.398  18.312  0.00  0.00    +0.000 OA
ATOM     30  N   UNL     1       5.772   5.771  17.547  0.00  0.00    +0.000 N 
BRANCH  26  31
ATOM     31  C   UNL     1       6.808   4.199  14.689  0.00  0.00    +0.000 A 
ATOM     32  C   UNL     1       6.195   3.374  13.733  0.00  0.00    +0.000 A 
ATOM     33  C   UNL     1       6.399   3.597  12.368  0.00  0.00    +0.000 A 
ATOM     34  C   UNL     1       7.226   4.635  11.943  0.00  0.00    +0.000 A 
ATOM     35  C   UNL     1       7.859   5.445  12.880  0.00  0.00    +0.000 A 
ATOM     36  C   UNL     1       7.657   5.224  14.243  0.00  0.00    +0.000 A 
ENDBRANCH  26  31
ENDBRANCH  23  30
ENDBRANCH   1  23
TORSDOF 9
ENDMDL
MODEL 3
REMARK VINA RESULT:      -8.5      5.029      7.251
REMARK  Name = 
REMARK  10 active torsions:
REMARK  status: ('A' for Active; 'I' for Inactive)
REMARK    1  A    between atoms: C_1  and  C_2
REMARK    2  A    between atoms: C_3  and  C_4
REMARK    3  A    between atoms: N_13  and  C_14
REMARK    4  A    between atoms: C_14  and  C_15
REMARK    5  A    between atoms: C_17  and  C_18
REMARK    6  A    between atoms: C_24  and  C_25
REMARK    7  A    between atoms: C_30  and  C_31
REMARK    8  A    between atoms: C_31  and  C_32
REMARK    9  A    between atoms: C_32  and  C_33
REMARK   10  A    between atoms: C_33  and  O_35
REMARK                            x       y       z     vdW  Elec       q    Type
REMARK                         _______ _______ _______ _____ _____    ______ ____
ROOT
ATOM      1  C   UNL     1      -0.130  10.807  19.211  0.00  0.00    +0.000 A 
ATOM      2  C   UNL     1      -1.217  10.080  18.657  0.00  0.00    +0.000 A 
ATOM      3  C   UNL     1      -2.098  10.651  17.736  0.00  0.00    +0.000 A 
ATOM      4  C   UNL     1      -1.982  12.015  17.493  0.00  0.00    +0.000 A 
ATOM      5  C   UNL     1      -0.931  12.756  18.063  0.00  0.00    +0.000 A 
ATOM      6  C   UNL     1       0.095  12.164  18.831  0.00  0.00    +0.000 A 
ENDROOT
BRANCH   6   7
ATOM      7  C   UNL     1       1.365  12.936  19.136  0.00  0.00    +0.000 A 
ATOM      8  C   UNL     1       2.393  13.015  18.169  0.00  0.00    +0.000 A 
ATOM      9  C   UNL     1       3.484  13.882  18.249  0.00  0.00    +0.000 A 
ATOM     10  C   UNL     1       3.642  14.661  19.371  0.00  0.00    +0.000 A 
ATOM     11  C   UNL     1       2.735  14.529  20.414  0.00  0.00    +0.000 A 
ATOM     12  C   UNL     1       1.591  13.693  20.332  0.00  0.00    +0.000 A 
BRANCH  12  13
ATOM     13  C   UNL     1       0.705  13.585  21.573  0.00  0.00    +0.000 C 
BRANCH  13  14
ATOM     14  C   UNL     1      -0.119  14.827  21.922  0.00  0.00    +0.000 C 
BRANCH  14  15
ATOM     15  C   UNL     1      -1.103  14.575  23.035  0.00  0.00    +0.000 C 
ATOM     16  O   UNL     1      -2.200  14.056  22.911  0.00  0.00    +0.000 OA
BRANCH  15  17
ATOM     17  O   UNL     1      -0.613  14.963  24.238  0.00  0.00    +0.000 OA
ATOM     18  H   UNL     1      -1.310  15.149  24.899  0.00  0.00    +0.000 HD
ENDBRANCH  15  17
ENDBRANCH  14  15
ENDBRANCH  13  14
ENDBRANCH  12  13
ENDBRANCH   6   7
BRANCH   3  19
ATOM     19  C   UNL     1      -3.116   9.808  17.008  0.00  0.00    +0.000 C 
ATOM     20  F   UNL     1      -3.699   8.862  17.802  0.00  0.00    +0.000 F 
ATOM     21  F   UNL     1      -4.137  10.533  16.481  0.00  0.00    +0.000 F 
ATOM     22  F   UNL     1      -2.563   9.120  15.970  0.00  0.00    +0.000 F 
ENDBRANCH   3  19
BRANCH   1  23
ATOM     23  C   UNL     1       0.677  10.044  20.243  0.00  0.00    +0.000 C 
BRANCH  23  30
ATOM     24  C   UNL     1       0.928   7.171  21.435  0.00  0.00    +0.000 C 
ATOM     25  C   UNL     1       1.939   7.842  20.514  0.00  0.00    +0.000 C 
ATOM     26  C   UNL     1       2.643   6.927  19.506  0.00  0.00    +0.000 C 
ATOM     27  O   UNL     1       2.766   7.715  18.317  0.00  0.00    +0.000 OA
ATOM     28  C   UNL     1       2.007   8.843  18.433  0.00  0.00    +0.000 C 
ATOM     29  O   UNL     1       1.912   9.631  17.516  0.00  0.00    +0.000 OA
ATOM     30  N   UNL     1       1.433   8.909  19.691  0.00  0.00    +0.000 N 
BRANCH  26  31
ATOM     31  C   UNL     1       2.035   5.581  19.165  0.00  0.00    +0.000 A 
ATOM     32  C   UNL     1       1.900   5.119  17.847  0.00  0.00    +0.000 A 
ATOM     33  C   UNL     1       1.401   3.838  17.593  0.00  0.00    +0.000 A 
ATOM     34  C   UNL     1       1.022   3.010  18.648  0.00  0.00    +0.000 A 
ATOM     35  C   UNL     1       1.127   3.466  19.958  0.00  0.00    +0.000 A 
ATOM     36  C   UNL     1       1.624   4.744  20.215  0.00  0.00    +0.000 A 
ENDBRANCH  26  31
ENDBRANCH  23  30
ENDBRANCH   1  23
TORSDOF 9
ENDMDL
MODEL 4
REMARK VINA RESULT:      -8.5      9.291     12.523
REMARK  Name = 
REMARK  10 active torsions:
REMARK  status: ('A' for Active; 'I' for Inactive)
REMARK    1  A    between atoms: C_1  and  C_2
REMARK    2  A    between atoms: C_3  and  C_4
REMARK    3  A    between atoms: N_13  and  C_14
REMARK    4  A    between atoms: C_14  and  C_15
REMARK    5  A    between atoms: C_17  and  C_18
REMARK    6  A    between atoms: C_24  and  C_25
REMARK    7  A    between atoms: C_30  and  C_31
REMARK    8  A    between atoms: C_31  and  C_32
REMARK    9  A    between atoms: C_32  and  C_33
REMARK   10  A    between atoms: C_33  and  O_35
REMARK                            x       y       z     vdW  Elec       q    Type
REMARK                         _______ _______ _______ _____ _____    ______ ____
ROOT
ATOM      1  C   UNL     1       7.322  14.808  20.277  0.00  0.00    +0.000 A 
ATOM      2  C   UNL     1       6.021  15.260  19.930  0.00  0.00    +0.000 A 
ATOM      3  C   UNL     1       5.522  15.152  18.630  0.00  0.00    +0.000 A 
ATOM      4  C   UNL     1       6.399  14.736  17.634  0.00  0.00    +0.000 A 
ATOM      5  C   UNL     1       7.703  14.320  17.959  0.00  0.00    +0.000 A 
ATOM      6  C   UNL     1       8.167  14.221  19.288  0.00  0.00    +0.000 A 
ENDROOT
BRANCH   6   7
ATOM      7  C   UNL     1       9.442  13.460  19.599  0.00  0.00    +0.000 A 
ATOM      8  C   UNL     1       9.395  12.067  19.837  0.00  0.00    +0.000 A 
ATOM      9  C   UNL     1      10.517  11.240  19.895  0.00  0.00    +0.000 A 
ATOM     10  C   UNL     1      11.770  11.799  19.804  0.00  0.00    +0.000 A 
ATOM     11  C   UNL     1      11.883  13.179  19.703  0.00  0.00    +0.000 A 
ATOM     12  C   UNL     1      10.756  14.034  19.590  0.00  0.00    +0.000 A 
BRANCH  12  13
ATOM     13  C   UNL     1      11.012  15.540  19.551  0.00  0.00    +0.000 C 
BRANCH  13  14
ATOM     14  C   UNL     1      11.603  16.089  18.250  0.00  0.00    +0.000 C 
BRANCH  14  15
ATOM     15  C   UNL     1      10.543  16.535  17.276  0.00  0.00    +0.000 C 
ATOM     16  O   UNL     1       9.633  17.310  17.521  0.00  0.00    +0.000 OA
BRANCH  15  17
ATOM     17  O   UNL     1      10.731  15.998  16.046  0.00  0.00    +0.000 OA
ATOM     18  H   UNL     1      11.063  15.077  16.071  0.00  0.00    +0.000 HD
ENDBRANCH  15  17
ENDBRANCH  14  15
ENDBRANCH  13  14
ENDBRANCH  12  13
ENDBRANCH   6   7
BRANCH   3  19
ATOM     19  C   UNL     1       4.073  15.447  18.326  0.00  0.00    +0.000 C 
ATOM     20  F   UNL     1       3.710  16.729  18.625  0.00  0.00    +0.000 F 
ATOM     21  F   UNL     1       3.749  15.262  17.021  0.00  0.00    +0.000 F 
ATOM     22  F   UNL     1       3.229  14.653  19.044  0.00  0.00    +0.000 F 
ENDBRANCH   3  19
BRANCH   1  23
ATOM     23  C   UNL     1       7.715  15.069  21.719  0.00  0.00    +0.000 C 
BRANCH  23  30
ATOM     24  C   UNL     1       8.266  12.380  23.203  0.00  0.00    +0.000 C 
ATOM     25  C   UNL     1       6.891  12.976  22.925  0.00  0.00    +0.000 C 
ATOM     26  C   UNL     1       5.832  12.762  24.012  0.00  0.00    +0.000 C 
ATOM     27  O   UNL     1       5.083  13.982  24.040  0.00  0.00    +0.000 OA
ATOM     28  C   UNL     1       5.729  14.935  23.308  0.00  0.00    +0.000 C 
ATOM     29  O   UNL     1       5.305  16.070  23.243  0.00  0.00    +0.000 OA
ATOM     30  N   UNL     1       6.853  14.397  22.704  0.00  0.00    +0.000 N 
BRANCH  26  31
ATOM     31  C   UNL     1       6.265  12.397  25.417  0.00  0.00    +0.000 A 
ATOM     32  C   UNL     1       6.960  13.284  26.254  0.00  0.00    +0.000 A 
ATOM     33  C   UNL     1       7.269  12.924  27.569  0.00  0.00    +0.000 A 
ATOM     34  C   UNL     1       6.899  11.673  28.059  0.00  0.00    +0.000 A 
ATOM     35  C   UNL     1       6.231  10.775  27.233  0.00  0.00    +0.000 A 
ATOM     36  C   UNL     1       5.923  11.132  25.919  0.00  0.00    +0.000 A 
ENDBRANCH  26  31
ENDBRANCH  23  30
ENDBRANCH   1  23
TORSDOF 9
ENDMDL
MODEL 5
REMARK VINA RESULT:      -8.4      5.727      8.503
REMARK  Name = 
REMARK  10 active torsions:
REMARK  status: ('A' for Active; 'I' for Inactive)
REMARK    1  A    between atoms: C_1  and  C_2
REMARK    2  A    between atoms: C_3  and  C_4
REMARK    3  A    between atoms: N_13  and  C_14
REMARK    4  A    between atoms: C_14  and  C_15
REMARK    5  A    between atoms: C_17  and  C_18
REMARK    6  A    between atoms: C_24  and  C_25
REMARK    7  A    between atoms: C_30  and  C_31
REMARK    8  A    between atoms: C_31  and  C_32
REMARK    9  A    between atoms: C_32  and  C_33
REMARK   10  A    between atoms: C_33  and  O_35
REMARK                            x       y       z     vdW  Elec       q    Type
REMARK                         _______ _______ _______ _____ _____    ______ ____
ROOT
ATOM      1  C   UNL     1      -0.075  11.597  19.578  0.00  0.00    +0.000 A 
ATOM      2  C   UNL     1       1.212  12.116  19.878  0.00  0.00    +0.000 A 
ATOM      3  C   UNL     1       1.617  13.383  19.454  0.00  0.00    +0.000 A 
ATOM      4  C   UNL     1       0.780  14.069  18.580  0.00  0.00    +0.000 A 
ATOM      5  C   UNL     1      -0.484  13.550  18.246  0.00  0.00    +0.000 A 
ATOM      6  C   UNL     1      -1.005  12.372  18.823  0.00  0.00    +0.000 A 
ENDROOT
BRANCH   6   7
ATOM      7  C   UNL     1      -2.480  12.041  18.687  0.00  0.00    +0.000 A 
ATOM      8  C   UNL     1      -3.373  12.348  19.740  0.00  0.00    +0.000 A 
ATOM      9  C   UNL     1      -4.763  12.307  19.630  0.00  0.00    +0.000 A 
ATOM     10  C   UNL     1      -5.332  11.861  18.459  0.00  0.00    +0.000 A 
ATOM     11  C   UNL     1      -4.504  11.420  17.436  0.00  0.00    +0.000 A 
ATOM     12  C   UNL     1      -3.088  11.502  17.507  0.00  0.00    +0.000 A 
BRANCH  12  13
ATOM     13  C   UNL     1      -2.288  10.923  16.341  0.00  0.00    +0.000 C 
BRANCH  13  14
ATOM     14  C   UNL     1      -2.844   9.642  15.714  0.00  0.00    +0.000 C 
BRANCH  14  15
ATOM     15  C   UNL     1      -3.320   9.849  14.300  0.00  0.00    +0.000 C 
ATOM     16  O   UNL     1      -4.479  10.018  13.955  0.00  0.00    +0.000 OA
BRANCH  15  17
ATOM     17  O   UNL     1      -2.289   9.866  13.419  0.00  0.00    +0.000 OA
ATOM     18  H   UNL     1      -1.551  10.446  13.697  0.00  0.00    +0.000 HD
ENDBRANCH  15  17
ENDBRANCH  14  15
ENDBRANCH  13  14
ENDBRANCH  12  13
ENDBRANCH   6   7
BRANCH   3  19
ATOM     19  C   UNL     1       2.902  13.996  19.952  0.00  0.00    +0.000 C 
ATOM     20  F   UNL     1       3.931  13.892  19.060  0.00  0.00    +0.000 F 
ATOM     21  F   UNL     1       2.792  15.319  20.240  0.00  0.00    +0.000 F 
ATOM     22  F   UNL     1       3.348  13.396  21.091  0.00  0.00    +0.000 F 
ENDBRANCH   3  19
BRANCH   1  23
ATOM     23  C   UNL     1      -0.312  10.179  20.064  0.00  0.00    +0.000 C 
BRANCH  23  30
ATOM     24  C   UNL     1       0.641   7.612  21.559  0.00  0.00    +0.000 C 
ATOM     25  C   UNL     1       1.463   8.413  20.557  0.00  0.00    +0.000 C 
ATOM     26  C   UNL     1       2.392   7.602  19.646  0.00  0.00    +0.000 C 
ATOM     27  O   UNL     1       2.328   8.261  18.377  0.00  0.00    +0.000 OA
ATOM     28  C   UNL     1       1.307   9.166  18.379  0.00  0.00    +0.000 C 
ATOM     29  O   UNL     1       1.028   9.799  17.382  0.00  0.00    +0.000 OA
ATOM     30  N   UNL     1       0.715   9.220  19.629  0.00  0.00    +0.000 N 
BRANCH  26  31
ATOM     31  C   UNL     1       2.149   6.117  19.462  0.00  0.00    +0.000 A 
ATOM     32  C   UNL     1       1.984   5.234  20.540  0.00  0.00    +0.000 A 
ATOM     33  C   UNL     1       1.687   3.887  20.313  0.00  0.00    +0.000 A 
ATOM     34  C   UNL     1       1.564   3.405  19.012  0.00  0.00    +0.000 A 
ATOM     35  C   UNL     1       1.750   4.265  17.934  0.00  0.00    +0.000 A 
ATOM     36  C   UNL     1       2.047   5.610  18.158  0.00  0.00    +0.000 A 
ENDBRANCH  26  31
ENDBRANCH  23  30
ENDBRANCH   1  23
TORSDOF 9
ENDMDL
MODEL 6
REMARK VINA RESULT:      -8.4      3.302      8.194
REMARK  Name = 
REMARK  10 active torsions:
REMARK  status: ('A' for Active; 'I' for Inactive)
REMARK    1  A    between atoms: C_1  and  C_2
REMARK    2  A    between atoms: C_3  and  C_4
REMARK    3  A    between atoms: N_13  and  C_14
REMARK    4  A    between atoms: C_14  and  C_15
REMARK    5  A    between atoms: C_17  and  C_18
REMARK    6  A    between atoms: C_24  and  C_25
REMARK    7  A    between atoms: C_30  and  C_31
REMARK    8  A    between atoms: C_31  and  C_32
REMARK    9  A    between atoms: C_32  and  C_33
REMARK   10  A    between atoms: C_33  and  O_35
REMARK                            x       y       z     vdW  Elec       q    Type
REMARK                         _______ _______ _______ _____ _____    ______ ____
ROOT
ATOM      1  C   UNL     1       3.833   6.256  18.447  0.00  0.00    +0.000 A 
ATOM      2  C   UNL     1       4.945   7.038  18.038  0.00  0.00    +0.000 A 
ATOM      3  C   UNL     1       6.259   6.666  18.328  0.00  0.00    +0.000 A 
ATOM      4  C   UNL     1       6.450   5.581  19.178  0.00  0.00    +0.000 A 
ATOM      5  C   UNL     1       5.354   4.818  19.619  0.00  0.00    +0.000 A 
ATOM      6  C   UNL     1       4.034   5.045  19.176  0.00  0.00    +0.000 A 
ENDROOT
BRANCH   6   7
ATOM      7  C   UNL     1       2.956   4.004  19.413  0.00  0.00    +0.000 A 
ATOM      8  C   UNL     1       2.457   3.788  20.719  0.00  0.00    +0.000 A 
ATOM      9  C   UNL     1       1.318   3.038  21.011  0.00  0.00    +0.000 A 
ATOM     10  C   UNL     1       0.664   2.383  19.994  0.00  0.00    +0.000 A 
ATOM     11  C   UNL     1       1.185   2.450  18.708  0.00  0.00    +0.000 A 
ATOM     12  C   UNL     1       2.311   3.249  18.379  0.00  0.00    +0.000 A 
BRANCH  12  13
ATOM     13  C   UNL     1       2.826   3.185  16.942  0.00  0.00    +0.000 C 
BRANCH  13  14
ATOM     14  C   UNL     1       4.280   2.739  16.767  0.00  0.00    +0.000 C 
BRANCH  14  15
ATOM     15  C   UNL     1       5.128   3.783  16.089  0.00  0.00    +0.000 C 
ATOM     16  O   UNL     1       4.714   4.699  15.397  0.00  0.00    +0.000 OA
BRANCH  15  17
ATOM     17  O   UNL     1       6.446   3.619  16.366  0.00  0.00    +0.000 OA
ATOM     18  H   UNL     1       6.613   3.287  17.271  0.00  0.00    +0.000 HD
ENDBRANCH  15  17
ENDBRANCH  14  15
ENDBRANCH  13  14
ENDBRANCH  12  13
ENDBRANCH   6   7
BRANCH   3  19
ATOM     19  C   UNL     1       7.428   7.395  17.713  0.00  0.00    +0.000 C 
ATOM     20  F   UNL     1       8.531   7.421  18.519  0.00  0.00    +0.000 F 
ATOM     21  F   UNL     1       7.839   6.859  16.536  0.00  0.00    +0.000 F 
ATOM     22  F   UNL     1       7.138   8.701  17.455  0.00  0.00    +0.000 F 
ENDBRANCH   3  19
BRANCH   1  23
ATOM     23  C   UNL     1       2.482   6.852  18.101  0.00  0.00    +0.000 C 
BRANCH  23  30
ATOM     24  C   UNL     1       1.843   9.849  17.513  0.00  0.00    +0.000 C 
ATOM     25  C   UNL     1       2.258   9.278  18.863  0.00  0.00    +0.000 C 
ATOM     26  C   UNL     1       1.606   9.916  20.095  0.00  0.00    +0.000 C 
ATOM     27  O   UNL     1       1.383   8.827  20.997  0.00  0.00    +0.000 OA
ATOM     28  C   UNL     1       1.581   7.643  20.348  0.00  0.00    +0.000 C 
ATOM     29  O   UNL     1       1.387   6.583  20.905  0.00  0.00    +0.000 OA
ATOM     30  N   UNL     1       2.017   7.872  19.054  0.00  0.00    +0.000 N 
BRANCH  26  31
ATOM     31  C   UNL     1       0.328  10.715  19.934  0.00  0.00    +0.000 A 
ATOM     32  C   UNL     1       0.172  12.012  20.447  0.00  0.00    +0.000 A 
ATOM     33  C   UNL     1      -1.000  12.734  20.205  0.00  0.00    +0.000 A 
ATOM     34  C   UNL     1      -2.032  12.167  19.460  0.00  0.00    +0.000 A 
ATOM     35  C   UNL     1      -1.901  10.873  18.967  0.00  0.00    +0.000 A 
ATOM     36  C   UNL     1      -0.732  10.150  19.208  0.00  0.00    +0.000 A 
ENDBRANCH  26  31
ENDBRANCH  23  30
ENDBRANCH   1  23
TORSDOF 9
ENDMDL
MODEL 7
REMARK VINA RESULT:      -8.3      6.277      9.932
REMARK  Name = 
REMARK  10 active torsions:
REMARK  status: ('A' for Active; 'I' for Inactive)
REMARK    1  A    between atoms: C_1  and  C_2
REMARK    2  A    between atoms: C_3  and  C_4
REMARK    3  A    between atoms: N_13  and  C_14
REMARK    4  A    between atoms: C_14  and  C_15
REMARK    5  A    between atoms: C_17  and  C_18
REMARK    6  A    between atoms: C_24  and  C_25
REMARK    7  A    between atoms: C_30  and  C_31
REMARK    8  A    between atoms: C_31  and  C_32
REMARK    9  A    between atoms: C_32  and  C_33
REMARK   10  A    between atoms: C_33  and  O_35
REMARK                            x       y       z     vdW  Elec       q    Type
REMARK                         _______ _______ _______ _____ _____    ______ ____
ROOT
ATOM      1  C   UNL     1       0.126  11.599  19.834  0.00  0.00    +0.000 A 
ATOM      2  C   UNL     1      -0.939  12.480  20.160  0.00  0.00    +0.000 A 
ATOM      3  C   UNL     1      -2.255  12.229  19.766  0.00  0.00    +0.000 A 
ATOM      4  C   UNL     1      -2.477  11.166  18.897  0.00  0.00    +0.000 A 
ATOM      5  C   UNL     1      -1.424  10.306  18.537  0.00  0.00    +0.000 A 
ATOM      6  C   UNL     1      -0.127  10.412  19.084  0.00  0.00    +0.000 A 
ENDROOT
BRANCH   6   7
ATOM      7  C   UNL     1       0.867   9.276  18.924  0.00  0.00    +0.000 A 
ATOM      8  C   UNL     1       1.561   9.110  17.703  0.00  0.00    +0.000 A 
ATOM      9  C   UNL     1       2.654   8.261  17.528  0.00  0.00    +0.000 A 
ATOM     10  C   UNL     1       3.052   7.455  18.569  0.00  0.00    +0.000 A 
ATOM     11  C   UNL     1       2.325   7.477  19.752  0.00  0.00    +0.000 A 
ATOM     12  C   UNL     1       1.243   8.370  19.969  0.00  0.00    +0.000 A 
BRANCH  12  13
ATOM     13  C   UNL     1       0.482   8.250  21.289  0.00  0.00    +0.000 C 
BRANCH  13  14
ATOM     14  C   UNL     1       0.904   9.216  22.399  0.00  0.00    +0.000 C 
BRANCH  14  15
ATOM     15  C   UNL     1      -0.266   9.949  23.003  0.00  0.00    +0.000 C 
ATOM     16  O   UNL     1      -1.317   9.442  23.360  0.00  0.00    +0.000 OA
BRANCH  15  17
ATOM     17  O   UNL     1      -0.009  11.273  23.149  0.00  0.00    +0.000 OA
ATOM     18  H   UNL     1       0.886  11.458  23.497  0.00  0.00    +0.000 HD
ENDBRANCH  15  17
ENDBRANCH  14  15
ENDBRANCH  13  14
ENDBRANCH  12  13
ENDBRANCH   6   7
BRANCH   3  19
ATOM     19  C   UNL     1      -3.397  13.063  20.293  0.00  0.00    +0.000 C 
ATOM     20  F   UNL     1      -4.491  13.056  19.475  0.00  0.00    +0.000 F 
ATOM     21  F   UNL     1      -3.841  12.660  21.511  0.00  0.00    +0.000 F 
ATOM     22  F   UNL     1      -3.053  14.374  20.429  0.00  0.00    +0.000 F 
ENDBRANCH   3  19
BRANCH   1  23
ATOM     23  C   UNL     1       1.494  12.070  20.288  0.00  0.00    +0.000 C 
BRANCH  23  30
ATOM     24  C   UNL     1       2.016  13.796  17.742  0.00  0.00    +0.000 C 
ATOM     25  C   UNL     1       2.423  14.164  19.163  0.00  0.00    +0.000 C 
ATOM     26  C   UNL     1       2.340  15.651  19.524  0.00  0.00    +0.000 C 
ATOM     27  O   UNL     1       1.880  15.675  20.879  0.00  0.00    +0.000 OA
ATOM     28  C   UNL     1       1.452  14.431  21.242  0.00  0.00    +0.000 C 
ATOM     29  O   UNL     1       0.961  14.230  22.333  0.00  0.00    +0.000 OA
ATOM     30  N   UNL     1       1.678  13.528  20.217  0.00  0.00    +0.000 N 
BRANCH  26  31
ATOM     31  C   UNL     1       1.489  16.579  18.680  0.00  0.00    +0.000 A 
ATOM     32  C   UNL     1       2.025  17.404  17.680  0.00  0.00    +0.000 A 
ATOM     33  C   UNL     1       1.185  18.184  16.879  0.00  0.00    +0.000 A 
ATOM     34  C   UNL     1      -0.194  18.159  17.076  0.00  0.00    +0.000 A 
ATOM     35  C   UNL     1      -0.737  17.365  18.081  0.00  0.00    +0.000 A 
ATOM     36  C   UNL     1       0.099  16.586  18.881  0.00  0.00    +0.000 A 
ENDBRANCH  26  31
ENDBRANCH  23  30
ENDBRANCH   1  23
TORSDOF 9
ENDMDL
MODEL 8
REMARK VINA RESULT:      -8.3      5.083      7.341
REMARK  Name = 
REMARK  10 active torsions:
REMARK  status: ('A' for Active; 'I' for Inactive)
REMARK    1  A    between atoms: C_1  and  C_2
REMARK    2  A    between atoms: C_3  and  C_4
REMARK    3  A    between atoms: N_13  and  C_14
REMARK    4  A    between atoms: C_14  and  C_15
REMARK    5  A    between atoms: C_17  and  C_18
REMARK    6  A    between atoms: C_24  and  C_25
REMARK    7  A    between atoms: C_30  and  C_31
REMARK    8  A    between atoms: C_31  and  C_32
REMARK    9  A    between atoms: C_32  and  C_33
REMARK   10  A    between atoms: C_33  and  O_35
REMARK                            x       y       z     vdW  Elec       q    Type
REMARK                         _______ _______ _______ _____ _____    ______ ____
ROOT
ATOM      1  C   UNL     1      -0.158  10.807  19.207  0.00  0.00    +0.000 A 
ATOM      2  C   UNL     1      -1.251  10.080  18.667  0.00  0.00    +0.000 A 
ATOM      3  C   UNL     1      -2.128  10.643  17.737  0.00  0.00    +0.000 A 
ATOM      4  C   UNL     1      -2.001  12.002  17.471  0.00  0.00    +0.000 A 
ATOM      5  C   UNL     1      -0.943  12.743  18.027  0.00  0.00    +0.000 A 
ATOM      6  C   UNL     1       0.078  12.156  18.804  0.00  0.00    +0.000 A 
ENDROOT
BRANCH   6   7
ATOM      7  C   UNL     1       1.356  12.922  19.095  0.00  0.00    +0.000 A 
ATOM      8  C   UNL     1       2.397  12.949  18.138  0.00  0.00    +0.000 A 
ATOM      9  C   UNL     1       3.498  13.804  18.198  0.00  0.00    +0.000 A 
ATOM     10  C   UNL     1       3.654  14.624  19.291  0.00  0.00    +0.000 A 
ATOM     11  C   UNL     1       2.733  14.545  20.327  0.00  0.00    +0.000 A 
ATOM     12  C   UNL     1       1.578  13.722  20.263  0.00  0.00    +0.000 A 
BRANCH  12  13
ATOM     13  C   UNL     1       0.676  13.674  21.496  0.00  0.00    +0.000 C 
BRANCH  13  14
ATOM     14  C   UNL     1      -0.546  14.597  21.472  0.00  0.00    +0.000 C 
BRANCH  14  15
ATOM     15  C   UNL     1      -0.400  15.773  22.402  0.00  0.00    +0.000 C 
ATOM     16  O   UNL     1      -1.034  16.814  22.339  0.00  0.00    +0.000 OA
BRANCH  15  17
ATOM     17  O   UNL     1       0.514  15.536  23.375  0.00  0.00    +0.000 OA
ATOM     18  H   UNL     1       0.209  15.800  24.266  0.00  0.00    +0.000 HD
ENDBRANCH  15  17
ENDBRANCH  14  15
ENDBRANCH  13  14
ENDBRANCH  12  13
ENDBRANCH   6   7
BRANCH   3  19
ATOM     19  C   UNL     1      -3.155   9.797  17.025  0.00  0.00    +0.000 C 
ATOM     20  F   UNL     1      -4.223  10.515  16.569  0.00  0.00    +0.000 F 
ATOM     21  F   UNL     1      -2.657   9.143  15.944  0.00  0.00    +0.000 F 
ATOM     22  F   UNL     1      -3.682   8.839  17.838  0.00  0.00    +0.000 F 
ENDBRANCH   3  19
BRANCH   1  23
ATOM     23  C   UNL     1       0.644  10.055  20.252  0.00  0.00    +0.000 C 
BRANCH  23  30
ATOM     24  C   UNL     1       0.988   7.221  21.510  0.00  0.00    +0.000 C 
ATOM     25  C   UNL     1       1.964   7.891  20.552  0.00  0.00    +0.000 C 
ATOM     26  C   UNL     1       2.669   6.967  19.553  0.00  0.00    +0.000 C 
ATOM     27  O   UNL     1       2.749   7.727  18.343  0.00  0.00    +0.000 OA
ATOM     28  C   UNL     1       1.966   8.840  18.446  0.00  0.00    +0.000 C 
ATOM     29  O   UNL     1       1.833   9.602  17.511  0.00  0.00    +0.000 OA
ATOM     30  N   UNL     1       1.415   8.924  19.713  0.00  0.00    +0.000 N 
BRANCH  26  31
ATOM     31  C   UNL     1       2.086   5.599  19.259  0.00  0.00    +0.000 A 
ATOM     32  C   UNL     1       1.587   4.753  20.261  0.00  0.00    +0.000 A 
ATOM     33  C   UNL     1       0.990   3.534  19.927  0.00  0.00    +0.000 A 
ATOM     34  C   UNL     1       0.896   3.141  18.593  0.00  0.00    +0.000 A 
ATOM     35  C   UNL     1       1.409   3.959  17.592  0.00  0.00    +0.000 A 
ATOM     36  C   UNL     1       2.006   5.176  17.923  0.00  0.00    +0.000 A 
ENDBRANCH  26  31
ENDBRANCH  23  30
ENDBRANCH   1  23
TORSDOF 9
ENDMDL
MODEL 9
REMARK VINA RESULT:      -8.3      8.891     10.676
REMARK  Name = 
REMARK  10 active torsions:
REMARK  status: ('A' for Active; 'I' for Inactive)
REMARK    1  A    between atoms: C_1  and  C_2
REMARK    2  A    between atoms: C_3  and  C_4
REMARK    3  A    between atoms: N_13  and  C_14
REMARK    4  A    between atoms: C_14  and  C_15
REMARK    5  A    between atoms: C_17  and  C_18
REMARK    6  A    between atoms: C_24  and  C_25
REMARK    7  A    between atoms: C_30  and  C_31
REMARK    8  A    between atoms: C_31  and  C_32
REMARK    9  A    between atoms: C_32  and  C_33
REMARK   10  A    between atoms: C_33  and  O_35
REMARK                            x       y       z     vdW  Elec       q    Type
REMARK                         _______ _______ _______ _____ _____    ______ ____
ROOT
ATOM      1  C   UNL     1      -1.975  12.253  20.247  0.00  0.00    +0.000 A 
ATOM      2  C   UNL     1      -2.108  11.436  19.094  0.00  0.00    +0.000 A 
ATOM      3  C   UNL     1      -3.286  11.398  18.345  0.00  0.00    +0.000 A 
ATOM      4  C   UNL     1      -4.396  12.063  18.854  0.00  0.00    +0.000 A 
ATOM      5  C   UNL     1      -4.288  12.848  20.016  0.00  0.00    +0.000 A 
ATOM      6  C   UNL     1      -3.061  13.072  20.677  0.00  0.00    +0.000 A 
ENDROOT
BRANCH   6   7
ATOM      7  C   UNL     1      -2.939  14.177  21.711  0.00  0.00    +0.000 A 
ATOM      8  C   UNL     1      -2.652  15.500  21.301  0.00  0.00    +0.000 A 
ATOM      9  C   UNL     1      -2.752  16.619  22.128  0.00  0.00    +0.000 A 
ATOM     10  C   UNL     1      -3.065  16.447  23.457  0.00  0.00    +0.000 A 
ATOM     11  C   UNL     1      -3.227  15.158  23.947  0.00  0.00    +0.000 A 
ATOM     12  C   UNL     1      -3.182  14.010  23.114  0.00  0.00    +0.000 A 
BRANCH  12  13
ATOM     13  C   UNL     1      -3.310  12.644  23.786  0.00  0.00    +0.000 C 
BRANCH  13  14
ATOM     14  C   UNL     1      -4.557  12.433  24.649  0.00  0.00    +0.000 C 
BRANCH  14  15
ATOM     15  C   UNL     1      -5.831  12.755  23.912  0.00  0.00    +0.000 C 
ATOM     16  O   UNL     1      -6.245  12.180  22.919  0.00  0.00    +0.000 OA
BRANCH  15  17
ATOM     17  O   UNL     1      -6.516  13.763  24.508  0.00  0.00    +0.000 OA
ATOM     18  H   UNL     1      -5.993  14.241  25.183  0.00  0.00    +0.000 HD
ENDBRANCH  15  17
ENDBRANCH  14  15
ENDBRANCH  13  14
ENDBRANCH  12  13
ENDBRANCH   6   7
BRANCH   3  19
ATOM     19  C   UNL     1      -3.340  10.687  17.015  0.00  0.00    +0.000 C 
ATOM     20  F   UNL     1      -2.401  11.131  16.128  0.00  0.00    +0.000 F 
ATOM     21  F   UNL     1      -3.153   9.346  17.114  0.00  0.00    +0.000 F 
ATOM     22  F   UNL     1      -4.539  10.859  16.391  0.00  0.00    +0.000 F 
ENDBRANCH   3  19
BRANCH   1  23
ATOM     23  C   UNL     1      -0.648  12.112  20.969  0.00  0.00    +0.000 C 
BRANCH  23  30
ATOM     24  C   UNL     1       0.462  13.115  18.231  0.00  0.00    +0.000 C 
ATOM     25  C   UNL     1       1.141  13.291  19.583  0.00  0.00    +0.000 C 
ATOM     26  C   UNL     1       1.905  14.605  19.787  0.00  0.00    +0.000 C 
ATOM     27  O   UNL     1       1.667  14.959  21.153  0.00  0.00    +0.000 OA
ATOM     28  C   UNL     1       0.677  14.172  21.667  0.00  0.00    +0.000 C 
ATOM     29  O   UNL     1       0.267  14.339  22.797  0.00  0.00    +0.000 OA
ATOM     30  N   UNL     1       0.281  13.229  20.734  0.00  0.00    +0.000 N 
BRANCH  26  31
ATOM     31  C   UNL     1       1.605  15.791  18.893  0.00  0.00    +0.000 A 
ATOM     32  C   UNL     1       0.400  16.506  18.956  0.00  0.00    +0.000 A 
ATOM     33  C   UNL     1       0.205  17.640  18.161  0.00  0.00    +0.000 A 
ATOM     34  C   UNL     1       1.205  18.064  17.288  0.00  0.00    +0.000 A 
ATOM     35  C   UNL     1       2.395  17.350  17.197  0.00  0.00    +0.000 A 
ATOM     36  C   UNL     1       2.591  16.218  17.989  0.00  0.00    +0.000 A 
ENDBRANCH  26  31
ENDBRANCH  23  30
ENDBRANCH   1  23
TORSDOF 9
ENDMDL
