MODEL 1
REMARK VINA RESULT:      -7.4      0.000      0.000
REMARK  Name = 
REMARK  5 active torsions:
REMARK  status: ('A' for Active; 'I' for Inactive)
REMARK    1  A    between atoms: O_1  and  C_2
REMARK    2  A    between atoms: C_2  and  C_3
REMARK    3  A    between atoms: C_3  and  C_4
REMARK    4  A    between atoms: C_4  and  N_5
REMARK    5  A    between atoms: N_5  and  C_6
REMARK                            x       y       z     vdW  Elec       q    Type
REMARK                         _______ _______ _______ _____ _____    ______ ____
ROOT
ATOM      1  C   UNL     1       2.479   6.650  19.655  0.00  0.00    +0.000 A 
ATOM      2  C   UNL     1       3.145   6.620  18.488  0.00  0.00    +0.000 A 
ATOM      3  C   UNL     1       3.924   5.609  17.779  0.00  0.00    +0.000 A 
ATOM      4  C   UNL     1       4.212   4.273  17.991  0.00  0.00    +0.000 A 
ATOM      5  C   UNL     1       5.047   3.622  17.078  0.00  0.00    +0.000 A 
ATOM      6  C   UNL     1       5.549   4.298  15.954  0.00  0.00    +0.000 A 
ATOM      7  C   UNL     1       5.215   5.634  15.720  0.00  0.00    +0.000 A 
ATOM      8  C   UNL     1       4.402   6.279  16.636  0.00  0.00    +0.000 A 
ATOM      9  N   UNL     1       3.952   7.615  16.529  0.00  0.00    +0.000 NA
ATOM     10  C   UNL     1       3.215   7.786  17.597  0.00  0.00    +0.000 A 
ATOM     11  O   UNL     1       2.550   8.939  17.863  0.00  0.00    +0.000 OA
ATOM     12  C   UNL     1       1.817   8.993  19.060  0.00  0.00    +0.000 A 
ATOM     13  C   UNL     1       1.151  10.202  19.285  0.00  0.00    +0.000 A 
ATOM     14  C   UNL     1       0.429  10.382  20.459  0.00  0.00    +0.000 A 
ATOM     15  C   UNL     1       0.399   9.358  21.400  0.00  0.00    +0.000 A 
ATOM     16 BR   UNL     1      -0.559   9.604  23.013  0.00  0.00    +0.000 Br
ATOM     17  C   UNL     1       1.070   8.148  21.171  0.00  0.00    +0.000 A 
ATOM     18  C   UNL     1       1.776   7.927  19.975  0.00  0.00    +0.000 A 
ENDROOT
BRANCH   1  19
ATOM     19  N   UNL     1       2.373   5.577  20.541  0.00  0.00    +0.000 N 
ATOM     20  H   UNL     1       3.189   4.972  20.500  0.00  0.00    +0.000 HD
BRANCH  19  21
ATOM     21  C   UNL     1       1.149   4.771  20.620  0.00  0.00    +0.000 C 
BRANCH  21  22
ATOM     22  C   UNL     1       1.450   3.352  20.141  0.00  0.00    +0.000 C 
BRANCH  22  23
ATOM     23  C   UNL     1       1.791   2.426  21.298  0.00  0.00    +0.000 C 
BRANCH  23  24
ATOM     24  O   UNL     1       2.345   3.177  22.367  0.00  0.00    +0.000 OA
ATOM     25  H   UNL     1       1.812   2.987  23.159  0.00  0.00    +0.000 HD
ENDBRANCH  23  24
ENDBRANCH  22  23
ENDBRANCH  21  22
ENDBRANCH  19  21
ENDBRANCH   1  19
TORSDOF 5
ENDMDL
MODEL 2
REMARK VINA RESULT:      -7.3      0.940      1.020
REMARK  Name = 
REMARK  5 active torsions:
REMARK  status: ('A' for Active; 'I' for Inactive)
REMARK    1  A    between atoms: O_1  and  C_2
REMARK    2  A    between atoms: C_2  and  C_3
REMARK    3  A    between atoms: C_3  and  C_4
REMARK    4  A    between atoms: C_4  and  N_5
REMARK    5  A    between atoms: N_5  and  C_6
REMARK                            x       y       z     vdW  Elec       q    Type
REMARK                         _______ _______ _______ _____ _____    ______ ____
ROOT
ATOM      1  C   UNL     1       2.518   6.503  19.711  0.00  0.00    +0.000 A 
ATOM      2  C   UNL     1       3.200   6.443  18.555  0.00  0.00    +0.000 A 
ATOM      3  C   UNL     1       3.972   5.408  17.874  0.00  0.00    +0.000 A 
ATOM      4  C   UNL     1       4.236   4.071  18.113  0.00  0.00    +0.000 A 
ATOM      5  C   UNL     1       5.074   3.391  17.222  0.00  0.00    +0.000 A 
ATOM      6  C   UNL     1       5.602   4.040  16.095  0.00  0.00    +0.000 A 
ATOM      7  C   UNL     1       5.293   5.377  15.834  0.00  0.00    +0.000 A 
ATOM      8  C   UNL     1       4.477   6.050  16.726  0.00  0.00    +0.000 A 
ATOM      9  N   UNL     1       4.049   7.391  16.591  0.00  0.00    +0.000 NA
ATOM     10  C   UNL     1       3.301   7.593  17.645  0.00  0.00    +0.000 A 
ATOM     11  O   UNL     1       2.651   8.759  17.883  0.00  0.00    +0.000 OA
ATOM     12  C   UNL     1       1.902   8.846  19.068  0.00  0.00    +0.000 A 
ATOM     13  C   UNL     1       1.252  10.069  19.263  0.00  0.00    +0.000 A 
ATOM     14  C   UNL     1       0.516  10.280  20.423  0.00  0.00    +0.000 A 
ATOM     15  C   UNL     1       0.458   9.272  21.380  0.00  0.00    +0.000 A 
ATOM     16 BR   UNL     1      -0.519   9.562  22.975  0.00  0.00    +0.000 Br
ATOM     17  C   UNL     1       1.112   8.049  21.182  0.00  0.00    +0.000 A 
ATOM     18  C   UNL     1       1.831   7.796  20.000  0.00  0.00    +0.000 A 
ENDROOT
BRANCH   1  19
ATOM     19  N   UNL     1       2.383   5.447  20.614  0.00  0.00    +0.000 N 
ATOM     20  H   UNL     1       3.226   4.881  20.661  0.00  0.00    +0.000 HD
BRANCH  19  21
ATOM     21  C   UNL     1       1.195   4.585  20.607  0.00  0.00    +0.000 C 
BRANCH  21  22
ATOM     22  C   UNL     1       1.625   3.141  20.352  0.00  0.00    +0.000 C 
BRANCH  22  23
ATOM     23  C   UNL     1       0.965   2.567  19.108  0.00  0.00    +0.000 C 
BRANCH  23  24
ATOM     24  O   UNL     1       1.784   1.547  18.558  0.00  0.00    +0.000 OA
ATOM     25  H   UNL     1       2.368   1.967  17.903  0.00  0.00    +0.000 HD
ENDBRANCH  23  24
ENDBRANCH  22  23
ENDBRANCH  21  22
ENDBRANCH  19  21
ENDBRANCH   1  19
TORSDOF 5
ENDMDL
MODEL 3
REMARK VINA RESULT:      -6.8      1.185      1.205
REMARK  Name = 
REMARK  5 active torsions:
REMARK  status: ('A' for Active; 'I' for Inactive)
REMARK    1  A    between atoms: O_1  and  C_2
REMARK    2  A    between atoms: C_2  and  C_3
REMARK    3  A    between atoms: C_3  and  C_4
REMARK    4  A    between atoms: C_4  and  N_5
REMARK    5  A    between atoms: N_5  and  C_6
REMARK                            x       y       z     vdW  Elec       q    Type
REMARK                         _______ _______ _______ _____ _____    ______ ____
ROOT
ATOM      1  C   UNL     1       3.039   6.455  19.262  0.00  0.00    +0.000 A 
ATOM      2  C   UNL     1       3.657   6.465  18.069  0.00  0.00    +0.000 A 
ATOM      3  C   UNL     1       4.557   5.550  17.374  0.00  0.00    +0.000 A 
ATOM      4  C   UNL     1       5.058   4.288  17.636  0.00  0.00    +0.000 A 
ATOM      5  C   UNL     1       5.950   3.725  16.717  0.00  0.00    +0.000 A 
ATOM      6  C   UNL     1       6.298   4.409  15.541  0.00  0.00    +0.000 A 
ATOM      7  C   UNL     1       5.751   5.663  15.260  0.00  0.00    +0.000 A 
ATOM      8  C   UNL     1       4.882   6.224  16.180  0.00  0.00    +0.000 A 
ATOM      9  N   UNL     1       4.225   7.467  16.031  0.00  0.00    +0.000 NA
ATOM     10  C   UNL     1       3.511   7.580  17.122  0.00  0.00    +0.000 A 
ATOM     11  O   UNL     1       2.685   8.628  17.364  0.00  0.00    +0.000 OA
ATOM     12  C   UNL     1       1.997   8.633  18.589  0.00  0.00    +0.000 A 
ATOM     13  C   UNL     1       1.159   9.735  18.786  0.00  0.00    +0.000 A 
ATOM     14  C   UNL     1       0.462   9.865  19.982  0.00  0.00    +0.000 A 
ATOM     15  C   UNL     1       0.629   8.899  20.970  0.00  0.00    +0.000 A 
ATOM     16 BR   UNL     1      -0.296   9.081  22.611  0.00  0.00    +0.000 Br
ATOM     17  C   UNL     1       1.471   7.797  20.768  0.00  0.00    +0.000 A 
ATOM     18  C   UNL     1       2.157   7.623  19.554  0.00  0.00    +0.000 A 
ENDROOT
BRANCH   1  19
ATOM     19  N   UNL     1       3.135   5.427  20.202  0.00  0.00    +0.000 N 
ATOM     20  H   UNL     1       4.097   5.130  20.338  0.00  0.00    +0.000 HD
BRANCH  19  21
ATOM     21  C   UNL     1       2.248   4.260  20.148  0.00  0.00    +0.000 C 
BRANCH  21  22
ATOM     22  C   UNL     1       2.944   3.069  20.806  0.00  0.00    +0.000 C 
BRANCH  22  23
ATOM     23  C   UNL     1       3.600   2.160  19.779  0.00  0.00    +0.000 C 
BRANCH  23  24
ATOM     24  O   UNL     1       4.955   1.932  20.134  0.00  0.00    +0.000 OA
ATOM     25  H   UNL     1       5.426   1.674  19.323  0.00  0.00    +0.000 HD
ENDBRANCH  23  24
ENDBRANCH  22  23
ENDBRANCH  21  22
ENDBRANCH  19  21
ENDBRANCH   1  19
TORSDOF 5
ENDMDL
MODEL 4
REMARK VINA RESULT:      -6.7      2.529      5.568
REMARK  Name = 
REMARK  5 active torsions:
REMARK  status: ('A' for Active; 'I' for Inactive)
REMARK    1  A    between atoms: O_1  and  C_2
REMARK    2  A    between atoms: C_2  and  C_3
REMARK    3  A    between atoms: C_3  and  C_4
REMARK    4  A    between atoms: C_4  and  N_5
REMARK    5  A    between atoms: N_5  and  C_6
REMARK                            x       y       z     vdW  Elec       q    Type
REMARK                         _______ _______ _______ _____ _____    ______ ____
ROOT
ATOM      1  C   UNL     1       2.475   6.737  19.523  0.00  0.00    +0.000 A 
ATOM      2  C   UNL     1       1.907   7.952  19.608  0.00  0.00    +0.000 A 
ATOM      3  C   UNL     1       1.044   8.613  20.582  0.00  0.00    +0.000 A 
ATOM      4  C   UNL     1       0.543   8.280  21.827  0.00  0.00    +0.000 A 
ATOM      5  C   UNL     1      -0.305   9.190  22.466  0.00  0.00    +0.000 A 
ATOM      6  C   UNL     1      -0.609  10.427  21.875  0.00  0.00    +0.000 A 
ATOM      7  C   UNL     1      -0.061  10.777  20.639  0.00  0.00    +0.000 A 
ATOM      8  C   UNL     1       0.764   9.867  20.002  0.00  0.00    +0.000 A 
ATOM      9  N   UNL     1       1.417  10.080  18.766  0.00  0.00    +0.000 NA
ATOM     10  C   UNL     1       2.083   8.973  18.565  0.00  0.00    +0.000 A 
ATOM     11  O   UNL     1       2.890   8.775  17.492  0.00  0.00    +0.000 OA
ATOM     12  C   UNL     1       3.525   7.527  17.389  0.00  0.00    +0.000 A 
ATOM     13  C   UNL     1       4.345   7.377  16.265  0.00  0.00    +0.000 A 
ATOM     14  C   UNL     1       4.990   6.167  16.040  0.00  0.00    +0.000 A 
ATOM     15  C   UNL     1       4.791   5.118  16.932  0.00  0.00    +0.000 A 
ATOM     16 BR   UNL     1       5.644   3.458  16.618  0.00  0.00    +0.000 Br
ATOM     17  C   UNL     1       3.967   5.271  18.056  0.00  0.00    +0.000 A 
ATOM     18  C   UNL     1       3.333   6.497  18.326  0.00  0.00    +0.000 A 
ENDROOT
BRANCH   1  19
ATOM     19  N   UNL     1       2.348   5.728  20.479  0.00  0.00    +0.000 N 
ATOM     20  H   UNL     1       3.181   5.148  20.527  0.00  0.00    +0.000 HD
BRANCH  19  21
ATOM     21  C   UNL     1       1.144   4.892  20.551  0.00  0.00    +0.000 C 
BRANCH  21  22
ATOM     22  C   UNL     1       1.488   3.477  20.088  0.00  0.00    +0.000 C 
BRANCH  22  23
ATOM     23  C   UNL     1       2.676   2.908  20.848  0.00  0.00    +0.000 C 
BRANCH  23  24
ATOM     24  O   UNL     1       2.438   2.992  22.244  0.00  0.00    +0.000 OA
ATOM     25  H   UNL     1       1.576   2.575  22.416  0.00  0.00    +0.000 HD
ENDBRANCH  23  24
ENDBRANCH  22  23
ENDBRANCH  21  22
ENDBRANCH  19  21
ENDBRANCH   1  19
TORSDOF 5
ENDMDL
MODEL 5
REMARK VINA RESULT:      -6.6      3.751      6.461
REMARK  Name = 
REMARK  5 active torsions:
REMARK  status: ('A' for Active; 'I' for Inactive)
REMARK    1  A    between atoms: O_1  and  C_2
REMARK    2  A    between atoms: C_2  and  C_3
REMARK    3  A    between atoms: C_3  and  C_4
REMARK    4  A    between atoms: C_4  and  N_5
REMARK    5  A    between atoms: N_5  and  C_6
REMARK                            x       y       z     vdW  Elec       q    Type
REMARK                         _______ _______ _______ _____ _____    ______ ____
ROOT
ATOM      1  C   UNL     1      -0.577  11.237  19.632  0.00  0.00    +0.000 A 
ATOM      2  C   UNL     1       0.173  10.171  19.960  0.00  0.00    +0.000 A 
ATOM      3  C   UNL     1       1.069   9.284  19.224  0.00  0.00    +0.000 A 
ATOM      4  C   UNL     1       1.553   9.241  17.929  0.00  0.00    +0.000 A 
ATOM      5  C   UNL     1       2.397   8.185  17.571  0.00  0.00    +0.000 A 
ATOM      6  C   UNL     1       2.772   7.214  18.514  0.00  0.00    +0.000 A 
ATOM      7  C   UNL     1       2.318   7.290  19.833  0.00  0.00    +0.000 A 
ATOM      8  C   UNL     1       1.469   8.327  20.178  0.00  0.00    +0.000 A 
ATOM      9  N   UNL     1       0.947   8.560  21.471  0.00  0.00    +0.000 NA
ATOM     10  C   UNL     1       0.217   9.636  21.328  0.00  0.00    +0.000 A 
ATOM     11  O   UNL     1      -0.439  10.231  22.356  0.00  0.00    +0.000 OA
ATOM     12  C   UNL     1      -1.208  11.367  22.055  0.00  0.00    +0.000 A 
ATOM     13  C   UNL     1      -1.862  11.941  23.150  0.00  0.00    +0.000 A 
ATOM     14  C   UNL     1      -2.685  13.045  22.960  0.00  0.00    +0.000 A 
ATOM     15  C   UNL     1      -2.856  13.547  21.674  0.00  0.00    +0.000 A 
ATOM     16 BR   UNL     1      -3.996  15.034  21.403  0.00  0.00    +0.000 Br
ATOM     17  C   UNL     1      -2.200  12.968  20.579  0.00  0.00    +0.000 A 
ATOM     18  C   UNL     1      -1.333  11.875  20.750  0.00  0.00    +0.000 A 
ENDROOT
BRANCH   1  19
ATOM     19  N   UNL     1      -0.659  11.793  18.355  0.00  0.00    +0.000 N 
ATOM     20  H   UNL     1      -0.323  12.752  18.339  0.00  0.00    +0.000 HD
BRANCH  19  21
ATOM     21  C   UNL     1      -1.877  11.671  17.546  0.00  0.00    +0.000 C 
BRANCH  21  22
ATOM     22  C   UNL     1      -1.989  10.241  17.019  0.00  0.00    +0.000 C 
BRANCH  22  23
ATOM     23  C   UNL     1      -2.755  10.181  15.707  0.00  0.00    +0.000 C 
BRANCH  23  24
ATOM     24  O   UNL     1      -3.123  11.491  15.306  0.00  0.00    +0.000 OA
ATOM     25  H   UNL     1      -2.324  12.044  15.357  0.00  0.00    +0.000 HD
ENDBRANCH  23  24
ENDBRANCH  22  23
ENDBRANCH  21  22
ENDBRANCH  19  21
ENDBRANCH   1  19
TORSDOF 5
ENDMDL
MODEL 6
REMARK VINA RESULT:      -6.6      1.035      1.064
REMARK  Name = 
REMARK  5 active torsions:
REMARK  status: ('A' for Active; 'I' for Inactive)
REMARK    1  A    between atoms: O_1  and  C_2
REMARK    2  A    between atoms: C_2  and  C_3
REMARK    3  A    between atoms: C_3  and  C_4
REMARK    4  A    between atoms: C_4  and  N_5
REMARK    5  A    between atoms: N_5  and  C_6
REMARK                            x       y       z     vdW  Elec       q    Type
REMARK                         _______ _______ _______ _____ _____    ______ ____
ROOT
ATOM      1  C   UNL     1       3.090   6.451  19.146  0.00  0.00    +0.000 A 
ATOM      2  C   UNL     1       3.719   6.461  17.959  0.00  0.00    +0.000 A 
ATOM      3  C   UNL     1       4.615   5.539  17.267  0.00  0.00    +0.000 A 
ATOM      4  C   UNL     1       5.098   4.270  17.525  0.00  0.00    +0.000 A 
ATOM      5  C   UNL     1       5.992   3.702  16.611  0.00  0.00    +0.000 A 
ATOM      6  C   UNL     1       6.358   4.389  15.443  0.00  0.00    +0.000 A 
ATOM      7  C   UNL     1       5.829   5.651  15.165  0.00  0.00    +0.000 A 
ATOM      8  C   UNL     1       4.959   6.216  16.080  0.00  0.00    +0.000 A 
ATOM      9  N   UNL     1       4.318   7.468  15.932  0.00  0.00    +0.000 NA
ATOM     10  C   UNL     1       3.595   7.583  17.017  0.00  0.00    +0.000 A 
ATOM     11  O   UNL     1       2.779   8.640  17.258  0.00  0.00    +0.000 OA
ATOM     12  C   UNL     1       2.080   8.646  18.476  0.00  0.00    +0.000 A 
ATOM     13  C   UNL     1       1.254   9.757  18.673  0.00  0.00    +0.000 A 
ATOM     14  C   UNL     1       0.548   9.888  19.863  0.00  0.00    +0.000 A 
ATOM     15  C   UNL     1       0.693   8.915  20.846  0.00  0.00    +0.000 A 
ATOM     16 BR   UNL     1      -0.244   9.098  22.480  0.00  0.00    +0.000 Br
ATOM     17  C   UNL     1       1.524   7.803  20.646  0.00  0.00    +0.000 A 
ATOM     18  C   UNL     1       2.220   7.629  19.437  0.00  0.00    +0.000 A 
ENDROOT
BRANCH   1  19
ATOM     19  N   UNL     1       3.165   5.417  20.081  0.00  0.00    +0.000 N 
ATOM     20  H   UNL     1       4.096   5.337  20.480  0.00  0.00    +0.000 HD
BRANCH  19  21
ATOM     21  C   UNL     1       2.624   4.085  19.788  0.00  0.00    +0.000 C 
BRANCH  21  22
ATOM     22  C   UNL     1       2.776   3.199  21.024  0.00  0.00    +0.000 C 
BRANCH  22  23
ATOM     23  C   UNL     1       1.430   2.853  21.640  0.00  0.00    +0.000 C 
BRANCH  23  24
ATOM     24  O   UNL     1       0.419   2.903  20.645  0.00  0.00    +0.000 OA
ATOM     25  H   UNL     1       0.620   3.661  20.069  0.00  0.00    +0.000 HD
ENDBRANCH  23  24
ENDBRANCH  22  23
ENDBRANCH  21  22
ENDBRANCH  19  21
ENDBRANCH   1  19
TORSDOF 5
ENDMDL
MODEL 7
REMARK VINA RESULT:      -6.5      6.113      9.750
REMARK  Name = 
REMARK  5 active torsions:
REMARK  status: ('A' for Active; 'I' for Inactive)
REMARK    1  A    between atoms: O_1  and  C_2
REMARK    2  A    between atoms: C_2  and  C_3
REMARK    3  A    between atoms: C_3  and  C_4
REMARK    4  A    between atoms: C_4  and  N_5
REMARK    5  A    between atoms: N_5  and  C_6
REMARK                            x       y       z     vdW  Elec       q    Type
REMARK                         _______ _______ _______ _____ _____    ______ ____
ROOT
ATOM      1  C   UNL     1      -2.910  10.955  18.001  0.00  0.00    +0.000 A 
ATOM      2  C   UNL     1      -3.750  11.753  18.682  0.00  0.00    +0.000 A 
ATOM      3  C   UNL     1      -5.126  12.197  18.486  0.00  0.00    +0.000 A 
ATOM      4  C   UNL     1      -6.123  11.910  17.571  0.00  0.00    +0.000 A 
ATOM      5  C   UNL     1      -7.345  12.580  17.691  0.00  0.00    +0.000 A 
ATOM      6  C   UNL     1      -7.566  13.492  18.736  0.00  0.00    +0.000 A 
ATOM      7  C   UNL     1      -6.571  13.741  19.684  0.00  0.00    +0.000 A 
ATOM      8  C   UNL     1      -5.358  13.090  19.552  0.00  0.00    +0.000 A 
ATOM      9  N   UNL     1      -4.264  13.211  20.440  0.00  0.00    +0.000 NA
ATOM     10  C   UNL     1      -3.354  12.420  19.931  0.00  0.00    +0.000 A 
ATOM     11  O   UNL     1      -2.145  12.211  20.509  0.00  0.00    +0.000 OA
ATOM     12  C   UNL     1      -1.254  11.355  19.840  0.00  0.00    +0.000 A 
ATOM     13  C   UNL     1      -0.023  11.174  20.479  0.00  0.00    +0.000 A 
ATOM     14  C   UNL     1       0.951  10.381  19.883  0.00  0.00    +0.000 A 
ATOM     15  C   UNL     1       0.687   9.797  18.649  0.00  0.00    +0.000 A 
ATOM     16 BR   UNL     1       2.018   8.738  17.819  0.00  0.00    +0.000 Br
ATOM     17  C   UNL     1      -0.547   9.983  18.011  0.00  0.00    +0.000 A 
ATOM     18  C   UNL     1      -1.563  10.749  18.609  0.00  0.00    +0.000 A 
ENDROOT
BRANCH   1  19
ATOM     19  N   UNL     1      -3.226  10.292  16.814  0.00  0.00    +0.000 N 
ATOM     20  H   UNL     1      -2.768   9.386  16.755  0.00  0.00    +0.000 HD
BRANCH  19  21
ATOM     21  C   UNL     1      -3.162  10.977  15.518  0.00  0.00    +0.000 C 
BRANCH  21  22
ATOM     22  C   UNL     1      -2.879   9.951  14.421  0.00  0.00    +0.000 C 
BRANCH  22  23
ATOM     23  C   UNL     1      -3.945   9.977  13.336  0.00  0.00    +0.000 C 
BRANCH  23  24
ATOM     24  O   UNL     1      -3.365   9.637  12.086  0.00  0.00    +0.000 OA
ATOM     25  H   UNL     1      -2.912   8.783  12.201  0.00  0.00    +0.000 HD
ENDBRANCH  23  24
ENDBRANCH  22  23
ENDBRANCH  21  22
ENDBRANCH  19  21
ENDBRANCH   1  19
TORSDOF 5
ENDMDL
MODEL 8
REMARK VINA RESULT:      -6.5      2.934      6.319
REMARK  Name = 
REMARK  5 active torsions:
REMARK  status: ('A' for Active; 'I' for Inactive)
REMARK    1  A    between atoms: O_1  and  C_2
REMARK    2  A    between atoms: C_2  and  C_3
REMARK    3  A    between atoms: C_3  and  C_4
REMARK    4  A    between atoms: C_4  and  N_5
REMARK    5  A    between atoms: N_5  and  C_6
REMARK                            x       y       z     vdW  Elec       q    Type
REMARK                         _______ _______ _______ _____ _____    ______ ____
ROOT
ATOM      1  C   UNL     1       2.606   6.547  18.633  0.00  0.00    +0.000 A 
ATOM      2  C   UNL     1       2.004   7.542  19.307  0.00  0.00    +0.000 A 
ATOM      3  C   UNL     1       1.801   8.966  19.064  0.00  0.00    +0.000 A 
ATOM      4  C   UNL     1       2.076   9.827  18.017  0.00  0.00    +0.000 A 
ATOM      5  C   UNL     1       1.750  11.179  18.167  0.00  0.00    +0.000 A 
ATOM      6  C   UNL     1       1.126  11.643  19.336  0.00  0.00    +0.000 A 
ATOM      7  C   UNL     1       0.808  10.760  20.370  0.00  0.00    +0.000 A 
ATOM      8  C   UNL     1       1.147   9.426  20.225  0.00  0.00    +0.000 A 
ATOM      9  N   UNL     1       0.870   8.405  21.163  0.00  0.00    +0.000 NA
ATOM     10  C   UNL     1       1.356   7.325  20.609  0.00  0.00    +0.000 A 
ATOM     11  O   UNL     1       1.262   6.094  21.171  0.00  0.00    +0.000 OA
ATOM     12  C   UNL     1       1.852   5.025  20.477  0.00  0.00    +0.000 A 
ATOM     13  C   UNL     1       1.725   3.779  21.100  0.00  0.00    +0.000 A 
ATOM     14  C   UNL     1       2.308   2.657  20.522  0.00  0.00    +0.000 A 
ATOM     15  C   UNL     1       3.026   2.802  19.339  0.00  0.00    +0.000 A 
ATOM     16 BR   UNL     1       3.846   1.285  18.560  0.00  0.00    +0.000 Br
ATOM     17  C   UNL     1       3.152   4.052  18.719  0.00  0.00    +0.000 A 
ATOM     18  C   UNL     1       2.540   5.195  19.263  0.00  0.00    +0.000 A 
ENDROOT
BRANCH   1  19
ATOM     19  N   UNL     1       3.234   6.688  17.395  0.00  0.00    +0.000 N 
ATOM     20  H   UNL     1       2.987   5.934  16.759  0.00  0.00    +0.000 HD
BRANCH  19  21
ATOM     21  C   UNL     1       4.668   6.982  17.297  0.00  0.00    +0.000 C 
BRANCH  21  22
ATOM     22  C   UNL     1       5.247   6.261  16.080  0.00  0.00    +0.000 C 
BRANCH  22  23
ATOM     23  C   UNL     1       6.556   5.560  16.408  0.00  0.00    +0.000 C 
BRANCH  23  24
ATOM     24  O   UNL     1       7.411   5.584  15.276  0.00  0.00    +0.000 OA
ATOM     25  H   UNL     1       7.351   6.475  14.888  0.00  0.00    +0.000 HD
ENDBRANCH  23  24
ENDBRANCH  22  23
ENDBRANCH  21  22
ENDBRANCH  19  21
ENDBRANCH   1  19
TORSDOF 5
ENDMDL
MODEL 9
REMARK VINA RESULT:      -6.5      2.265      4.353
REMARK  Name = 
REMARK  5 active torsions:
REMARK  status: ('A' for Active; 'I' for Inactive)
REMARK    1  A    between atoms: O_1  and  C_2
REMARK    2  A    between atoms: C_2  and  C_3
REMARK    3  A    between atoms: C_3  and  C_4
REMARK    4  A    between atoms: C_4  and  N_5
REMARK    5  A    between atoms: N_5  and  C_6
REMARK                            x       y       z     vdW  Elec       q    Type
REMARK                         _______ _______ _______ _____ _____    ______ ____
ROOT
ATOM      1  C   UNL     1       2.621   6.806  18.432  0.00  0.00    +0.000 A 
ATOM      2  C   UNL     1       2.509   5.625  19.064  0.00  0.00    +0.000 A 
ATOM      3  C   UNL     1       2.947   4.263  18.774  0.00  0.00    +0.000 A 
ATOM      4  C   UNL     1       3.710   3.673  17.782  0.00  0.00    +0.000 A 
ATOM      5  C   UNL     1       3.895   2.287  17.824  0.00  0.00    +0.000 A 
ATOM      6  C   UNL     1       3.350   1.521  18.866  0.00  0.00    +0.000 A 
ATOM      7  C   UNL     1       2.621   2.129  19.890  0.00  0.00    +0.000 A 
ATOM      8  C   UNL     1       2.426   3.498  19.836  0.00  0.00    +0.000 A 
ATOM      9  N   UNL     1       1.739   4.265  20.806  0.00  0.00    +0.000 NA
ATOM     10  C   UNL     1       1.813   5.489  20.351  0.00  0.00    +0.000 A 
ATOM     11  O   UNL     1       1.306   6.559  21.013  0.00  0.00    +0.000 OA
ATOM     12  C   UNL     1       1.433   7.815  20.396  0.00  0.00    +0.000 A 
ATOM     13  C   UNL     1       0.895   8.882  21.121  0.00  0.00    +0.000 A 
ATOM     14  C   UNL     1       0.927  10.164  20.585  0.00  0.00    +0.000 A 
ATOM     15  C   UNL     1       1.481  10.356  19.323  0.00  0.00    +0.000 A 
ATOM     16 BR   UNL     1       1.506  12.094  18.575  0.00  0.00    +0.000 Br
ATOM     17  C   UNL     1       2.018   9.283  18.599  0.00  0.00    +0.000 A 
ATOM     18  C   UNL     1       2.032   7.983  19.135  0.00  0.00    +0.000 A 
ENDROOT
BRANCH   1  19
ATOM     19  N   UNL     1       3.271   7.000  17.212  0.00  0.00    +0.000 N 
ATOM     20  H   UNL     1       2.928   6.364  16.497  0.00  0.00    +0.000 HD
BRANCH  19  21
ATOM     21  C   UNL     1       4.732   7.107  17.136  0.00  0.00    +0.000 C 
BRANCH  21  22
ATOM     22  C   UNL     1       5.239   6.253  15.974  0.00  0.00    +0.000 C 
BRANCH  22  23
ATOM     23  C   UNL     1       6.534   5.537  16.322  0.00  0.00    +0.000 C 
BRANCH  23  24
ATOM     24  O   UNL     1       7.386   5.507  15.187  0.00  0.00    +0.000 OA
ATOM     25  H   UNL     1       8.028   4.789  15.327  0.00  0.00    +0.000 HD
ENDBRANCH  23  24
ENDBRANCH  22  23
ENDBRANCH  21  22
ENDBRANCH  19  21
ENDBRANCH   1  19
TORSDOF 5
ENDMDL
