MODEL 1
REMARK VINA RESULT:      -7.8      0.000      0.000
REMARK  Name = 
REMARK  10 active torsions:
REMARK  status: ('A' for Active; 'I' for Inactive)
REMARK    1  A    between atoms: C_1  and  C_2
REMARK    2  A    between atoms: C_2  and  C_4
REMARK    3  A    between atoms: C_5  and  C_6
REMARK    4  A    between atoms: N_8  and  C_9
REMARK    5  A    between atoms: C_9  and  C_10
REMARK    6  A    between atoms: C_10  and  O_11
REMARK    7  A    between atoms: C_10  and  C_12
REMARK    8  A    between atoms: C_12  and  N_13
REMARK    9  A    between atoms: C_18  and  C_19
REMARK   10  A    between atoms: C_28  and  C_29
REMARK                            x       y       z     vdW  Elec       q    Type
REMARK                         _______ _______ _______ _____ _____    ______ ____
ROOT
ATOM      1  C   UNL     1       4.133   6.657  17.138  0.00  0.00    +0.000 C 
ENDROOT
BRANCH   1   2
ATOM      2  N   UNL     1       2.934   6.697  17.978  0.00  0.00    +0.000 N 
ATOM      3  C   UNL     1       2.369   7.726  18.742  0.00  0.00    +0.000 A 
ATOM      4  C   UNL     1       1.891   7.132  19.903  0.00  0.00    +0.000 A 
ATOM      5  C   UNL     1       2.219   5.776  19.881  0.00  0.00    +0.000 A 
ATOM      6  C   UNL     1       2.208   4.762  20.836  0.00  0.00    +0.000 A 
ATOM      7  C   UNL     1       2.471   3.476  20.367  0.00  0.00    +0.000 A 
ATOM      8  C   UNL     1       3.300   2.561  21.210  0.00  0.00    +0.000 C 
ATOM      9  C   UNL     1       2.301   3.176  19.018  0.00  0.00    +0.000 A 
ATOM     10  C   UNL     1       2.414   4.189  18.071  0.00  0.00    +0.000 A 
ATOM     11  C   UNL     1       2.500   5.496  18.555  0.00  0.00    +0.000 A 
ATOM     12  C   UNL     1       1.079   7.761  20.964  0.00  0.00    +0.000 C 
ATOM     13  C   UNL     1       0.551   9.126  20.563  0.00  0.00    +0.000 C 
ATOM     14  C   UNL     1       1.352   9.908  19.506  0.00  0.00    +0.000 C 
ATOM     15  C   UNL     1       2.206   9.131  18.474  0.00  0.00    +0.000 C 
ATOM     16  O   UNL     1       2.725   9.692  17.532  0.00  0.00    +0.000 OA
ENDBRANCH   1   2
BRANCH   1  17
ATOM     17  C   UNL     1       5.575   6.403  17.618  0.00  0.00    +0.000 C 
BRANCH  17  18
ATOM     18  O   UNL     1       6.384   7.570  17.412  0.00  0.00    +0.000 OA
ATOM     19  H   UNL     1       7.294   7.357  17.717  0.00  0.00    +0.000 HD
ENDBRANCH  17  18
BRANCH  17  20
ATOM     20  C   UNL     1       6.306   5.151  17.130  0.00  0.00    +0.000 C 
BRANCH  20  25
ATOM     21  C   UNL     1       6.293   4.122  13.633  0.00  0.00    +0.000 A 
ATOM     22  C   UNL     1       7.316   5.101  13.793  0.00  0.00    +0.000 A 
ATOM     23  C   UNL     1       8.312   5.591  12.803  0.00  0.00    +0.000 C 
ATOM     24  N   UNL     1       7.317   5.623  15.017  0.00  0.00    +0.000 NA
ATOM     25  N   UNL     1       6.360   4.957  15.688  0.00  0.00    +0.000 N 
ATOM     26  C   UNL     1       5.675   4.068  14.878  0.00  0.00    +0.000 A 
ATOM     27  C   UNL     1       4.564   3.189  15.347  0.00  0.00    +0.000 C 
BRANCH  21  29
ATOM     28  C   UNL     1       4.655   3.372  11.800  0.00  0.00    +0.000 C 
ATOM     29  C   UNL     1       6.021   3.338  12.431  0.00  0.00    +0.000 C 
ATOM     30  O   UNL     1       6.901   2.645  11.898  0.00  0.00    +0.000 OA
ENDBRANCH  21  29
ENDBRANCH  20  25
ENDBRANCH  17  20
ENDBRANCH   1  17
TORSDOF 6
ENDMDL
MODEL 2
REMARK VINA RESULT:      -7.7      4.083      7.105
REMARK  Name = 
REMARK  10 active torsions:
REMARK  status: ('A' for Active; 'I' for Inactive)
REMARK    1  A    between atoms: C_1  and  C_2
REMARK    2  A    between atoms: C_2  and  C_4
REMARK    3  A    between atoms: C_5  and  C_6
REMARK    4  A    between atoms: N_8  and  C_9
REMARK    5  A    between atoms: C_9  and  C_10
REMARK    6  A    between atoms: C_10  and  O_11
REMARK    7  A    between atoms: C_10  and  C_12
REMARK    8  A    between atoms: C_12  and  N_13
REMARK    9  A    between atoms: C_18  and  C_19
REMARK   10  A    between atoms: C_28  and  C_29
REMARK                            x       y       z     vdW  Elec       q    Type
REMARK                         _______ _______ _______ _____ _____    ______ ____
ROOT
ATOM      1  C   UNL     1      -0.331   8.613  20.917  0.00  0.00    +0.000 C 
ENDROOT
BRANCH   1   2
ATOM      2  N   UNL     1      -0.556  10.016  20.563  0.00  0.00    +0.000 N 
ATOM      3  C   UNL     1      -1.015  11.103  21.318  0.00  0.00    +0.000 A 
ATOM      4  C   UNL     1      -1.833  11.846  20.476  0.00  0.00    +0.000 A 
ATOM      5  C   UNL     1      -1.928  11.188  19.250  0.00  0.00    +0.000 A 
ATOM      6  C   UNL     1      -2.758  11.326  18.139  0.00  0.00    +0.000 A 
ATOM      7  C   UNL     1      -2.424  10.557  17.026  0.00  0.00    +0.000 A 
ATOM      8  C   UNL     1      -3.526   9.946  16.220  0.00  0.00    +0.000 C 
ATOM      9  C   UNL     1      -1.133  10.057  16.883  0.00  0.00    +0.000 A 
ATOM     10  C   UNL     1      -0.355   9.834  18.015  0.00  0.00    +0.000 A 
ATOM     11  C   UNL     1      -0.856  10.312  19.227  0.00  0.00    +0.000 A 
ATOM     12  C   UNL     1      -2.441  13.164  20.749  0.00  0.00    +0.000 C 
ATOM     13  C   UNL     1      -1.878  13.819  21.996  0.00  0.00    +0.000 C 
ATOM     14  C   UNL     1      -1.300  12.890  23.079  0.00  0.00    +0.000 C 
ATOM     15  C   UNL     1      -0.734  11.509  22.671  0.00  0.00    +0.000 C 
ATOM     16  O   UNL     1      -0.130  10.813  23.460  0.00  0.00    +0.000 OA
ENDBRANCH   1   2
BRANCH   1  17
ATOM     17  C   UNL     1       1.027   7.961  21.241  0.00  0.00    +0.000 C 
BRANCH  17  18
ATOM     18  O   UNL     1       1.801   8.814  22.097  0.00  0.00    +0.000 OA
ATOM     19  H   UNL     1       1.599   9.743  21.849  0.00  0.00    +0.000 HD
ENDBRANCH  17  18
BRANCH  17  20
ATOM     20  C   UNL     1       1.888   7.437  20.089  0.00  0.00    +0.000 C 
BRANCH  20  25
ATOM     21  C   UNL     1       3.171   4.036  19.818  0.00  0.00    +0.000 A 
ATOM     22  C   UNL     1       2.106   4.023  20.764  0.00  0.00    +0.000 A 
ATOM     23  C   UNL     1       1.493   2.869  21.474  0.00  0.00    +0.000 C 
ATOM     24  N   UNL     1       1.652   5.248  21.017  0.00  0.00    +0.000 NA
ATOM     25  N   UNL     1       2.349   6.061  20.204  0.00  0.00    +0.000 N 
ATOM     26  C   UNL     1       3.319   5.380  19.489  0.00  0.00    +0.000 A 
ATOM     27  C   UNL     1       4.242   6.019  18.507  0.00  0.00    +0.000 C 
BRANCH  21  29
ATOM     28  C   UNL     1       3.370   2.151  18.081  0.00  0.00    +0.000 C 
ATOM     29  C   UNL     1       3.885   2.873  19.298  0.00  0.00    +0.000 C 
ATOM     30  O   UNL     1       4.929   2.464  19.829  0.00  0.00    +0.000 OA
ENDBRANCH  21  29
ENDBRANCH  20  25
ENDBRANCH  17  20
ENDBRANCH   1  17
TORSDOF 6
ENDMDL
MODEL 3
REMARK VINA RESULT:      -7.6      3.842      7.111
REMARK  Name = 
REMARK  10 active torsions:
REMARK  status: ('A' for Active; 'I' for Inactive)
REMARK    1  A    between atoms: C_1  and  C_2
REMARK    2  A    between atoms: C_2  and  C_4
REMARK    3  A    between atoms: C_5  and  C_6
REMARK    4  A    between atoms: N_8  and  C_9
REMARK    5  A    between atoms: C_9  and  C_10
REMARK    6  A    between atoms: C_10  and  O_11
REMARK    7  A    between atoms: C_10  and  C_12
REMARK    8  A    between atoms: C_12  and  N_13
REMARK    9  A    between atoms: C_18  and  C_19
REMARK   10  A    between atoms: C_28  and  C_29
REMARK                            x       y       z     vdW  Elec       q    Type
REMARK                         _______ _______ _______ _____ _____    ______ ____
ROOT
ATOM      1  C   UNL     1      -0.322   9.475  20.818  0.00  0.00    +0.000 C 
ENDROOT
BRANCH   1   2
ATOM      2  N   UNL     1      -0.369  10.598  19.879  0.00  0.00    +0.000 N 
ATOM      3  C   UNL     1       0.043  11.931  20.002  0.00  0.00    +0.000 A 
ATOM      4  C   UNL     1      -0.909  12.697  19.343  0.00  0.00    +0.000 A 
ATOM      5  C   UNL     1      -1.922  11.854  18.883  0.00  0.00    +0.000 A 
ATOM      6  C   UNL     1      -3.203  12.066  18.377  0.00  0.00    +0.000 A 
ATOM      7  C   UNL     1      -3.858  10.943  17.877  0.00  0.00    +0.000 A 
ATOM      8  C   UNL     1      -5.325  10.799  18.122  0.00  0.00    +0.000 C 
ATOM      9  C   UNL     1      -3.128   9.819  17.499  0.00  0.00    +0.000 A 
ATOM     10  C   UNL     1      -1.892   9.574  18.090  0.00  0.00    +0.000 A 
ATOM     11  C   UNL     1      -1.368  10.586  18.896  0.00  0.00    +0.000 A 
ATOM     12  C   UNL     1      -0.857  14.145  19.059  0.00  0.00    +0.000 C 
ATOM     13  C   UNL     1       0.509  14.744  19.333  0.00  0.00    +0.000 C 
ATOM     14  C   UNL     1       1.395  14.032  20.371  0.00  0.00    +0.000 C 
ATOM     15  C   UNL     1       1.210  12.514  20.611  0.00  0.00    +0.000 C 
ATOM     16  O   UNL     1       1.985  11.883  21.299  0.00  0.00    +0.000 OA
ENDBRANCH   1   2
BRANCH   1  17
ATOM     17  C   UNL     1       0.885   8.553  21.075  0.00  0.00    +0.000 C 
BRANCH  17  18
ATOM     18  O   UNL     1       1.663   9.042  22.177  0.00  0.00    +0.000 OA
ATOM     19  H   UNL     1       1.089   9.644  22.700  0.00  0.00    +0.000 HD
ENDBRANCH  17  18
BRANCH  17  20
ATOM     20  C   UNL     1       1.794   8.180  19.902  0.00  0.00    +0.000 C 
BRANCH  20  25
ATOM     21  C   UNL     1       2.868   4.777  19.163  0.00  0.00    +0.000 A 
ATOM     22  C   UNL     1       2.045   4.728  20.325  0.00  0.00    +0.000 A 
ATOM     23  C   UNL     1       1.570   3.547  21.092  0.00  0.00    +0.000 C 
ATOM     24  N   UNL     1       1.701   5.945  20.740  0.00  0.00    +0.000 NA
ATOM     25  N   UNL     1       2.223   6.792  19.834  0.00  0.00    +0.000 N 
ATOM     26  C   UNL     1       2.983   6.135  18.882  0.00  0.00    +0.000 A 
ATOM     27  C   UNL     1       3.681   6.813  17.751  0.00  0.00    +0.000 C 
BRANCH  21  29
ATOM     28  C   UNL     1       2.588   2.968  17.358  0.00  0.00    +0.000 C 
ATOM     29  C   UNL     1       3.407   3.633  18.432  0.00  0.00    +0.000 C 
ATOM     30  O   UNL     1       4.543   3.194  18.664  0.00  0.00    +0.000 OA
ENDBRANCH  21  29
ENDBRANCH  20  25
ENDBRANCH  17  20
ENDBRANCH   1  17
TORSDOF 6
ENDMDL
MODEL 4
REMARK VINA RESULT:      -7.5      3.660      7.135
REMARK  Name = 
REMARK  10 active torsions:
REMARK  status: ('A' for Active; 'I' for Inactive)
REMARK    1  A    between atoms: C_1  and  C_2
REMARK    2  A    between atoms: C_2  and  C_4
REMARK    3  A    between atoms: C_5  and  C_6
REMARK    4  A    between atoms: N_8  and  C_9
REMARK    5  A    between atoms: C_9  and  C_10
REMARK    6  A    between atoms: C_10  and  O_11
REMARK    7  A    between atoms: C_10  and  C_12
REMARK    8  A    between atoms: C_12  and  N_13
REMARK    9  A    between atoms: C_18  and  C_19
REMARK   10  A    between atoms: C_28  and  C_29
REMARK                            x       y       z     vdW  Elec       q    Type
REMARK                         _______ _______ _______ _____ _____    ______ ____
ROOT
ATOM      1  C   UNL     1       0.719  11.023  19.103  0.00  0.00    +0.000 C 
ENDROOT
BRANCH   1   2
ATOM      2  N   UNL     1      -0.703  10.983  19.452  0.00  0.00    +0.000 N 
ATOM      3  C   UNL     1      -1.856  10.965  18.656  0.00  0.00    +0.000 A 
ATOM      4  C   UNL     1      -2.791  11.760  19.306  0.00  0.00    +0.000 A 
ATOM      5  C   UNL     1      -2.198  12.310  20.444  0.00  0.00    +0.000 A 
ATOM      6  C   UNL     1      -2.556  13.328  21.325  0.00  0.00    +0.000 A 
ATOM      7  C   UNL     1      -1.748  13.475  22.451  0.00  0.00    +0.000 A 
ATOM      8  C   UNL     1      -1.440  14.855  22.938  0.00  0.00    +0.000 C 
ATOM      9  C   UNL     1      -0.950  12.419  22.881  0.00  0.00    +0.000 A 
ATOM     10  C   UNL     1      -0.523  11.464  21.963  0.00  0.00    +0.000 A 
ATOM     11  C   UNL     1      -1.088  11.521  20.687  0.00  0.00    +0.000 A 
ATOM     12  C   UNL     1      -4.213  11.945  18.952  0.00  0.00    +0.000 C 
ATOM     13  C   UNL     1      -4.688  10.952  17.908  0.00  0.00    +0.000 C 
ATOM     14  C   UNL     1      -3.627  10.368  16.958  0.00  0.00    +0.000 C 
ATOM     15  C   UNL     1      -2.156  10.271  17.431  0.00  0.00    +0.000 C 
ATOM     16  O   UNL     1      -1.320   9.678  16.782  0.00  0.00    +0.000 OA
ENDBRANCH   1   2
BRANCH   1  17
ATOM     17  C   UNL     1       1.576   9.833  18.631  0.00  0.00    +0.000 C 
BRANCH  17  18
ATOM     18  O   UNL     1       1.336   9.561  17.243  0.00  0.00    +0.000 OA
ATOM     19  H   UNL     1       1.724  10.300  16.725  0.00  0.00    +0.000 HD
ENDBRANCH  17  18
BRANCH  17  20
ATOM     20  C   UNL     1       1.549   8.536  19.444  0.00  0.00    +0.000 C 
BRANCH  20  25
ATOM     21  C   UNL     1       3.614   5.622  18.719  0.00  0.00    +0.000 A 
ATOM     22  C   UNL     1       3.977   6.649  17.800  0.00  0.00    +0.000 A 
ATOM     23  C   UNL     1       5.058   6.659  16.779  0.00  0.00    +0.000 C 
ATOM     24  N   UNL     1       3.190   7.717  17.913  0.00  0.00    +0.000 NA
ATOM     25  N   UNL     1       2.360   7.440  18.935  0.00  0.00    +0.000 N 
ATOM     26  C   UNL     1       2.544   6.160  19.427  0.00  0.00    +0.000 A 
ATOM     27  C   UNL     1       1.770   5.577  20.562  0.00  0.00    +0.000 C 
BRANCH  21  29
ATOM     28  C   UNL     1       3.604   3.072  18.397  0.00  0.00    +0.000 C 
ATOM     29  C   UNL     1       4.275   4.330  18.881  0.00  0.00    +0.000 C 
ATOM     30  O   UNL     1       5.396   4.237  19.402  0.00  0.00    +0.000 OA
ENDBRANCH  21  29
ENDBRANCH  20  25
ENDBRANCH  17  20
ENDBRANCH   1  17
TORSDOF 6
ENDMDL
MODEL 5
REMARK VINA RESULT:      -7.3      3.558      8.543
REMARK  Name = 
REMARK  10 active torsions:
REMARK  status: ('A' for Active; 'I' for Inactive)
REMARK    1  A    between atoms: C_1  and  C_2
REMARK    2  A    between atoms: C_2  and  C_4
REMARK    3  A    between atoms: C_5  and  C_6
REMARK    4  A    between atoms: N_8  and  C_9
REMARK    5  A    between atoms: C_9  and  C_10
REMARK    6  A    between atoms: C_10  and  O_11
REMARK    7  A    between atoms: C_10  and  C_12
REMARK    8  A    between atoms: C_12  and  N_13
REMARK    9  A    between atoms: C_18  and  C_19
REMARK   10  A    between atoms: C_28  and  C_29
REMARK                            x       y       z     vdW  Elec       q    Type
REMARK                         _______ _______ _______ _____ _____    ______ ____
ROOT
ATOM      1  C   UNL     1       2.857   6.907  19.940  0.00  0.00    +0.000 C 
ENDROOT
BRANCH   1   2
ATOM      2  N   UNL     1       2.677   5.869  18.923  0.00  0.00    +0.000 N 
ATOM      3  C   UNL     1       2.229   4.544  19.015  0.00  0.00    +0.000 A 
ATOM      4  C   UNL     1       3.007   3.807  18.132  0.00  0.00    +0.000 A 
ATOM      5  C   UNL     1       3.960   4.651  17.562  0.00  0.00    +0.000 A 
ATOM      6  C   UNL     1       5.115   4.439  16.813  0.00  0.00    +0.000 A 
ATOM      7  C   UNL     1       5.724   5.579  16.290  0.00  0.00    +0.000 A 
ATOM      8  C   UNL     1       7.217   5.651  16.271  0.00  0.00    +0.000 C 
ATOM      9  C   UNL     1       4.994   6.756  16.143  0.00  0.00    +0.000 A 
ATOM     10  C   UNL     1       3.900   6.991  16.970  0.00  0.00    +0.000 A 
ATOM     11  C   UNL     1       3.480   5.932  17.777  0.00  0.00    +0.000 A 
ATOM     12  C   UNL     1       2.832   2.391  17.750  0.00  0.00    +0.000 C 
ATOM     13  C   UNL     1       1.510   1.818  18.223  0.00  0.00    +0.000 C 
ATOM     14  C   UNL     1       0.863   2.468  19.460  0.00  0.00    +0.000 C 
ATOM     15  C   UNL     1       1.164   3.952  19.781  0.00  0.00    +0.000 C 
ATOM     16  O   UNL     1       0.559   4.547  20.648  0.00  0.00    +0.000 OA
ENDBRANCH   1   2
BRANCH   1  17
ATOM     17  C   UNL     1       1.799   7.931  20.394  0.00  0.00    +0.000 C 
BRANCH  17  18
ATOM     18  O   UNL     1       0.743   7.277  21.112  0.00  0.00    +0.000 OA
ATOM     19  H   UNL     1       0.538   6.440  20.639  0.00  0.00    +0.000 HD
ENDBRANCH  17  18
BRANCH  17  20
ATOM     20  C   UNL     1       1.223   8.903  19.362  0.00  0.00    +0.000 C 
BRANCH  20  25
ATOM     21  C   UNL     1      -1.311  11.433  20.041  0.00  0.00    +0.000 A 
ATOM     22  C   UNL     1      -0.625  11.170  21.262  0.00  0.00    +0.000 A 
ATOM     23  C   UNL     1      -0.770  11.832  22.585  0.00  0.00    +0.000 C 
ATOM     24  N   UNL     1       0.244  10.169  21.136  0.00  0.00    +0.000 NA
ATOM     25  N   UNL     1       0.193   9.814  19.839  0.00  0.00    +0.000 N 
ATOM     26  C   UNL     1      -0.772  10.520  19.142  0.00  0.00    +0.000 A 
ATOM     27  C   UNL     1      -1.054  10.343  17.687  0.00  0.00    +0.000 C 
BRANCH  21  29
ATOM     28  C   UNL     1      -3.715  12.096  19.417  0.00  0.00    +0.000 C 
ATOM     29  C   UNL     1      -2.313  12.472  19.816  0.00  0.00    +0.000 C 
ATOM     30  O   UNL     1      -2.043  13.674  19.958  0.00  0.00    +0.000 OA
ENDBRANCH  21  29
ENDBRANCH  20  25
ENDBRANCH  17  20
ENDBRANCH   1  17
TORSDOF 6
ENDMDL
MODEL 6
REMARK VINA RESULT:      -7.3      3.418      8.512
REMARK  Name = 
REMARK  10 active torsions:
REMARK  status: ('A' for Active; 'I' for Inactive)
REMARK    1  A    between atoms: C_1  and  C_2
REMARK    2  A    between atoms: C_2  and  C_4
REMARK    3  A    between atoms: C_5  and  C_6
REMARK    4  A    between atoms: N_8  and  C_9
REMARK    5  A    between atoms: C_9  and  C_10
REMARK    6  A    between atoms: C_10  and  O_11
REMARK    7  A    between atoms: C_10  and  C_12
REMARK    8  A    between atoms: C_12  and  N_13
REMARK    9  A    between atoms: C_18  and  C_19
REMARK   10  A    between atoms: C_28  and  C_29
REMARK                            x       y       z     vdW  Elec       q    Type
REMARK                         _______ _______ _______ _____ _____    ______ ____
ROOT
ATOM      1  C   UNL     1       3.187   6.766  19.760  0.00  0.00    +0.000 C 
ENDROOT
BRANCH   1   2
ATOM      2  N   UNL     1       2.870   5.726  18.778  0.00  0.00    +0.000 N 
ATOM      3  C   UNL     1       2.317   4.446  18.925  0.00  0.00    +0.000 A 
ATOM      4  C   UNL     1       2.985   3.628  18.024  0.00  0.00    +0.000 A 
ATOM      5  C   UNL     1       3.976   4.376  17.387  0.00  0.00    +0.000 A 
ATOM      6  C   UNL     1       5.070   4.052  16.588  0.00  0.00    +0.000 A 
ATOM      7  C   UNL     1       5.744   5.125  16.009  0.00  0.00    +0.000 A 
ATOM      8  C   UNL     1       7.236   5.070  15.915  0.00  0.00    +0.000 C 
ATOM      9  C   UNL     1       5.109   6.356  15.868  0.00  0.00    +0.000 A 
ATOM     10  C   UNL     1       4.082   6.700  16.741  0.00  0.00    +0.000 A 
ATOM     11  C   UNL     1       3.617   5.697  17.593  0.00  0.00    +0.000 A 
ATOM     12  C   UNL     1       2.674   2.224  17.685  0.00  0.00    +0.000 C 
ATOM     13  C   UNL     1       1.334   1.775  18.236  0.00  0.00    +0.000 C 
ATOM     14  C   UNL     1       0.807   2.502  19.486  0.00  0.00    +0.000 C 
ATOM     15  C   UNL     1       1.246   3.962  19.756  0.00  0.00    +0.000 C 
ATOM     16  O   UNL     1       0.738   4.624  20.636  0.00  0.00    +0.000 OA
ENDBRANCH   1   2
BRANCH   1  17
ATOM     17  C   UNL     1       2.199   7.785  20.358  0.00  0.00    +0.000 C 
BRANCH  17  18
ATOM     18  O   UNL     1       1.320   7.142  21.293  0.00  0.00    +0.000 OA
ATOM     19  H   UNL     1       0.473   7.640  21.292  0.00  0.00    +0.000 HD
ENDBRANCH  17  18
BRANCH  17  20
ATOM     20  C   UNL     1       1.406   8.688  19.411  0.00  0.00    +0.000 C 
BRANCH  20  25
ATOM     21  C   UNL     1       0.296  11.876  20.785  0.00  0.00    +0.000 A 
ATOM     22  C   UNL     1      -0.266  10.841  21.586  0.00  0.00    +0.000 A 
ATOM     23  C   UNL     1      -1.073  10.948  22.830  0.00  0.00    +0.000 C 
ATOM     24  N   UNL     1      -0.010   9.634  21.087  0.00  0.00    +0.000 NA
ATOM     25  N   UNL     1       0.769   9.851  20.012  0.00  0.00    +0.000 N 
ATOM     26  C   UNL     1       0.944  11.199  19.756  0.00  0.00    +0.000 A 
ATOM     27  C   UNL     1       1.761  11.742  18.632  0.00  0.00    +0.000 C 
BRANCH  21  29
ATOM     28  C   UNL     1      -0.827  14.153  20.377  0.00  0.00    +0.000 C 
ATOM     29  C   UNL     1       0.227  13.312  21.047  0.00  0.00    +0.000 C 
ATOM     30  O   UNL     1       1.015  13.866  21.829  0.00  0.00    +0.000 OA
ENDBRANCH  21  29
ENDBRANCH  20  25
ENDBRANCH  17  20
ENDBRANCH   1  17
TORSDOF 6
ENDMDL
MODEL 7
REMARK VINA RESULT:      -7.3      3.909      8.642
REMARK  Name = 
REMARK  10 active torsions:
REMARK  status: ('A' for Active; 'I' for Inactive)
REMARK    1  A    between atoms: C_1  and  C_2
REMARK    2  A    between atoms: C_2  and  C_4
REMARK    3  A    between atoms: C_5  and  C_6
REMARK    4  A    between atoms: N_8  and  C_9
REMARK    5  A    between atoms: C_9  and  C_10
REMARK    6  A    between atoms: C_10  and  O_11
REMARK    7  A    between atoms: C_10  and  C_12
REMARK    8  A    between atoms: C_12  and  N_13
REMARK    9  A    between atoms: C_18  and  C_19
REMARK   10  A    between atoms: C_28  and  C_29
REMARK                            x       y       z     vdW  Elec       q    Type
REMARK                         _______ _______ _______ _____ _____    ______ ____
ROOT
ATOM      1  C   UNL     1       2.142   7.376  19.385  0.00  0.00    +0.000 C 
ENDROOT
BRANCH   1   2
ATOM      2  N   UNL     1       2.754   6.102  19.000  0.00  0.00    +0.000 N 
ATOM      3  C   UNL     1       2.716   4.835  19.596  0.00  0.00    +0.000 A 
ATOM      4  C   UNL     1       3.986   4.294  19.445  0.00  0.00    +0.000 A 
ATOM      5  C   UNL     1       4.806   5.241  18.830  0.00  0.00    +0.000 A 
ATOM      6  C   UNL     1       6.182   5.352  18.639  0.00  0.00    +0.000 A 
ATOM      7  C   UNL     1       6.604   6.399  17.822  0.00  0.00    +0.000 A 
ATOM      8  C   UNL     1       7.849   7.139  18.191  0.00  0.00    +0.000 C 
ATOM      9  C   UNL     1       5.718   6.984  16.922  0.00  0.00    +0.000 A 
ATOM     10  C   UNL     1       4.352   6.947  17.182  0.00  0.00    +0.000 A 
ATOM     11  C   UNL     1       3.935   6.146  18.248  0.00  0.00    +0.000 A 
ATOM     12  C   UNL     1       4.421   2.921  19.771  0.00  0.00    +0.000 C 
ATOM     13  C   UNL     1       3.257   1.996  20.070  0.00  0.00    +0.000 C 
ATOM     14  C   UNL     1       1.961   2.641  20.593  0.00  0.00    +0.000 C 
ATOM     15  C   UNL     1       1.640   4.108  20.219  0.00  0.00    +0.000 C 
ATOM     16  O   UNL     1       0.564   4.606  20.475  0.00  0.00    +0.000 OA
ENDBRANCH   1   2
BRANCH   1  17
ATOM     17  C   UNL     1       1.734   7.798  20.809  0.00  0.00    +0.000 C 
BRANCH  17  18
ATOM     18  O   UNL     1       0.427   7.297  21.125  0.00  0.00    +0.000 OA
ATOM     19  H   UNL     1      -0.109   8.053  21.451  0.00  0.00    +0.000 HD
ENDBRANCH  17  18
BRANCH  17  20
ATOM     20  C   UNL     1       1.852   9.272  21.205  0.00  0.00    +0.000 C 
BRANCH  20  25
ATOM     21  C   UNL     1      -0.972  11.505  20.636  0.00  0.00    +0.000 A 
ATOM     22  C   UNL     1      -0.897  11.250  22.036  0.00  0.00    +0.000 A 
ATOM     23  C   UNL     1      -1.705  11.828  23.142  0.00  0.00    +0.000 C 
ATOM     24  N   UNL     1       0.036  10.347  22.326  0.00  0.00    +0.000 NA
ATOM     25  N   UNL     1       0.625  10.053  21.153  0.00  0.00    +0.000 N 
ATOM     26  C   UNL     1       0.017  10.694  20.088  0.00  0.00    +0.000 A 
ATOM     27  C   UNL     1       0.454  10.563  18.667  0.00  0.00    +0.000 C 
BRANCH  21  29
ATOM     28  C   UNL     1      -2.976  11.948  19.088  0.00  0.00    +0.000 C 
ATOM     29  C   UNL     1      -1.866  12.451  19.972  0.00  0.00    +0.000 C 
ATOM     30  O   UNL     1      -1.744  13.675  20.129  0.00  0.00    +0.000 OA
ENDBRANCH  21  29
ENDBRANCH  20  25
ENDBRANCH  17  20
ENDBRANCH   1  17
TORSDOF 6
ENDMDL
MODEL 8
REMARK VINA RESULT:      -7.3      3.779      7.175
REMARK  Name = 
REMARK  10 active torsions:
REMARK  status: ('A' for Active; 'I' for Inactive)
REMARK    1  A    between atoms: C_1  and  C_2
REMARK    2  A    between atoms: C_2  and  C_4
REMARK    3  A    between atoms: C_5  and  C_6
REMARK    4  A    between atoms: N_8  and  C_9
REMARK    5  A    between atoms: C_9  and  C_10
REMARK    6  A    between atoms: C_10  and  O_11
REMARK    7  A    between atoms: C_10  and  C_12
REMARK    8  A    between atoms: C_12  and  N_13
REMARK    9  A    between atoms: C_18  and  C_19
REMARK   10  A    between atoms: C_28  and  C_29
REMARK                            x       y       z     vdW  Elec       q    Type
REMARK                         _______ _______ _______ _____ _____    ______ ____
ROOT
ATOM      1  C   UNL     1       0.124  10.077  18.788  0.00  0.00    +0.000 C 
ENDROOT
BRANCH   1   2
ATOM      2  N   UNL     1      -0.527  11.371  19.006  0.00  0.00    +0.000 N 
ATOM      3  C   UNL     1      -0.452  12.283  20.067  0.00  0.00    +0.000 A 
ATOM      4  C   UNL     1      -1.734  12.787  20.239  0.00  0.00    +0.000 A 
ATOM      5  C   UNL     1      -2.592  12.145  19.346  0.00  0.00    +0.000 A 
ATOM      6  C   UNL     1      -3.978  12.068  19.220  0.00  0.00    +0.000 A 
ATOM      7  C   UNL     1      -4.454  11.433  18.075  0.00  0.00    +0.000 A 
ATOM      8  C   UNL     1      -5.661  10.558  18.189  0.00  0.00    +0.000 C 
ATOM      9  C   UNL     1      -3.637  11.304  16.955  0.00  0.00    +0.000 A 
ATOM     10  C   UNL     1      -2.255  11.285  17.114  0.00  0.00    +0.000 A 
ATOM     11  C   UNL     1      -1.763  11.593  18.384  0.00  0.00    +0.000 A 
ATOM     12  C   UNL     1      -2.154  13.887  21.131  0.00  0.00    +0.000 C 
ATOM     13  C   UNL     1      -0.977  14.653  21.705  0.00  0.00    +0.000 C 
ATOM     14  C   UNL     1       0.361  13.901  21.826  0.00  0.00    +0.000 C 
ATOM     15  C   UNL     1       0.663  12.731  20.859  0.00  0.00    +0.000 C 
ATOM     16  O   UNL     1       1.760  12.215  20.813  0.00  0.00    +0.000 OA
ENDBRANCH   1   2
BRANCH   1  17
ATOM     17  C   UNL     1       1.615   9.847  18.478  0.00  0.00    +0.000 C 
BRANCH  17  18
ATOM     18  O   UNL     1       2.215  11.052  17.982  0.00  0.00    +0.000 OA
ATOM     19  H   UNL     1       2.818  10.802  17.248  0.00  0.00    +0.000 HD
ENDBRANCH  17  18
BRANCH  17  20
ATOM     20  C   UNL     1       2.012   8.653  17.607  0.00  0.00    +0.000 C 
BRANCH  20  25
ATOM     21  C   UNL     1       3.664   5.635  18.809  0.00  0.00    +0.000 A 
ATOM     22  C   UNL     1       2.599   5.932  19.707  0.00  0.00    +0.000 A 
ATOM     23  C   UNL     1       2.109   5.155  20.876  0.00  0.00    +0.000 C 
ATOM     24  N   UNL     1       2.010   7.089  19.413  0.00  0.00    +0.000 NA
ATOM     25  N   UNL     1       2.621   7.526  18.297  0.00  0.00    +0.000 N 
ATOM     26  C   UNL     1       3.667   6.702  17.917  0.00  0.00    +0.000 A 
ATOM     27  C   UNL     1       4.524   6.932  16.717  0.00  0.00    +0.000 C 
BRANCH  21  29
ATOM     28  C   UNL     1       4.027   3.168  18.183  0.00  0.00    +0.000 C 
ATOM     29  C   UNL     1       4.507   4.442  18.826  0.00  0.00    +0.000 C 
ATOM     30  O   UNL     1       5.631   4.451  19.352  0.00  0.00    +0.000 OA
ENDBRANCH  21  29
ENDBRANCH  20  25
ENDBRANCH  17  20
ENDBRANCH   1  17
TORSDOF 6
ENDMDL
MODEL 9
REMARK VINA RESULT:      -7.3      2.561      7.901
REMARK  Name = 
REMARK  10 active torsions:
REMARK  status: ('A' for Active; 'I' for Inactive)
REMARK    1  A    between atoms: C_1  and  C_2
REMARK    2  A    between atoms: C_2  and  C_4
REMARK    3  A    between atoms: C_5  and  C_6
REMARK    4  A    between atoms: N_8  and  C_9
REMARK    5  A    between atoms: C_9  and  C_10
REMARK    6  A    between atoms: C_10  and  O_11
REMARK    7  A    between atoms: C_10  and  C_12
REMARK    8  A    between atoms: C_12  and  N_13
REMARK    9  A    between atoms: C_18  and  C_19
REMARK   10  A    between atoms: C_28  and  C_29
REMARK                            x       y       z     vdW  Elec       q    Type
REMARK                         _______ _______ _______ _____ _____    ______ ____
ROOT
ATOM      1  C   UNL     1       2.928   7.357  18.965  0.00  0.00    +0.000 C 
ENDROOT
BRANCH   1   2
ATOM      2  N   UNL     1       3.732   6.162  18.699  0.00  0.00    +0.000 N 
ATOM      3  C   UNL     1       4.643   5.862  17.679  0.00  0.00    +0.000 A 
ATOM      4  C   UNL     1       4.446   4.525  17.360  0.00  0.00    +0.000 A 
ATOM      5  C   UNL     1       3.386   4.034  18.122  0.00  0.00    +0.000 A 
ATOM      6  C   UNL     1       2.611   2.877  18.072  0.00  0.00    +0.000 A 
ATOM      7  C   UNL     1       1.728   2.684  19.132  0.00  0.00    +0.000 A 
ATOM      8  C   UNL     1       0.377   2.110  18.845  0.00  0.00    +0.000 C 
ATOM      9  C   UNL     1       1.934   3.342  20.342  0.00  0.00    +0.000 A 
ATOM     10  C   UNL     1       2.627   4.548  20.356  0.00  0.00    +0.000 A 
ATOM     11  C   UNL     1       3.247   4.933  19.166  0.00  0.00    +0.000 A 
ATOM     12  C   UNL     1       5.256   3.690  16.450  0.00  0.00    +0.000 C 
ATOM     13  C   UNL     1       6.556   4.360  16.047  0.00  0.00    +0.000 C 
ATOM     14  C   UNL     1       6.594   5.899  16.076  0.00  0.00    +0.000 C 
ATOM     15  C   UNL     1       5.658   6.662  17.044  0.00  0.00    +0.000 C 
ATOM     16  O   UNL     1       5.763   7.859  17.214  0.00  0.00    +0.000 OA
ENDBRANCH   1   2
BRANCH   1  17
ATOM     17  C   UNL     1       2.245   8.249  17.910  0.00  0.00    +0.000 C 
BRANCH  17  18
ATOM     18  O   UNL     1       3.145   9.272  17.460  0.00  0.00    +0.000 OA
ATOM     19  H   UNL     1       3.501   9.724  18.256  0.00  0.00    +0.000 HD
ENDBRANCH  17  18
BRANCH  17  20
ATOM     20  C   UNL     1       0.872   8.846  18.226  0.00  0.00    +0.000 C 
BRANCH  20  25
ATOM     21  C   UNL     1       0.153  10.427  21.430  0.00  0.00    +0.000 A 
ATOM     22  C   UNL     1       0.687  11.426  20.565  0.00  0.00    +0.000 A 
ATOM     23  C   UNL     1       0.852  12.885  20.800  0.00  0.00    +0.000 C 
ATOM     24  N   UNL     1       1.090  10.912  19.405  0.00  0.00    +0.000 NA
ATOM     25  N   UNL     1       0.769   9.607  19.462  0.00  0.00    +0.000 N 
ATOM     26  C   UNL     1       0.241   9.252  20.691  0.00  0.00    +0.000 A 
ATOM     27  C   UNL     1      -0.210   7.874  21.045  0.00  0.00    +0.000 C 
BRANCH  21  29
ATOM     28  C   UNL     1      -1.575  11.560  22.959  0.00  0.00    +0.000 C 
ATOM     29  C   UNL     1      -0.398  10.641  22.766  0.00  0.00    +0.000 C 
ATOM     30  O   UNL     1       0.073  10.068  23.760  0.00  0.00    +0.000 OA
ENDBRANCH  21  29
ENDBRANCH  20  25
ENDBRANCH  17  20
ENDBRANCH   1  17
TORSDOF 6
ENDMDL
