MODEL 1
REMARK VINA RESULT:      -7.6      0.000      0.000
REMARK  Name = 
REMARK  4 active torsions:
REMARK  status: ('A' for Active; 'I' for Inactive)
REMARK    1  A    between atoms: C_1  and  N_2
REMARK    2  A    between atoms: C_8  and  N_9
REMARK    3  A    between atoms: C_10  and  C_12
REMARK    4  A    between atoms: C_15  and  C_16
REMARK                            x       y       z     vdW  Elec       q    Type
REMARK                         _______ _______ _______ _____ _____    ______ ____
ROOT
ATOM      1  N   UNL     1       2.309   6.086  18.371  0.00  0.00    +0.000 N 
ATOM      2  C   UNL     1       2.761   7.365  18.081  0.00  0.00    +0.000 C 
ATOM      3  O   UNL     1       3.755   7.568  17.400  0.00  0.00    +0.000 OA
ATOM      4  H   UNL     1       1.417   6.032  18.833  0.00  0.00    +0.000 HD
ENDROOT
BRANCH   1  12
ATOM      5  C   UNL     1       3.409   1.322  18.656  0.00  0.00    +0.000 C 
ATOM      6  N   UNL     1       2.672   2.284  19.450  0.00  0.00    +0.000 NA
ATOM      7  C   UNL     1       1.522   2.914  18.798  0.00  0.00    +0.000 C 
ATOM      8  C   UNL     1       1.028   3.794  19.956  0.00  0.00    +0.000 C 
ATOM      9  C   UNL     1       2.293   4.091  20.780  0.00  0.00    +0.000 C 
ATOM     10  C   UNL     1       3.426   3.415  19.997  0.00  0.00    +0.000 C 
ATOM     11  C   UNL     1       4.005   4.340  18.900  0.00  0.00    +0.000 C 
ATOM     12  C   UNL     1       2.951   4.858  17.895  0.00  0.00    +0.000 C 
ATOM     13  C   UNL     1       1.941   3.742  17.565  0.00  0.00    +0.000 C 
ENDBRANCH   1  12
BRANCH   2  14
ATOM     14  C   UNL     1       1.946   8.441  18.647  0.00  0.00    +0.000 A 
ATOM     15  C   UNL     1       1.325   9.479  17.976  0.00  0.00    +0.000 A 
ATOM     16  C   UNL     1       0.536  10.289  18.845  0.00  0.00    +0.000 A 
ATOM     17  C   UNL     1       0.591   9.875  20.156  0.00  0.00    +0.000 A 
ATOM     18  S   UNL     1       1.622   8.525  20.330  0.00  0.00    +0.000 S 
BRANCH  17  19
ATOM     19  C   UNL     1      -0.153  10.429  21.254  0.00  0.00    +0.000 A 
ATOM     20  C   UNL     1      -0.382   9.874  22.502  0.00  0.00    +0.000 A 
ATOM     21  C   UNL     1      -1.266  10.728  23.195  0.00  0.00    +0.000 A 
ATOM     22  C   UNL     1      -1.518  11.776  22.346  0.00  0.00    +0.000 A 
ATOM     23  O   UNL     1      -0.835  11.620  21.183  0.00  0.00    +0.000 OA
ENDBRANCH  17  19
ENDBRANCH   2  14
TORSDOF 3
ENDMDL
MODEL 2
REMARK VINA RESULT:      -7.6      1.240      1.769
REMARK  Name = 
REMARK  4 active torsions:
REMARK  status: ('A' for Active; 'I' for Inactive)
REMARK    1  A    between atoms: C_1  and  N_2
REMARK    2  A    between atoms: C_8  and  N_9
REMARK    3  A    between atoms: C_10  and  C_12
REMARK    4  A    between atoms: C_15  and  C_16
REMARK                            x       y       z     vdW  Elec       q    Type
REMARK                         _______ _______ _______ _____ _____    ______ ____
ROOT
ATOM      1  N   UNL     1       2.184   6.425  19.547  0.00  0.00    +0.000 N 
ATOM      2  C   UNL     1       2.044   7.778  19.273  0.00  0.00    +0.000 C 
ATOM      3  O   UNL     1       2.471   8.283  18.246  0.00  0.00    +0.000 OA
ATOM      4  H   UNL     1       1.691   6.091  20.358  0.00  0.00    +0.000 HD
ENDROOT
BRANCH   1  12
ATOM      5  C   UNL     1       3.286   1.902  18.023  0.00  0.00    +0.000 C 
ATOM      6  N   UNL     1       2.537   2.496  19.113  0.00  0.00    +0.000 NA
ATOM      7  C   UNL     1       1.395   3.331  18.732  0.00  0.00    +0.000 C 
ATOM      8  C   UNL     1       0.884   3.709  20.131  0.00  0.00    +0.000 C 
ATOM      9  C   UNL     1       2.138   3.667  21.022  0.00  0.00    +0.000 C 
ATOM     10  C   UNL     1       3.282   3.333  20.056  0.00  0.00    +0.000 C 
ATOM     11  C   UNL     1       3.875   4.602  19.398  0.00  0.00    +0.000 C 
ATOM     12  C   UNL     1       2.833   5.466  18.650  0.00  0.00    +0.000 C 
ATOM     13  C   UNL     1       1.829   4.561  17.909  0.00  0.00    +0.000 C 
ENDBRANCH   1  12
BRANCH   2  14
ATOM     14  C   UNL     1       1.340   8.538  20.307  0.00  0.00    +0.000 A 
ATOM     15  C   UNL     1       1.030   8.136  21.594  0.00  0.00    +0.000 A 
ATOM     16  C   UNL     1       0.417   9.176  22.353  0.00  0.00    +0.000 A 
ATOM     17  C   UNL     1       0.245  10.334  21.628  0.00  0.00    +0.000 A 
ATOM     18  S   UNL     1       0.801  10.142  20.025  0.00  0.00    +0.000 S 
BRANCH  17  19
ATOM     19  C   UNL     1      -0.266  11.580  22.128  0.00  0.00    +0.000 A 
ATOM     20  C   UNL     1      -1.394  11.797  22.900  0.00  0.00    +0.000 A 
ATOM     21  C   UNL     1      -1.558  13.192  23.039  0.00  0.00    +0.000 A 
ATOM     22  C   UNL     1      -0.507  13.761  22.364  0.00  0.00    +0.000 A 
ATOM     23  O   UNL     1       0.292  12.801  21.831  0.00  0.00    +0.000 OA
ENDBRANCH  17  19
ENDBRANCH   2  14
TORSDOF 3
ENDMDL
MODEL 3
REMARK VINA RESULT:      -7.2      4.989      8.289
REMARK  Name = 
REMARK  4 active torsions:
REMARK  status: ('A' for Active; 'I' for Inactive)
REMARK    1  A    between atoms: C_1  and  N_2
REMARK    2  A    between atoms: C_8  and  N_9
REMARK    3  A    between atoms: C_10  and  C_12
REMARK    4  A    between atoms: C_15  and  C_16
REMARK                            x       y       z     vdW  Elec       q    Type
REMARK                         _______ _______ _______ _____ _____    ______ ____
ROOT
ATOM      1  N   UNL     1       4.580   4.022  18.471  0.00  0.00    +0.000 N 
ATOM      2  C   UNL     1       5.815   4.542  18.112  0.00  0.00    +0.000 C 
ATOM      3  O   UNL     1       6.617   4.949  18.938  0.00  0.00    +0.000 OA
ATOM      4  H   UNL     1       4.049   3.603  17.726  0.00  0.00    +0.000 HD
ENDROOT
BRANCH   1  12
ATOM      5  C   UNL     1       1.253   2.886  21.881  0.00  0.00    +0.000 C 
ATOM      6  N   UNL     1       1.320   2.894  20.433  0.00  0.00    +0.000 NA
ATOM      7  C   UNL     1       2.336   2.027  19.829  0.00  0.00    +0.000 C 
ATOM      8  C   UNL     1       2.046   2.299  18.346  0.00  0.00    +0.000 C 
ATOM      9  C   UNL     1       1.470   3.725  18.321  0.00  0.00    +0.000 C 
ATOM     10  C   UNL     1       1.534   4.188  19.782  0.00  0.00    +0.000 C 
ATOM     11  C   UNL     1       2.903   4.820  20.131  0.00  0.00    +0.000 C 
ATOM     12  C   UNL     1       4.110   3.895  19.853  0.00  0.00    +0.000 C 
ATOM     13  C   UNL     1       3.765   2.443  20.238  0.00  0.00    +0.000 C 
ENDBRANCH   1  12
BRANCH   2  14
ATOM     14  C   UNL     1       6.076   4.549  16.671  0.00  0.00    +0.000 A 
ATOM     15  C   UNL     1       7.088   5.206  15.995  0.00  0.00    +0.000 A 
ATOM     16  C   UNL     1       7.087   4.909  14.600  0.00  0.00    +0.000 A 
ATOM     17  C   UNL     1       6.067   4.061  14.236  0.00  0.00    +0.000 A 
ATOM     18  S   UNL     1       5.099   3.653  15.583  0.00  0.00    +0.000 S 
BRANCH  17  19
ATOM     19  C   UNL     1       5.845   3.511  12.927  0.00  0.00    +0.000 A 
ATOM     20  C   UNL     1       4.686   3.538  12.170  0.00  0.00    +0.000 A 
ATOM     21  C   UNL     1       4.912   2.764  11.012  0.00  0.00    +0.000 A 
ATOM     22  C   UNL     1       6.207   2.320  11.105  0.00  0.00    +0.000 A 
ATOM     23  O   UNL     1       6.788   2.782  12.242  0.00  0.00    +0.000 OA
ENDBRANCH  17  19
ENDBRANCH   2  14
TORSDOF 3
ENDMDL
MODEL 4
REMARK VINA RESULT:      -7.1      1.400      1.888
REMARK  Name = 
REMARK  4 active torsions:
REMARK  status: ('A' for Active; 'I' for Inactive)
REMARK    1  A    between atoms: C_1  and  N_2
REMARK    2  A    between atoms: C_8  and  N_9
REMARK    3  A    between atoms: C_10  and  C_12
REMARK    4  A    between atoms: C_15  and  C_16
REMARK                            x       y       z     vdW  Elec       q    Type
REMARK                         _______ _______ _______ _____ _____    ______ ____
ROOT
ATOM      1  N   UNL     1       2.320   6.160  18.740  0.00  0.00    +0.000 N 
ATOM      2  C   UNL     1       2.618   7.477  18.417  0.00  0.00    +0.000 C 
ATOM      3  O   UNL     1       3.487   7.769  17.610  0.00  0.00    +0.000 OA
ATOM      4  H   UNL     1       1.509   6.027  19.320  0.00  0.00    +0.000 HD
ENDROOT
BRANCH   1  12
ATOM      5  C   UNL     1       3.428   1.395  18.518  0.00  0.00    +0.000 C 
ATOM      6  N   UNL     1       2.649   2.258  19.382  0.00  0.00    +0.000 NA
ATOM      7  C   UNL     1       1.528   2.961  18.753  0.00  0.00    +0.000 C 
ATOM      8  C   UNL     1       0.974   3.700  19.980  0.00  0.00    +0.000 C 
ATOM      9  C   UNL     1       2.196   3.896  20.894  0.00  0.00    +0.000 C 
ATOM     10  C   UNL     1       3.369   3.316  20.095  0.00  0.00    +0.000 C 
ATOM     11  C   UNL     1       3.997   4.364  19.143  0.00  0.00    +0.000 C 
ATOM     12  C   UNL     1       2.990   4.997  18.155  0.00  0.00    +0.000 C 
ATOM     13  C   UNL     1       2.003   3.928  17.647  0.00  0.00    +0.000 C 
ENDBRANCH   1  12
BRANCH   2  14
ATOM     14  C   UNL     1       1.802   8.473  19.111  0.00  0.00    +0.000 A 
ATOM     15  C   UNL     1       1.365   8.448  20.423  0.00  0.00    +0.000 A 
ATOM     16  C   UNL     1       0.665   9.637  20.783  0.00  0.00    +0.000 A 
ATOM     17  C   UNL     1       0.556  10.528  19.740  0.00  0.00    +0.000 A 
ATOM     18  S   UNL     1       1.277   9.904  18.323  0.00  0.00    +0.000 S 
BRANCH  17  19
ATOM     19  C   UNL     1      -0.018  11.844  19.803  0.00  0.00    +0.000 A 
ATOM     20  C   UNL     1      -0.075  12.803  18.806  0.00  0.00    +0.000 A 
ATOM     21  C   UNL     1      -0.619  13.977  19.370  0.00  0.00    +0.000 A 
ATOM     22  C   UNL     1      -0.890  13.671  20.681  0.00  0.00    +0.000 A 
ATOM     23  O   UNL     1      -0.555  12.383  20.948  0.00  0.00    +0.000 OA
ENDBRANCH  17  19
ENDBRANCH   2  14
TORSDOF 3
ENDMDL
MODEL 5
REMARK VINA RESULT:      -6.8      1.560      2.054
REMARK  Name = 
REMARK  4 active torsions:
REMARK  status: ('A' for Active; 'I' for Inactive)
REMARK    1  A    between atoms: C_1  and  N_2
REMARK    2  A    between atoms: C_8  and  N_9
REMARK    3  A    between atoms: C_10  and  C_12
REMARK    4  A    between atoms: C_15  and  C_16
REMARK                            x       y       z     vdW  Elec       q    Type
REMARK                         _______ _______ _______ _____ _____    ______ ____
ROOT
ATOM      1  N   UNL     1       3.085   5.873  19.086  0.00  0.00    +0.000 N 
ATOM      2  C   UNL     1       3.027   7.073  18.392  0.00  0.00    +0.000 C 
ATOM      3  O   UNL     1       3.677   7.271  17.377  0.00  0.00    +0.000 OA
ATOM      4  H   UNL     1       2.421   5.770  19.836  0.00  0.00    +0.000 HD
ENDROOT
BRANCH   1  12
ATOM      5  C   UNL     1       3.834   1.110  18.229  0.00  0.00    +0.000 C 
ATOM      6  N   UNL     1       2.745   1.938  18.707  0.00  0.00    +0.000 NA
ATOM      7  C   UNL     1       2.258   2.963  17.780  0.00  0.00    +0.000 C 
ATOM      8  C   UNL     1       1.128   3.556  18.635  0.00  0.00    +0.000 C 
ATOM      9  C   UNL     1       1.579   3.320  20.086  0.00  0.00    +0.000 C 
ATOM     10  C   UNL     1       2.963   2.671  19.956  0.00  0.00    +0.000 C 
ATOM     11  C   UNL     1       4.091   3.725  19.848  0.00  0.00    +0.000 C 
ATOM     12  C   UNL     1       3.903   4.727  18.684  0.00  0.00    +0.000 C 
ATOM     13  C   UNL     1       3.350   4.000  17.443  0.00  0.00    +0.000 C 
ENDBRANCH   1  12
BRANCH   2  14
ATOM     14  C   UNL     1       2.122   8.067  18.970  0.00  0.00    +0.000 A 
ATOM     15  C   UNL     1       1.596   8.095  20.249  0.00  0.00    +0.000 A 
ATOM     16  C   UNL     1       0.822   9.268  20.490  0.00  0.00    +0.000 A 
ATOM     17  C   UNL     1       0.748  10.093  19.390  0.00  0.00    +0.000 A 
ATOM     18  S   UNL     1       1.593   9.425  18.065  0.00  0.00    +0.000 S 
BRANCH  17  19
ATOM     19  C   UNL     1       0.115  11.382  19.337  0.00  0.00    +0.000 A 
ATOM     20  C   UNL     1      -1.051  11.792  19.961  0.00  0.00    +0.000 A 
ATOM     21  C   UNL     1      -1.341  13.099  19.514  0.00  0.00    +0.000 A 
ATOM     22  C   UNL     1      -0.325  13.434  18.655  0.00  0.00    +0.000 A 
ATOM     23  O   UNL     1       0.571  12.419  18.558  0.00  0.00    +0.000 OA
ENDBRANCH  17  19
ENDBRANCH   2  14
TORSDOF 3
ENDMDL
MODEL 6
REMARK VINA RESULT:      -6.8      2.257      2.875
REMARK  Name = 
REMARK  4 active torsions:
REMARK  status: ('A' for Active; 'I' for Inactive)
REMARK    1  A    between atoms: C_1  and  N_2
REMARK    2  A    between atoms: C_8  and  N_9
REMARK    3  A    between atoms: C_10  and  C_12
REMARK    4  A    between atoms: C_15  and  C_16
REMARK                            x       y       z     vdW  Elec       q    Type
REMARK                         _______ _______ _______ _____ _____    ______ ____
ROOT
ATOM      1  N   UNL     1       3.481   6.895  18.037  0.00  0.00    +0.000 N 
ATOM      2  C   UNL     1       2.717   8.053  17.984  0.00  0.00    +0.000 C 
ATOM      3  O   UNL     1       2.670   8.758  16.989  0.00  0.00    +0.000 OA
ATOM      4  H   UNL     1       3.352   6.325  18.856  0.00  0.00    +0.000 HD
ENDROOT
BRANCH   1  12
ATOM      5  C   UNL     1       7.089   4.199  16.115  0.00  0.00    +0.000 C 
ATOM      6  N   UNL     1       6.567   4.474  17.439  0.00  0.00    +0.000 NA
ATOM      7  C   UNL     1       5.173   4.091  17.677  0.00  0.00    +0.000 C 
ATOM      8  C   UNL     1       5.047   4.505  19.150  0.00  0.00    +0.000 C 
ATOM      9  C   UNL     1       6.054   5.657  19.313  0.00  0.00    +0.000 C 
ATOM     10  C   UNL     1       6.633   5.861  17.907  0.00  0.00    +0.000 C 
ATOM     11  C   UNL     1       5.770   6.825  17.058  0.00  0.00    +0.000 C 
ATOM     12  C   UNL     1       4.291   6.392  16.926  0.00  0.00    +0.000 C 
ATOM     13  C   UNL     1       4.200   4.862  16.760  0.00  0.00    +0.000 C 
ENDBRANCH   1  12
BRANCH   2  14
ATOM     14  C   UNL     1       1.971   8.345  19.209  0.00  0.00    +0.000 A 
ATOM     15  C   UNL     1       1.926   7.602  20.374  0.00  0.00    +0.000 A 
ATOM     16  C   UNL     1       1.165   8.242  21.396  0.00  0.00    +0.000 A 
ATOM     17  C   UNL     1       0.624   9.440  20.986  0.00  0.00    +0.000 A 
ATOM     18  S   UNL     1       1.017   9.764  19.356  0.00  0.00    +0.000 S 
BRANCH  17  19
ATOM     19  C   UNL     1      -0.121  10.359  21.802  0.00  0.00    +0.000 A 
ATOM     20  C   UNL     1      -0.848  10.092  22.950  0.00  0.00    +0.000 A 
ATOM     21  C   UNL     1      -1.505  11.283  23.327  0.00  0.00    +0.000 A 
ATOM     22  C   UNL     1      -1.130  12.227  22.404  0.00  0.00    +0.000 A 
ATOM     23  O   UNL     1      -0.278  11.690  21.494  0.00  0.00    +0.000 OA
ENDBRANCH  17  19
ENDBRANCH   2  14
TORSDOF 3
ENDMDL
MODEL 7
REMARK VINA RESULT:      -6.7      4.828      6.509
REMARK  Name = 
REMARK  4 active torsions:
REMARK  status: ('A' for Active; 'I' for Inactive)
REMARK    1  A    between atoms: C_1  and  N_2
REMARK    2  A    between atoms: C_8  and  N_9
REMARK    3  A    between atoms: C_10  and  C_12
REMARK    4  A    between atoms: C_15  and  C_16
REMARK                            x       y       z     vdW  Elec       q    Type
REMARK                         _______ _______ _______ _____ _____    ______ ____
ROOT
ATOM      1  N   UNL     1       5.479   5.113  18.033  0.00  0.00    +0.000 N 
ATOM      2  C   UNL     1       6.851   5.274  18.162  0.00  0.00    +0.000 C 
ATOM      3  O   UNL     1       7.602   4.333  18.365  0.00  0.00    +0.000 OA
ATOM      4  H   UNL     1       4.969   5.932  17.745  0.00  0.00    +0.000 HD
ENDROOT
BRANCH   1  12
ATOM      5  C   UNL     1       1.589   2.271  18.915  0.00  0.00    +0.000 C 
ATOM      6  N   UNL     1       1.903   3.684  18.992  0.00  0.00    +0.000 NA
ATOM      7  C   UNL     1       2.292   4.329  17.736  0.00  0.00    +0.000 C 
ATOM      8  C   UNL     1       2.489   5.765  18.243  0.00  0.00    +0.000 C 
ATOM      9  C   UNL     1       2.890   5.601  19.719  0.00  0.00    +0.000 C 
ATOM     10  C   UNL     1       2.956   4.083  19.930  0.00  0.00    +0.000 C 
ATOM     11  C   UNL     1       4.344   3.506  19.560  0.00  0.00    +0.000 C 
ATOM     12  C   UNL     1       4.789   3.823  18.113  0.00  0.00    +0.000 C 
ATOM     13  C   UNL     1       3.587   3.724  17.155  0.00  0.00    +0.000 C 
ENDBRANCH   1  12
BRANCH   2  14
ATOM     14  C   UNL     1       7.317   6.654  18.022  0.00  0.00    +0.000 A 
ATOM     15  C   UNL     1       6.928   7.592  17.083  0.00  0.00    +0.000 A 
ATOM     16  C   UNL     1       7.527   8.866  17.309  0.00  0.00    +0.000 A 
ATOM     17  C   UNL     1       8.377   8.870  18.391  0.00  0.00    +0.000 A 
ATOM     18  S   UNL     1       8.466   7.322  19.108  0.00  0.00    +0.000 S 
BRANCH  17  19
ATOM     19  C   UNL     1       9.065  10.013  18.926  0.00  0.00    +0.000 A 
ATOM     20  C   UNL     1       9.774  10.985  18.241  0.00  0.00    +0.000 A 
ATOM     21  C   UNL     1      10.375  11.832  19.197  0.00  0.00    +0.000 A 
ATOM     22  C   UNL     1       9.986  11.349  20.421  0.00  0.00    +0.000 A 
ATOM     23  O   UNL     1       9.178  10.269  20.272  0.00  0.00    +0.000 OA
ENDBRANCH  17  19
ENDBRANCH   2  14
TORSDOF 3
ENDMDL
MODEL 8
REMARK VINA RESULT:      -6.7      4.875      8.656
REMARK  Name = 
REMARK  4 active torsions:
REMARK  status: ('A' for Active; 'I' for Inactive)
REMARK    1  A    between atoms: C_1  and  N_2
REMARK    2  A    between atoms: C_8  and  N_9
REMARK    3  A    between atoms: C_10  and  C_12
REMARK    4  A    between atoms: C_15  and  C_16
REMARK                            x       y       z     vdW  Elec       q    Type
REMARK                         _______ _______ _______ _____ _____    ______ ____
ROOT
ATOM      1  N   UNL     1       3.975   4.732  17.359  0.00  0.00    +0.000 N 
ATOM      2  C   UNL     1       5.103   5.474  17.037  0.00  0.00    +0.000 C 
ATOM      3  O   UNL     1       5.538   6.350  17.769  0.00  0.00    +0.000 OA
ATOM      4  H   UNL     1       3.775   3.957  16.749  0.00  0.00    +0.000 HD
ENDROOT
BRANCH   1  12
ATOM      5  C   UNL     1       1.289   3.082  21.107  0.00  0.00    +0.000 C 
ATOM      6  N   UNL     1       1.924   2.516  19.934  0.00  0.00    +0.000 NA
ATOM      7  C   UNL     1       3.379   2.662  19.853  0.00  0.00    +0.000 C 
ATOM      8  C   UNL     1       3.633   1.919  18.532  0.00  0.00    +0.000 C 
ATOM      9  C   UNL     1       2.329   2.099  17.734  0.00  0.00    +0.000 C 
ATOM     10  C   UNL     1       1.453   2.985  18.628  0.00  0.00    +0.000 C 
ATOM     11  C   UNL     1       1.723   4.491  18.395  0.00  0.00    +0.000 C 
ATOM     12  C   UNL     1       3.201   4.901  18.591  0.00  0.00    +0.000 C 
ATOM     13  C   UNL     1       3.807   4.144  19.789  0.00  0.00    +0.000 C 
ENDBRANCH   1  12
BRANCH   2  14
ATOM     14  C   UNL     1       5.725   5.113  15.762  0.00  0.00    +0.000 A 
ATOM     15  C   UNL     1       6.917   5.579  15.237  0.00  0.00    +0.000 A 
ATOM     16  C   UNL     1       7.256   4.936  14.011  0.00  0.00    +0.000 A 
ATOM     17  C   UNL     1       6.311   4.018  13.611  0.00  0.00    +0.000 A 
ATOM     18  S   UNL     1       5.005   3.965  14.711  0.00  0.00    +0.000 S 
BRANCH  17  19
ATOM     19  C   UNL     1       6.399   3.151  12.469  0.00  0.00    +0.000 A 
ATOM     20  C   UNL     1       5.395   2.397  11.885  0.00  0.00    +0.000 A 
ATOM     21  C   UNL     1       5.982   1.612  10.870  0.00  0.00    +0.000 A 
ATOM     22  C   UNL     1       7.315   1.940  10.867  0.00  0.00    +0.000 A 
ATOM     23  O   UNL     1       7.575   2.883  11.809  0.00  0.00    +0.000 OA
ENDBRANCH  17  19
ENDBRANCH   2  14
TORSDOF 3
ENDMDL
MODEL 9
REMARK VINA RESULT:      -6.6      4.538      6.322
REMARK  Name = 
REMARK  4 active torsions:
REMARK  status: ('A' for Active; 'I' for Inactive)
REMARK    1  A    between atoms: C_1  and  N_2
REMARK    2  A    between atoms: C_8  and  N_9
REMARK    3  A    between atoms: C_10  and  C_12
REMARK    4  A    between atoms: C_15  and  C_16
REMARK                            x       y       z     vdW  Elec       q    Type
REMARK                         _______ _______ _______ _____ _____    ______ ____
ROOT
ATOM      1  N   UNL     1       4.962   4.379  18.265  0.00  0.00    +0.000 N 
ATOM      2  C   UNL     1       6.034   4.733  17.458  0.00  0.00    +0.000 C 
ATOM      3  O   UNL     1       6.259   4.180  16.393  0.00  0.00    +0.000 OA
ATOM      4  H   UNL     1       4.796   4.977  19.057  0.00  0.00    +0.000 HD
ENDROOT
BRANCH   1  12
ATOM      5  C   UNL     1       0.637   2.118  18.690  0.00  0.00    +0.000 C 
ATOM      6  N   UNL     1       1.298   3.257  19.297  0.00  0.00    +0.000 NA
ATOM      7  C   UNL     1       1.669   4.347  18.392  0.00  0.00    +0.000 C 
ATOM      8  C   UNL     1       2.278   5.322  19.411  0.00  0.00    +0.000 C 
ATOM      9  C   UNL     1       2.811   4.419  20.536  0.00  0.00    +0.000 C 
ATOM     10  C   UNL     1       2.527   2.993  20.048  0.00  0.00    +0.000 C 
ATOM     11  C   UNL     1       3.671   2.445  19.159  0.00  0.00    +0.000 C 
ATOM     12  C   UNL     1       3.992   3.332  17.934  0.00  0.00    +0.000 C 
ATOM     13  C   UNL     1       2.689   3.890  17.328  0.00  0.00    +0.000 C 
ENDBRANCH   1  12
BRANCH   2  14
ATOM     14  C   UNL     1       6.856   5.823  17.984  0.00  0.00    +0.000 A 
ATOM     15  C   UNL     1       7.856   5.749  18.937  0.00  0.00    +0.000 A 
ATOM     16  C   UNL     1       8.507   7.002  19.136  0.00  0.00    +0.000 A 
ATOM     17  C   UNL     1       7.978   8.007  18.359  0.00  0.00    +0.000 A 
ATOM     18  S   UNL     1       6.677   7.431  17.415  0.00  0.00    +0.000 S 
BRANCH  17  19
ATOM     19  C   UNL     1       8.465   9.356  18.268  0.00  0.00    +0.000 A 
ATOM     20  C   UNL     1       9.462   9.961  19.015  0.00  0.00    +0.000 A 
ATOM     21  C   UNL     1       9.501  11.324  18.654  0.00  0.00    +0.000 A 
ATOM     22  C   UNL     1       8.542  11.483  17.686  0.00  0.00    +0.000 A 
ATOM     23  O   UNL     1       7.927  10.301  17.427  0.00  0.00    +0.000 OA
ENDBRANCH  17  19
ENDBRANCH   2  14
TORSDOF 3
ENDMDL
