MODEL 1
REMARK VINA RESULT:      -7.0      0.000      0.000
REMARK  Name = 
REMARK  7 active torsions:
REMARK  status: ('A' for Active; 'I' for Inactive)
REMARK    1  A    between atoms: C_2  and  C_3
REMARK    2  A    between atoms: C_3  and  O_4
REMARK    3  A    between atoms: O_4  and  C_5
REMARK    4  A    between atoms: C_5  and  C_7
REMARK    5  A    between atoms: C_7  and  O_8
REMARK    6  A    between atoms: O_8  and  C_9
REMARK    7  A    between atoms: N_16  and  C_17
REMARK                            x       y       z     vdW  Elec       q    Type
REMARK                         _______ _______ _______ _____ _____    ______ ____
ROOT
ATOM      1  C   UNL     1       7.103   6.264  17.312  0.00  0.00    +0.000 C 
ATOM      2  O   UNL     1       7.575   7.391  17.225  0.00  0.00    +0.000 OA
ENDROOT
BRANCH   1   3
ATOM      3  O   UNL     1       6.318   5.681  16.359  0.00  0.00    +0.000 OA
BRANCH   3   4
ATOM      4  C   UNL     1       6.901   4.501  15.805  0.00  0.00    +0.000 C 
BRANCH   4   6
ATOM      5  O   UNL     1       7.495   5.438  13.649  0.00  0.00    +0.000 OA
ATOM      6  C   UNL     1       6.891   4.567  14.272  0.00  0.00    +0.000 C 
ATOM      7  N   UNL     1       6.153   3.565  13.671  0.00  0.00    +0.000 N 
ATOM      8  H   UNL     1       5.778   2.822  14.249  0.00  0.00    +0.000 HD
BRANCH   7   9
ATOM      9  C   UNL     1       6.078   3.411  12.251  0.00  0.00    +0.000 C 
ATOM     10  C   UNL     1       5.719   2.083  11.640  0.00  0.00    +0.000 C 
ATOM     11  C   UNL     1       4.742   3.221  11.586  0.00  0.00    +0.000 C 
ENDBRANCH   7   9
ENDBRANCH   4   6
ENDBRANCH   3   4
ENDBRANCH   1   3
BRANCH   1  12
ATOM     12  C   UNL     1       7.237   5.356  18.517  0.00  0.00    +0.000 C 
BRANCH  12  13
ATOM     13  O   UNL     1       6.237   5.650  19.478  0.00  0.00    +0.000 OA
BRANCH  13  14
ATOM     14  C   UNL     1       4.995   5.123  19.251  0.00  0.00    +0.000 A 
ATOM     15  C   UNL     1       3.798   5.840  19.155  0.00  0.00    +0.000 A 
ATOM     16  C   UNL     1       2.594   5.167  18.899  0.00  0.00    +0.000 A 
ATOM     17  C   UNL     1       2.590   3.784  18.747  0.00  0.00    +0.000 A 
ATOM     18 CL   UNL     1       1.113   2.964  18.424  0.00  0.00    +0.000 Cl
ATOM     19  C   UNL     1       3.774   3.062  18.854  0.00  0.00    +0.000 A 
ATOM     20  C   UNL     1       4.971   3.733  19.107  0.00  0.00    +0.000 A 
ENDBRANCH  13  14
ENDBRANCH  12  13
ENDBRANCH   1  12
TORSDOF 7
ENDMDL
MODEL 2
REMARK VINA RESULT:      -6.9      0.923      1.414
REMARK  Name = 
REMARK  7 active torsions:
REMARK  status: ('A' for Active; 'I' for Inactive)
REMARK    1  A    between atoms: C_2  and  C_3
REMARK    2  A    between atoms: C_3  and  O_4
REMARK    3  A    between atoms: O_4  and  C_5
REMARK    4  A    between atoms: C_5  and  C_7
REMARK    5  A    between atoms: C_7  and  O_8
REMARK    6  A    between atoms: O_8  and  C_9
REMARK    7  A    between atoms: N_16  and  C_17
REMARK                            x       y       z     vdW  Elec       q    Type
REMARK                         _______ _______ _______ _____ _____    ______ ____
ROOT
ATOM      1  C   UNL     1       7.423   5.872  17.282  0.00  0.00    +0.000 C 
ATOM      2  O   UNL     1       7.696   6.933  16.734  0.00  0.00    +0.000 OA
ENDROOT
BRANCH   1   3
ATOM      3  O   UNL     1       7.505   4.649  16.679  0.00  0.00    +0.000 OA
BRANCH   3   4
ATOM      4  C   UNL     1       6.322   4.303  15.959  0.00  0.00    +0.000 C 
BRANCH   4   6
ATOM      5  O   UNL     1       7.334   5.246  13.969  0.00  0.00    +0.000 OA
ATOM      6  C   UNL     1       6.559   4.420  14.449  0.00  0.00    +0.000 C 
ATOM      7  N   UNL     1       5.833   3.519  13.694  0.00  0.00    +0.000 N 
ATOM      8  H   UNL     1       5.303   2.799  14.171  0.00  0.00    +0.000 HD
BRANCH   7   9
ATOM      9  C   UNL     1       5.968   3.420  12.273  0.00  0.00    +0.000 C 
ATOM     10  C   UNL     1       6.019   2.076  11.598  0.00  0.00    +0.000 C 
ATOM     11  C   UNL     1       4.807   2.947  11.440  0.00  0.00    +0.000 C 
ENDBRANCH   7   9
ENDBRANCH   4   6
ENDBRANCH   3   4
ENDBRANCH   1   3
BRANCH   1  12
ATOM     12  C   UNL     1       6.871   5.735  18.685  0.00  0.00    +0.000 C 
BRANCH  12  13
ATOM     13  O   UNL     1       6.483   4.395  18.942  0.00  0.00    +0.000 OA
BRANCH  13  14
ATOM     14  C   UNL     1       5.165   4.186  19.243  0.00  0.00    +0.000 A 
ATOM     15  C   UNL     1       4.546   2.946  19.428  0.00  0.00    +0.000 A 
ATOM     16  C   UNL     1       3.183   2.882  19.753  0.00  0.00    +0.000 A 
ATOM     17  C   UNL     1       2.445   4.054  19.886  0.00  0.00    +0.000 A 
ATOM     18 CL   UNL     1       0.776   3.970  20.294  0.00  0.00    +0.000 Cl
ATOM     19  C   UNL     1       3.050   5.291  19.692  0.00  0.00    +0.000 A 
ATOM     20  C   UNL     1       4.406   5.353  19.369  0.00  0.00    +0.000 A 
ENDBRANCH  13  14
ENDBRANCH  12  13
ENDBRANCH   1  12
TORSDOF 7
ENDMDL
MODEL 3
REMARK VINA RESULT:      -6.9      1.544      1.784
REMARK  Name = 
REMARK  7 active torsions:
REMARK  status: ('A' for Active; 'I' for Inactive)
REMARK    1  A    between atoms: C_2  and  C_3
REMARK    2  A    between atoms: C_3  and  O_4
REMARK    3  A    between atoms: O_4  and  C_5
REMARK    4  A    between atoms: C_5  and  C_7
REMARK    5  A    between atoms: C_7  and  O_8
REMARK    6  A    between atoms: O_8  and  C_9
REMARK    7  A    between atoms: N_16  and  C_17
REMARK                            x       y       z     vdW  Elec       q    Type
REMARK                         _______ _______ _______ _____ _____    ______ ____
ROOT
ATOM      1  C   UNL     1       5.653   6.413  16.202  0.00  0.00    +0.000 C 
ATOM      2  O   UNL     1       4.997   6.925  15.302  0.00  0.00    +0.000 OA
ENDROOT
BRANCH   1   3
ATOM      3  O   UNL     1       6.947   5.995  16.072  0.00  0.00    +0.000 OA
BRANCH   3   4
ATOM      4  C   UNL     1       7.051   4.654  15.592  0.00  0.00    +0.000 C 
BRANCH   4   6
ATOM      5  O   UNL     1       7.629   5.416  13.365  0.00  0.00    +0.000 OA
ATOM      6  C   UNL     1       6.991   4.627  14.060  0.00  0.00    +0.000 C 
ATOM      7  N   UNL     1       6.170   3.641  13.547  0.00  0.00    +0.000 N 
ATOM      8  H   UNL     1       5.768   2.962  14.182  0.00  0.00    +0.000 HD
BRANCH   7   9
ATOM      9  C   UNL     1       6.035   3.406  12.143  0.00  0.00    +0.000 C 
ATOM     10  C   UNL     1       5.686   2.038  11.623  0.00  0.00    +0.000 C 
ATOM     11  C   UNL     1       4.676   3.145  11.553  0.00  0.00    +0.000 C 
ENDBRANCH   7   9
ENDBRANCH   4   6
ENDBRANCH   3   4
ENDBRANCH   1   3
BRANCH   1  12
ATOM     12  C   UNL     1       5.124   6.082  17.582  0.00  0.00    +0.000 C 
BRANCH  12  13
ATOM     13  O   UNL     1       3.708   6.010  17.570  0.00  0.00    +0.000 OA
BRANCH  13  14
ATOM     14  C   UNL     1       3.120   5.329  18.601  0.00  0.00    +0.000 A 
ATOM     15  C   UNL     1       2.420   5.894  19.672  0.00  0.00    +0.000 A 
ATOM     16  C   UNL     1       1.851   5.069  20.653  0.00  0.00    +0.000 A 
ATOM     17  C   UNL     1       1.986   3.687  20.563  0.00  0.00    +0.000 A 
ATOM     18 CL   UNL     1       1.277   2.679  21.762  0.00  0.00    +0.000 Cl
ATOM     19  C   UNL     1       2.691   3.118  19.507  0.00  0.00    +0.000 A 
ATOM     20  C   UNL     1       3.256   3.940  18.531  0.00  0.00    +0.000 A 
ENDBRANCH  13  14
ENDBRANCH  12  13
ENDBRANCH   1  12
TORSDOF 7
ENDMDL
MODEL 4
REMARK VINA RESULT:      -6.9      1.897      2.123
REMARK  Name = 
REMARK  7 active torsions:
REMARK  status: ('A' for Active; 'I' for Inactive)
REMARK    1  A    between atoms: C_2  and  C_3
REMARK    2  A    between atoms: C_3  and  O_4
REMARK    3  A    between atoms: O_4  and  C_5
REMARK    4  A    between atoms: C_5  and  C_7
REMARK    5  A    between atoms: C_7  and  O_8
REMARK    6  A    between atoms: O_8  and  C_9
REMARK    7  A    between atoms: N_16  and  C_17
REMARK                            x       y       z     vdW  Elec       q    Type
REMARK                         _______ _______ _______ _____ _____    ______ ____
ROOT
ATOM      1  C   UNL     1       5.132   6.238  16.172  0.00  0.00    +0.000 C 
ATOM      2  O   UNL     1       5.154   6.921  15.155  0.00  0.00    +0.000 OA
ENDROOT
BRANCH   1   3
ATOM      3  O   UNL     1       5.446   4.909  16.217  0.00  0.00    +0.000 OA
BRANCH   3   4
ATOM      4  C   UNL     1       6.800   4.647  15.849  0.00  0.00    +0.000 C 
BRANCH   4   6
ATOM      5  O   UNL     1       7.739   5.344  13.725  0.00  0.00    +0.000 OA
ATOM      6  C   UNL     1       6.946   4.617  14.323  0.00  0.00    +0.000 C 
ATOM      7  N   UNL     1       6.117   3.707  13.695  0.00  0.00    +0.000 N 
ATOM      8  H   UNL     1       5.574   3.070  14.266  0.00  0.00    +0.000 HD
BRANCH   7   9
ATOM      9  C   UNL     1       6.152   3.478  12.284  0.00  0.00    +0.000 C 
ATOM     10  C   UNL     1       5.961   2.095  11.725  0.00  0.00    +0.000 C 
ATOM     11  C   UNL     1       4.888   3.128  11.548  0.00  0.00    +0.000 C 
ENDBRANCH   7   9
ENDBRANCH   4   6
ENDBRANCH   3   4
ENDBRANCH   1   3
BRANCH   1  12
ATOM     12  C   UNL     1       4.677   6.721  17.533  0.00  0.00    +0.000 C 
BRANCH  12  13
ATOM     13  O   UNL     1       3.261   6.719  17.617  0.00  0.00    +0.000 OA
BRANCH  13  14
ATOM     14  C   UNL     1       2.694   5.741  18.387  0.00  0.00    +0.000 A 
ATOM     15  C   UNL     1       1.955   4.649  17.923  0.00  0.00    +0.000 A 
ATOM     16  C   UNL     1       1.445   3.708  18.830  0.00  0.00    +0.000 A 
ATOM     17  C   UNL     1       1.671   3.866  20.194  0.00  0.00    +0.000 A 
ATOM     18 CL   UNL     1       1.053   2.705  21.303  0.00  0.00    +0.000 Cl
ATOM     19  C   UNL     1       2.395   4.957  20.665  0.00  0.00    +0.000 A 
ATOM     20  C   UNL     1       2.902   5.891  19.761  0.00  0.00    +0.000 A 
ENDBRANCH  13  14
ENDBRANCH  12  13
ENDBRANCH   1  12
TORSDOF 7
ENDMDL
MODEL 5
REMARK VINA RESULT:      -6.9      2.681      5.954
REMARK  Name = 
REMARK  7 active torsions:
REMARK  status: ('A' for Active; 'I' for Inactive)
REMARK    1  A    between atoms: C_2  and  C_3
REMARK    2  A    between atoms: C_3  and  O_4
REMARK    3  A    between atoms: O_4  and  C_5
REMARK    4  A    between atoms: C_5  and  C_7
REMARK    5  A    between atoms: C_7  and  O_8
REMARK    6  A    between atoms: O_8  and  C_9
REMARK    7  A    between atoms: N_16  and  C_17
REMARK                            x       y       z     vdW  Elec       q    Type
REMARK                         _______ _______ _______ _____ _____    ______ ____
ROOT
ATOM      1  C   UNL     1       7.409   4.883  17.882  0.00  0.00    +0.000 C 
ATOM      2  O   UNL     1       8.334   4.106  17.674  0.00  0.00    +0.000 OA
ENDROOT
BRANCH   1   3
ATOM      3  O   UNL     1       6.774   5.021  19.084  0.00  0.00    +0.000 OA
BRANCH   3   4
ATOM      4  C   UNL     1       5.360   5.160  18.951  0.00  0.00    +0.000 C 
BRANCH   4   6
ATOM      5  O   UNL     1       5.185   2.930  19.885  0.00  0.00    +0.000 OA
ATOM      6  C   UNL     1       4.662   3.821  19.217  0.00  0.00    +0.000 C 
ATOM      7  N   UNL     1       3.407   3.717  18.647  0.00  0.00    +0.000 N 
ATOM      8  H   UNL     1       3.003   4.535  18.207  0.00  0.00    +0.000 HD
BRANCH   7   9
ATOM      9  C   UNL     1       2.567   2.576  18.839  0.00  0.00    +0.000 C 
ATOM     10  C   UNL     1       1.607   2.514  19.997  0.00  0.00    +0.000 C 
ATOM     11  C   UNL     1       1.085   2.686  18.601  0.00  0.00    +0.000 C 
ENDBRANCH   7   9
ENDBRANCH   4   6
ENDBRANCH   3   4
ENDBRANCH   1   3
BRANCH   1  12
ATOM     12  C   UNL     1       6.759   5.760  16.834  0.00  0.00    +0.000 C 
BRANCH  12  13
ATOM     13  O   UNL     1       7.531   5.773  15.644  0.00  0.00    +0.000 OA
BRANCH  13  14
ATOM     14  C   UNL     1       7.032   5.070  14.582  0.00  0.00    +0.000 A 
ATOM     15  C   UNL     1       7.650   4.901  13.339  0.00  0.00    +0.000 A 
ATOM     16  C   UNL     1       7.028   4.134  12.343  0.00  0.00    +0.000 A 
ATOM     17  C   UNL     1       5.791   3.546  12.590  0.00  0.00    +0.000 A 
ATOM     18 CL   UNL     1       5.037   2.598  11.369  0.00  0.00    +0.000 Cl
ATOM     19  C   UNL     1       5.164   3.720  13.819  0.00  0.00    +0.000 A 
ATOM     20  C   UNL     1       5.785   4.482  14.810  0.00  0.00    +0.000 A 
ENDBRANCH  13  14
ENDBRANCH  12  13
ENDBRANCH   1  12
TORSDOF 7
ENDMDL
MODEL 6
REMARK VINA RESULT:      -6.9      1.051      1.132
REMARK  Name = 
REMARK  7 active torsions:
REMARK  status: ('A' for Active; 'I' for Inactive)
REMARK    1  A    between atoms: C_2  and  C_3
REMARK    2  A    between atoms: C_3  and  O_4
REMARK    3  A    between atoms: O_4  and  C_5
REMARK    4  A    between atoms: C_5  and  C_7
REMARK    5  A    between atoms: C_7  and  O_8
REMARK    6  A    between atoms: O_8  and  C_9
REMARK    7  A    between atoms: N_16  and  C_17
REMARK                            x       y       z     vdW  Elec       q    Type
REMARK                         _______ _______ _______ _____ _____    ______ ____
ROOT
ATOM      1  C   UNL     1       7.463   4.846  17.710  0.00  0.00    +0.000 C 
ATOM      2  O   UNL     1       8.274   4.511  18.566  0.00  0.00    +0.000 OA
ENDROOT
BRANCH   1   3
ATOM      3  O   UNL     1       7.604   4.597  16.375  0.00  0.00    +0.000 OA
BRANCH   3   4
ATOM      4  C   UNL     1       6.404   4.828  15.637  0.00  0.00    +0.000 C 
BRANCH   4   6
ATOM      5  O   UNL     1       7.516   5.332  13.543  0.00  0.00    +0.000 OA
ATOM      6  C   UNL     1       6.661   4.673  14.133  0.00  0.00    +0.000 C 
ATOM      7  N   UNL     1       5.855   3.734  13.518  0.00  0.00    +0.000 N 
ATOM      8  H   UNL     1       5.254   3.156  14.094  0.00  0.00    +0.000 HD
BRANCH   7   9
ATOM      9  C   UNL     1       5.988   3.392  12.136  0.00  0.00    +0.000 C 
ATOM     10  C   UNL     1       5.841   1.966  11.679  0.00  0.00    +0.000 C 
ATOM     11  C   UNL     1       4.778   2.972  11.346  0.00  0.00    +0.000 C 
ENDBRANCH   7   9
ENDBRANCH   4   6
ENDBRANCH   3   4
ENDBRANCH   1   3
BRANCH   1  12
ATOM     12  C   UNL     1       6.213   5.660  17.969  0.00  0.00    +0.000 C 
BRANCH  12  13
ATOM     13  O   UNL     1       5.646   5.320  19.224  0.00  0.00    +0.000 OA
BRANCH  13  14
ATOM     14  C   UNL     1       4.419   4.715  19.198  0.00  0.00    +0.000 A 
ATOM     15  C   UNL     1       3.253   5.184  19.811  0.00  0.00    +0.000 A 
ATOM     16  C   UNL     1       2.055   4.467  19.685  0.00  0.00    +0.000 A 
ATOM     17  C   UNL     1       2.027   3.283  18.953  0.00  0.00    +0.000 A 
ATOM     18 CL   UNL     1       0.552   2.412  18.793  0.00  0.00    +0.000 Cl
ATOM     19  C   UNL     1       3.185   2.803  18.350  0.00  0.00    +0.000 A 
ATOM     20  C   UNL     1       4.376   3.519  18.476  0.00  0.00    +0.000 A 
ENDBRANCH  13  14
ENDBRANCH  12  13
ENDBRANCH   1  12
TORSDOF 7
ENDMDL
MODEL 7
REMARK VINA RESULT:      -6.8      0.883      1.500
REMARK  Name = 
REMARK  7 active torsions:
REMARK  status: ('A' for Active; 'I' for Inactive)
REMARK    1  A    between atoms: C_2  and  C_3
REMARK    2  A    between atoms: C_3  and  O_4
REMARK    3  A    between atoms: O_4  and  C_5
REMARK    4  A    between atoms: C_5  and  C_7
REMARK    5  A    between atoms: C_7  and  O_8
REMARK    6  A    between atoms: O_8  and  C_9
REMARK    7  A    between atoms: N_16  and  C_17
REMARK                            x       y       z     vdW  Elec       q    Type
REMARK                         _______ _______ _______ _____ _____    ______ ____
ROOT
ATOM      1  C   UNL     1       7.584   5.029  17.775  0.00  0.00    +0.000 C 
ATOM      2  O   UNL     1       8.327   4.485  18.584  0.00  0.00    +0.000 OA
ENDROOT
BRANCH   1   3
ATOM      3  O   UNL     1       7.707   4.917  16.419  0.00  0.00    +0.000 OA
BRANCH   3   4
ATOM      4  C   UNL     1       6.455   4.712  15.764  0.00  0.00    +0.000 C 
BRANCH   4   6
ATOM      5  O   UNL     1       7.483   5.352  13.664  0.00  0.00    +0.000 OA
ATOM      6  C   UNL     1       6.648   4.659  14.243  0.00  0.00    +0.000 C 
ATOM      7  N   UNL     1       5.811   3.767  13.600  0.00  0.00    +0.000 N 
ATOM      8  H   UNL     1       5.230   3.154  14.160  0.00  0.00    +0.000 HD
BRANCH   7   9
ATOM      9  C   UNL     1       5.885   3.520  12.194  0.00  0.00    +0.000 C 
ATOM     10  C   UNL     1       5.743   2.124  11.650  0.00  0.00    +0.000 C 
ATOM     11  C   UNL     1       4.646   3.125  11.435  0.00  0.00    +0.000 C 
ENDBRANCH   7   9
ENDBRANCH   4   6
ENDBRANCH   3   4
ENDBRANCH   1   3
BRANCH   1  12
ATOM     12  C   UNL     1       6.461   5.980  18.129  0.00  0.00    +0.000 C 
BRANCH  12  13
ATOM     13  O   UNL     1       5.875   5.621  19.370  0.00  0.00    +0.000 OA
BRANCH  13  14
ATOM     14  C   UNL     1       4.736   4.865  19.314  0.00  0.00    +0.000 A 
ATOM     15  C   UNL     1       4.663   3.502  19.014  0.00  0.00    +0.000 A 
ATOM     16  C   UNL     1       3.422   2.847  19.011  0.00  0.00    +0.000 A 
ATOM     17  C   UNL     1       2.261   3.558  19.301  0.00  0.00    +0.000 A 
ATOM     18 CL   UNL     1       0.743   2.750  19.305  0.00  0.00    +0.000 Cl
ATOM     19  C   UNL     1       2.324   4.918  19.588  0.00  0.00    +0.000 A 
ATOM     20  C   UNL     1       3.559   5.567  19.592  0.00  0.00    +0.000 A 
ENDBRANCH  13  14
ENDBRANCH  12  13
ENDBRANCH   1  12
TORSDOF 7
ENDMDL
MODEL 8
REMARK VINA RESULT:      -6.8      1.259      1.485
REMARK  Name = 
REMARK  7 active torsions:
REMARK  status: ('A' for Active; 'I' for Inactive)
REMARK    1  A    between atoms: C_2  and  C_3
REMARK    2  A    between atoms: C_3  and  O_4
REMARK    3  A    between atoms: O_4  and  C_5
REMARK    4  A    between atoms: C_5  and  C_7
REMARK    5  A    between atoms: C_7  and  O_8
REMARK    6  A    between atoms: O_8  and  C_9
REMARK    7  A    between atoms: N_16  and  C_17
REMARK                            x       y       z     vdW  Elec       q    Type
REMARK                         _______ _______ _______ _____ _____    ______ ____
ROOT
ATOM      1  C   UNL     1       6.967   6.268  17.208  0.00  0.00    +0.000 C 
ATOM      2  O   UNL     1       7.308   7.218  17.902  0.00  0.00    +0.000 OA
ENDROOT
BRANCH   1   3
ATOM      3  O   UNL     1       7.423   6.035  15.942  0.00  0.00    +0.000 OA
BRANCH   3   4
ATOM      4  C   UNL     1       7.184   4.698  15.502  0.00  0.00    +0.000 C 
BRANCH   4   6
ATOM      5  O   UNL     1       7.656   5.441  13.244  0.00  0.00    +0.000 OA
ATOM      6  C   UNL     1       7.062   4.649  13.974  0.00  0.00    +0.000 C 
ATOM      7  N   UNL     1       6.239   3.643  13.507  0.00  0.00    +0.000 N 
ATOM      8  H   UNL     1       5.876   2.965  14.167  0.00  0.00    +0.000 HD
BRANCH   7   9
ATOM      9  C   UNL     1       6.051   3.387  12.113  0.00  0.00    +0.000 C 
ATOM     10  C   UNL     1       5.668   2.015  11.628  0.00  0.00    +0.000 C 
ATOM     11  C   UNL     1       4.669   3.133  11.575  0.00  0.00    +0.000 C 
ENDBRANCH   7   9
ENDBRANCH   4   6
ENDBRANCH   3   4
ENDBRANCH   1   3
BRANCH   1  12
ATOM     12  C   UNL     1       5.927   5.238  17.595  0.00  0.00    +0.000 C 
BRANCH  12  13
ATOM     13  O   UNL     1       4.639   5.829  17.661  0.00  0.00    +0.000 OA
BRANCH  13  14
ATOM     14  C   UNL     1       3.668   5.112  18.306  0.00  0.00    +0.000 A 
ATOM     15  C   UNL     1       2.763   4.227  17.712  0.00  0.00    +0.000 A 
ATOM     16  C   UNL     1       1.828   3.542  18.502  0.00  0.00    +0.000 A 
ATOM     17  C   UNL     1       1.798   3.748  19.878  0.00  0.00    +0.000 A 
ATOM     18 CL   UNL     1       0.656   2.898  20.844  0.00  0.00    +0.000 Cl
ATOM     19  C   UNL     1       2.687   4.636  20.475  0.00  0.00    +0.000 A 
ATOM     20  C   UNL     1       3.617   5.316  19.688  0.00  0.00    +0.000 A 
ENDBRANCH  13  14
ENDBRANCH  12  13
ENDBRANCH   1  12
TORSDOF 7
ENDMDL
MODEL 9
REMARK VINA RESULT:      -6.7      1.250      1.271
REMARK  Name = 
REMARK  7 active torsions:
REMARK  status: ('A' for Active; 'I' for Inactive)
REMARK    1  A    between atoms: C_2  and  C_3
REMARK    2  A    between atoms: C_3  and  O_4
REMARK    3  A    between atoms: O_4  and  C_5
REMARK    4  A    between atoms: C_5  and  C_7
REMARK    5  A    between atoms: C_7  and  O_8
REMARK    6  A    between atoms: O_8  and  C_9
REMARK    7  A    between atoms: N_16  and  C_17
REMARK                            x       y       z     vdW  Elec       q    Type
REMARK                         _______ _______ _______ _____ _____    ______ ____
ROOT
ATOM      1  C   UNL     1       6.897   6.068  17.355  0.00  0.00    +0.000 C 
ATOM      2  O   UNL     1       7.892   6.783  17.359  0.00  0.00    +0.000 OA
ENDROOT
BRANCH   1   3
ATOM      3  O   UNL     1       6.280   5.611  16.225  0.00  0.00    +0.000 OA
BRANCH   3   4
ATOM      4  C   UNL     1       6.915   4.458  15.673  0.00  0.00    +0.000 C 
BRANCH   4   6
ATOM      5  O   UNL     1       7.496   5.363  13.500  0.00  0.00    +0.000 OA
ATOM      6  C   UNL     1       6.884   4.510  14.141  0.00  0.00    +0.000 C 
ATOM      7  N   UNL     1       6.117   3.518  13.559  0.00  0.00    +0.000 N 
ATOM      8  H   UNL     1       5.736   2.789  14.150  0.00  0.00    +0.000 HD
BRANCH   7   9
ATOM      9  C   UNL     1       6.018   3.352  12.143  0.00  0.00    +0.000 C 
ATOM     10  C   UNL     1       5.585   2.038  11.551  0.00  0.00    +0.000 C 
ATOM     11  C   UNL     1       4.666   3.223  11.495  0.00  0.00    +0.000 C 
ENDBRANCH   7   9
ENDBRANCH   4   6
ENDBRANCH   3   4
ENDBRANCH   1   3
BRANCH   1  12
ATOM     12  C   UNL     1       6.133   5.634  18.588  0.00  0.00    +0.000 C 
BRANCH  12  13
ATOM     13  O   UNL     1       4.747   5.895  18.435  0.00  0.00    +0.000 OA
BRANCH  13  14
ATOM     14  C   UNL     1       3.899   5.196  19.250  0.00  0.00    +0.000 A 
ATOM     15  C   UNL     1       2.780   5.710  19.913  0.00  0.00    +0.000 A 
ATOM     16  C   UNL     1       1.985   4.869  20.705  0.00  0.00    +0.000 A 
ATOM     17  C   UNL     1       2.313   3.523  20.836  0.00  0.00    +0.000 A 
ATOM     18 CL   UNL     1       1.329   2.494  21.801  0.00  0.00    +0.000 Cl
ATOM     19  C   UNL     1       3.431   3.007  20.190  0.00  0.00    +0.000 A 
ATOM     20  C   UNL     1       4.221   3.844  19.401  0.00  0.00    +0.000 A 
ENDBRANCH  13  14
ENDBRANCH  12  13
ENDBRANCH   1  12
TORSDOF 7
ENDMDL
