MODEL 1
REMARK VINA RESULT:      -7.9      0.000      0.000
REMARK  Name = 
REMARK  4 active torsions:
REMARK  status: ('A' for Active; 'I' for Inactive)
REMARK    1  A    between atoms: O_1  and  C_2
REMARK    2  A    between atoms: C_2  and  C_3
REMARK    3  A    between atoms: C_2  and  C_9
REMARK    4  A    between atoms: C_2  and  C_15
REMARK                            x       y       z     vdW  Elec       q    Type
REMARK                         _______ _______ _______ _____ _____    ______ ____
ROOT
ATOM      1  C   UNL     1       3.716   5.530  18.764  0.00  0.00    +0.000 C 
ENDROOT
BRANCH   1   2
ATOM      2  C   UNL     1       2.866   6.836  18.793  0.00  0.00    +0.000 A 
ATOM      3  C   UNL     1       2.860   7.739  17.708  0.00  0.00    +0.000 A 
ATOM      4  C   UNL     1       2.123   8.931  17.741  0.00  0.00    +0.000 A 
ATOM      5  C   UNL     1       1.425   9.294  18.890  0.00  0.00    +0.000 A 
ATOM      6 CL   UNL     1       0.545  10.779  18.865  0.00  0.00    +0.000 Cl
ATOM      7  C   UNL     1       1.476   8.464  20.010  0.00  0.00    +0.000 A 
ATOM      8 CL   UNL     1       0.716   8.887  21.504  0.00  0.00    +0.000 Cl
ATOM      9  C   UNL     1       2.181   7.251  19.956  0.00  0.00    +0.000 A 
ENDBRANCH   1   2
BRANCH   1  10
ATOM     10  C   UNL     1       4.823   5.498  17.664  0.00  0.00    +0.000 A 
ATOM     11  C   UNL     1       4.616   4.901  16.402  0.00  0.00    +0.000 A 
ATOM     12  C   UNL     1       5.642   4.840  15.450  0.00  0.00    +0.000 A 
ATOM     13  C   UNL     1       6.886   5.412  15.711  0.00  0.00    +0.000 A 
ATOM     14  C   UNL     1       7.090   6.075  16.912  0.00  0.00    +0.000 A 
ATOM     15  C   UNL     1       6.072   6.137  17.870  0.00  0.00    +0.000 A 
ENDBRANCH   1  10
BRANCH   1  16
ATOM     16  C   UNL     1       2.885   4.250  18.727  0.00  0.00    +0.000 A 
ATOM     17  C   UNL     1       3.328   3.053  19.274  0.00  0.00    +0.000 A 
ATOM     18  N   UNL     1       2.632   1.895  19.260  0.00  0.00    +0.000 NA
ATOM     19  C   UNL     1       1.427   1.952  18.683  0.00  0.00    +0.000 A 
ATOM     20  N   UNL     1       0.874   3.042  18.132  0.00  0.00    +0.000 NA
ATOM     21  C   UNL     1       1.621   4.167  18.172  0.00  0.00    +0.000 A 
ENDBRANCH   1  16
BRANCH   1  22
ATOM     22  O   UNL     1       4.301   5.582  20.082  0.00  0.00    +0.000 OA
ATOM     23  H   UNL     1       3.724   6.079  20.679  0.00  0.00    +0.000 HD
ENDBRANCH   1  22
TORSDOF 4
ENDMDL
MODEL 2
REMARK VINA RESULT:      -7.9      0.062      1.027
REMARK  Name = 
REMARK  4 active torsions:
REMARK  status: ('A' for Active; 'I' for Inactive)
REMARK    1  A    between atoms: O_1  and  C_2
REMARK    2  A    between atoms: C_2  and  C_3
REMARK    3  A    between atoms: C_2  and  C_9
REMARK    4  A    between atoms: C_2  and  C_15
REMARK                            x       y       z     vdW  Elec       q    Type
REMARK                         _______ _______ _______ _____ _____    ______ ____
ROOT
ATOM      1  C   UNL     1       3.714   5.508  18.754  0.00  0.00    +0.000 C 
ENDROOT
BRANCH   1   2
ATOM      2  C   UNL     1       2.873   6.820  18.775  0.00  0.00    +0.000 A 
ATOM      3  C   UNL     1       2.891   7.729  17.695  0.00  0.00    +0.000 A 
ATOM      4  C   UNL     1       2.162   8.925  17.721  0.00  0.00    +0.000 A 
ATOM      5  C   UNL     1       1.448   9.288  18.860  0.00  0.00    +0.000 A 
ATOM      6 CL   UNL     1       0.578  10.779  18.829  0.00  0.00    +0.000 Cl
ATOM      7  C   UNL     1       1.475   8.453  19.977  0.00  0.00    +0.000 A 
ATOM      8 CL   UNL     1       0.693   8.874  21.461  0.00  0.00    +0.000 Cl
ATOM      9  C   UNL     1       2.172   7.234  19.929  0.00  0.00    +0.000 A 
ENDBRANCH   1   2
BRANCH   1  10
ATOM     10  C   UNL     1       4.825   5.466  17.659  0.00  0.00    +0.000 A 
ATOM     11  C   UNL     1       6.102   6.031  17.857  0.00  0.00    +0.000 A 
ATOM     12  C   UNL     1       7.066   6.026  16.840  0.00  0.00    +0.000 A 
ATOM     13  C   UNL     1       6.800   5.415  15.616  0.00  0.00    +0.000 A 
ATOM     14  C   UNL     1       5.582   4.780  15.424  0.00  0.00    +0.000 A 
ATOM     15  C   UNL     1       4.613   4.786  16.433  0.00  0.00    +0.000 A 
ENDBRANCH   1  10
BRANCH   1  16
ATOM     16  C   UNL     1       2.874   4.234  18.717  0.00  0.00    +0.000 A 
ATOM     17  C   UNL     1       3.290   3.046  19.302  0.00  0.00    +0.000 A 
ATOM     18  N   UNL     1       2.586   1.892  19.290  0.00  0.00    +0.000 NA
ATOM     19  C   UNL     1       1.400   1.947  18.673  0.00  0.00    +0.000 A 
ATOM     20  N   UNL     1       0.874   3.028  18.082  0.00  0.00    +0.000 NA
ATOM     21  C   UNL     1       1.628   4.148  18.122  0.00  0.00    +0.000 A 
ENDBRANCH   1  16
BRANCH   1  22
ATOM     22  O   UNL     1       4.292   5.560  20.075  0.00  0.00    +0.000 OA
ATOM     23  H   UNL     1       4.004   6.364  20.529  0.00  0.00    +0.000 HD
ENDBRANCH   1  22
TORSDOF 4
ENDMDL
MODEL 3
REMARK VINA RESULT:      -7.9      0.035      1.003
REMARK  Name = 
REMARK  4 active torsions:
REMARK  status: ('A' for Active; 'I' for Inactive)
REMARK    1  A    between atoms: O_1  and  C_2
REMARK    2  A    between atoms: C_2  and  C_3
REMARK    3  A    between atoms: C_2  and  C_9
REMARK    4  A    between atoms: C_2  and  C_15
REMARK                            x       y       z     vdW  Elec       q    Type
REMARK                         _______ _______ _______ _____ _____    ______ ____
ROOT
ATOM      1  C   UNL     1       3.732   5.510  18.759  0.00  0.00    +0.000 C 
ENDROOT
BRANCH   1   2
ATOM      2  C   UNL     1       2.884   6.817  18.783  0.00  0.00    +0.000 A 
ATOM      3  C   UNL     1       2.890   7.723  17.700  0.00  0.00    +0.000 A 
ATOM      4  C   UNL     1       2.154   8.915  17.728  0.00  0.00    +0.000 A 
ATOM      5  C   UNL     1       1.445   9.277  18.871  0.00  0.00    +0.000 A 
ATOM      6 CL   UNL     1       0.567  10.763  18.842  0.00  0.00    +0.000 Cl
ATOM      7  C   UNL     1       1.484   8.445  19.989  0.00  0.00    +0.000 A 
ATOM      8 CL   UNL     1       0.710   8.864  21.477  0.00  0.00    +0.000 Cl
ATOM      9  C   UNL     1       2.188   7.230  19.940  0.00  0.00    +0.000 A 
ENDBRANCH   1   2
BRANCH   1  10
ATOM     10  C   UNL     1       4.833   5.469  17.653  0.00  0.00    +0.000 A 
ATOM     11  C   UNL     1       4.618   4.864  16.397  0.00  0.00    +0.000 A 
ATOM     12  C   UNL     1       5.638   4.794  15.439  0.00  0.00    +0.000 A 
ATOM     13  C   UNL     1       6.885   5.366  15.689  0.00  0.00    +0.000 A 
ATOM     14  C   UNL     1       7.097   6.037  16.885  0.00  0.00    +0.000 A 
ATOM     15  C   UNL     1       6.085   6.107  17.847  0.00  0.00    +0.000 A 
ENDBRANCH   1  10
BRANCH   1  16
ATOM     16  C   UNL     1       2.900   4.231  18.736  0.00  0.00    +0.000 A 
ATOM     17  C   UNL     1       1.643   4.166  18.151  0.00  0.00    +0.000 A 
ATOM     18  N   UNL     1       0.866   3.061  18.111  0.00  0.00    +0.000 NA
ATOM     19  C   UNL     1       1.392   1.967  18.674  0.00  0.00    +0.000 A 
ATOM     20  N   UNL     1       2.595   1.887  19.258  0.00  0.00    +0.000 NA
ATOM     21  C   UNL     1       3.321   3.026  19.271  0.00  0.00    +0.000 A 
ENDBRANCH   1  16
BRANCH   1  22
ATOM     22  O   UNL     1       4.324   5.572  20.074  0.00  0.00    +0.000 OA
ATOM     23  H   UNL     1       5.115   6.128  20.053  0.00  0.00    +0.000 HD
ENDBRANCH   1  22
TORSDOF 4
ENDMDL
MODEL 4
REMARK VINA RESULT:      -7.9      0.054      1.435
REMARK  Name = 
REMARK  4 active torsions:
REMARK  status: ('A' for Active; 'I' for Inactive)
REMARK    1  A    between atoms: O_1  and  C_2
REMARK    2  A    between atoms: C_2  and  C_3
REMARK    3  A    between atoms: C_2  and  C_9
REMARK    4  A    between atoms: C_2  and  C_15
REMARK                            x       y       z     vdW  Elec       q    Type
REMARK                         _______ _______ _______ _____ _____    ______ ____
ROOT
ATOM      1  C   UNL     1       3.717   5.513  18.770  0.00  0.00    +0.000 C 
ENDROOT
BRANCH   1   2
ATOM      2  C   UNL     1       2.869   6.820  18.788  0.00  0.00    +0.000 A 
ATOM      3  C   UNL     1       2.867   7.718  17.698  0.00  0.00    +0.000 A 
ATOM      4  C   UNL     1       2.131   8.910  17.722  0.00  0.00    +0.000 A 
ATOM      5  C   UNL     1       1.430   9.280  18.866  0.00  0.00    +0.000 A 
ATOM      6 CL   UNL     1       0.550  10.766  18.830  0.00  0.00    +0.000 Cl
ATOM      7  C   UNL     1       1.475   8.457  19.990  0.00  0.00    +0.000 A 
ATOM      8 CL   UNL     1       0.710   8.888  21.479  0.00  0.00    +0.000 Cl
ATOM      9  C   UNL     1       2.179   7.242  19.946  0.00  0.00    +0.000 A 
ENDBRANCH   1   2
BRANCH   1  10
ATOM     10  C   UNL     1       4.828   5.474  17.674  0.00  0.00    +0.000 A 
ATOM     11  C   UNL     1       6.108   6.032  17.876  0.00  0.00    +0.000 A 
ATOM     12  C   UNL     1       7.072   6.030  16.860  0.00  0.00    +0.000 A 
ATOM     13  C   UNL     1       6.802   5.431  15.630  0.00  0.00    +0.000 A 
ATOM     14  C   UNL     1       5.581   4.805  15.433  0.00  0.00    +0.000 A 
ATOM     15  C   UNL     1       4.612   4.807  16.442  0.00  0.00    +0.000 A 
ENDBRANCH   1  10
BRANCH   1  16
ATOM     16  C   UNL     1       2.885   4.234  18.736  0.00  0.00    +0.000 A 
ATOM     17  C   UNL     1       1.629   4.174  18.149  0.00  0.00    +0.000 A 
ATOM     18  N   UNL     1       0.852   3.068  18.099  0.00  0.00    +0.000 NA
ATOM     19  C   UNL     1       1.377   1.970  18.654  0.00  0.00    +0.000 A 
ATOM     20  N   UNL     1       2.580   1.887  19.239  0.00  0.00    +0.000 NA
ATOM     21  C   UNL     1       3.306   3.026  19.262  0.00  0.00    +0.000 A 
ENDBRANCH   1  16
BRANCH   1  22
ATOM     22  O   UNL     1       4.296   5.572  20.090  0.00  0.00    +0.000 OA
ATOM     23  H   UNL     1       4.293   6.485  20.411  0.00  0.00    +0.000 HD
ENDBRANCH   1  22
TORSDOF 4
ENDMDL
MODEL 5
REMARK VINA RESULT:      -7.3      2.317      4.000
REMARK  Name = 
REMARK  4 active torsions:
REMARK  status: ('A' for Active; 'I' for Inactive)
REMARK    1  A    between atoms: O_1  and  C_2
REMARK    2  A    between atoms: C_2  and  C_3
REMARK    3  A    between atoms: C_2  and  C_9
REMARK    4  A    between atoms: C_2  and  C_15
REMARK                            x       y       z     vdW  Elec       q    Type
REMARK                         _______ _______ _______ _____ _____    ______ ____
ROOT
ATOM      1  C   UNL     1       3.883   5.859  17.679  0.00  0.00    +0.000 C 
ENDROOT
BRANCH   1   2
ATOM      2  C   UNL     1       2.993   7.036  18.182  0.00  0.00    +0.000 A 
ATOM      3  C   UNL     1       2.768   8.184  17.392  0.00  0.00    +0.000 A 
ATOM      4  C   UNL     1       1.995   9.259  17.852  0.00  0.00    +0.000 A 
ATOM      5  C   UNL     1       1.483   9.253  19.147  0.00  0.00    +0.000 A 
ATOM      6 CL   UNL     1       0.547  10.613  19.652  0.00  0.00    +0.000 Cl
ATOM      7  C   UNL     1       1.755   8.171  19.983  0.00  0.00    +0.000 A 
ATOM      8 CL   UNL     1       1.236   8.127  21.632  0.00  0.00    +0.000 Cl
ATOM      9  C   UNL     1       2.493   7.077  19.502  0.00  0.00    +0.000 A 
ENDBRANCH   1   2
BRANCH   1  10
ATOM     10  C   UNL     1       3.250   4.444  17.854  0.00  0.00    +0.000 A 
ATOM     11  C   UNL     1       1.892   4.259  18.190  0.00  0.00    +0.000 A 
ATOM     12  C   UNL     1       1.359   2.980  18.393  0.00  0.00    +0.000 A 
ATOM     13  C   UNL     1       2.153   1.847  18.220  0.00  0.00    +0.000 A 
ATOM     14  C   UNL     1       3.471   1.996  17.812  0.00  0.00    +0.000 A 
ATOM     15  C   UNL     1       4.011   3.271  17.612  0.00  0.00    +0.000 A 
ENDBRANCH   1  10
BRANCH   1  16
ATOM     16  C   UNL     1       5.308   5.882  18.225  0.00  0.00    +0.000 A 
ATOM     17  C   UNL     1       6.347   6.538  17.579  0.00  0.00    +0.000 A 
ATOM     18  N   UNL     1       7.624   6.581  18.020  0.00  0.00    +0.000 NA
ATOM     19  C   UNL     1       7.858   5.946  19.174  0.00  0.00    +0.000 A 
ATOM     20  N   UNL     1       6.947   5.289  19.905  0.00  0.00    +0.000 NA
ATOM     21  C   UNL     1       5.690   5.277  19.409  0.00  0.00    +0.000 A 
ENDBRANCH   1  16
BRANCH   1  22
ATOM     22  O   UNL     1       3.990   6.207  16.282  0.00  0.00    +0.000 OA
ATOM     23  H   UNL     1       3.893   5.414  15.737  0.00  0.00    +0.000 HD
ENDBRANCH   1  22
TORSDOF 4
ENDMDL
MODEL 6
REMARK VINA RESULT:      -7.2      2.309      4.042
REMARK  Name = 
REMARK  4 active torsions:
REMARK  status: ('A' for Active; 'I' for Inactive)
REMARK    1  A    between atoms: O_1  and  C_2
REMARK    2  A    between atoms: C_2  and  C_3
REMARK    3  A    between atoms: C_2  and  C_9
REMARK    4  A    between atoms: C_2  and  C_15
REMARK                            x       y       z     vdW  Elec       q    Type
REMARK                         _______ _______ _______ _____ _____    ______ ____
ROOT
ATOM      1  C   UNL     1       3.878   5.808  17.717  0.00  0.00    +0.000 C 
ENDROOT
BRANCH   1   2
ATOM      2  C   UNL     1       2.987   6.990  18.204  0.00  0.00    +0.000 A 
ATOM      3  C   UNL     1       2.736   8.114  17.387  0.00  0.00    +0.000 A 
ATOM      4  C   UNL     1       1.961   9.194  17.831  0.00  0.00    +0.000 A 
ATOM      5  C   UNL     1       1.473   9.220  19.134  0.00  0.00    +0.000 A 
ATOM      6 CL   UNL     1       0.533  10.584  19.619  0.00  0.00    +0.000 Cl
ATOM      7  C   UNL     1       1.771   8.164  19.995  0.00  0.00    +0.000 A 
ATOM      8 CL   UNL     1       1.282   8.162  21.654  0.00  0.00    +0.000 Cl
ATOM      9  C   UNL     1       2.511   7.064  19.531  0.00  0.00    +0.000 A 
ENDBRANCH   1   2
BRANCH   1  10
ATOM     10  C   UNL     1       3.256   4.393  17.931  0.00  0.00    +0.000 A 
ATOM     11  C   UNL     1       4.001   3.207  17.760  0.00  0.00    +0.000 A 
ATOM     12  C   UNL     1       3.407   1.947  17.908  0.00  0.00    +0.000 A 
ATOM     13  C   UNL     1       2.067   1.835  18.276  0.00  0.00    +0.000 A 
ATOM     14  C   UNL     1       1.333   2.984  18.529  0.00  0.00    +0.000 A 
ATOM     15  C   UNL     1       1.918   4.246  18.379  0.00  0.00    +0.000 A 
ENDBRANCH   1  10
BRANCH   1  16
ATOM     16  C   UNL     1       5.309   5.852  18.247  0.00  0.00    +0.000 A 
ATOM     17  C   UNL     1       6.332   6.519  17.587  0.00  0.00    +0.000 A 
ATOM     18  N   UNL     1       7.613   6.581  18.012  0.00  0.00    +0.000 NA
ATOM     19  C   UNL     1       7.868   5.953  19.166  0.00  0.00    +0.000 A 
ATOM     20  N   UNL     1       6.974   5.287  19.909  0.00  0.00    +0.000 NA
ATOM     21  C   UNL     1       5.713   5.256  19.428  0.00  0.00    +0.000 A 
ENDBRANCH   1  16
BRANCH   1  22
ATOM     22  O   UNL     1       3.968   6.125  16.312  0.00  0.00    +0.000 OA
ATOM     23  H   UNL     1       3.252   5.690  15.830  0.00  0.00    +0.000 HD
ENDBRANCH   1  22
TORSDOF 4
ENDMDL
MODEL 7
REMARK VINA RESULT:      -7.2      2.308      3.983
REMARK  Name = 
REMARK  4 active torsions:
REMARK  status: ('A' for Active; 'I' for Inactive)
REMARK    1  A    between atoms: O_1  and  C_2
REMARK    2  A    between atoms: C_2  and  C_3
REMARK    3  A    between atoms: C_2  and  C_9
REMARK    4  A    between atoms: C_2  and  C_15
REMARK                            x       y       z     vdW  Elec       q    Type
REMARK                         _______ _______ _______ _____ _____    ______ ____
ROOT
ATOM      1  C   UNL     1       3.889   5.830  17.711  0.00  0.00    +0.000 C 
ENDROOT
BRANCH   1   2
ATOM      2  C   UNL     1       2.994   7.006  18.204  0.00  0.00    +0.000 A 
ATOM      3  C   UNL     1       2.748   8.139  17.397  0.00  0.00    +0.000 A 
ATOM      4  C   UNL     1       1.970   9.214  17.846  0.00  0.00    +0.000 A 
ATOM      5  C   UNL     1       1.471   9.225  19.146  0.00  0.00    +0.000 A 
ATOM      6 CL   UNL     1       0.527  10.584  19.638  0.00  0.00    +0.000 Cl
ATOM      7  C   UNL     1       1.763   8.160  19.998  0.00  0.00    +0.000 A 
ATOM      8 CL   UNL     1       1.261   8.140  21.652  0.00  0.00    +0.000 Cl
ATOM      9  C   UNL     1       2.507   7.065  19.528  0.00  0.00    +0.000 A 
ENDBRANCH   1   2
BRANCH   1  10
ATOM     10  C   UNL     1       3.275   4.411  17.924  0.00  0.00    +0.000 A 
ATOM     11  C   UNL     1       4.040   3.231  17.805  0.00  0.00    +0.000 A 
ATOM     12  C   UNL     1       3.455   1.967  17.950  0.00  0.00    +0.000 A 
ATOM     13  C   UNL     1       2.103   1.845  18.266  0.00  0.00    +0.000 A 
ATOM     14  C   UNL     1       1.346   2.989  18.468  0.00  0.00    +0.000 A 
ATOM     15  C   UNL     1       1.922   4.255  18.320  0.00  0.00    +0.000 A 
ENDBRANCH   1  10
BRANCH   1  16
ATOM     16  C   UNL     1       5.322   5.880  18.236  0.00  0.00    +0.000 A 
ATOM     17  C   UNL     1       5.708   5.261  19.416  0.00  0.00    +0.000 A 
ATOM     18  N   UNL     1       6.961   5.282  19.925  0.00  0.00    +0.000 NA
ATOM     19  C   UNL     1       7.867   5.945  19.197  0.00  0.00    +0.000 A 
ATOM     20  N   UNL     1       7.632   6.572  18.036  0.00  0.00    +0.000 NA
ATOM     21  C   UNL     1       6.361   6.520  17.584  0.00  0.00    +0.000 A 
ENDBRANCH   1  16
BRANCH   1  22
ATOM     22  O   UNL     1       3.972   6.150  16.306  0.00  0.00    +0.000 OA
ATOM     23  H   UNL     1       3.712   7.070  16.162  0.00  0.00    +0.000 HD
ENDBRANCH   1  22
TORSDOF 4
ENDMDL
MODEL 8
REMARK VINA RESULT:      -7.1      2.180      4.220
REMARK  Name = 
REMARK  4 active torsions:
REMARK  status: ('A' for Active; 'I' for Inactive)
REMARK    1  A    between atoms: O_1  and  C_2
REMARK    2  A    between atoms: C_2  and  C_3
REMARK    3  A    between atoms: C_2  and  C_9
REMARK    4  A    between atoms: C_2  and  C_15
REMARK                            x       y       z     vdW  Elec       q    Type
REMARK                         _______ _______ _______ _____ _____    ______ ____
ROOT
ATOM      1  C   UNL     1       3.172   5.025  18.509  0.00  0.00    +0.000 C 
ENDROOT
BRANCH   1   2
ATOM      2  C   UNL     1       2.608   6.470  18.661  0.00  0.00    +0.000 A 
ATOM      3  C   UNL     1       2.678   7.407  17.607  0.00  0.00    +0.000 A 
ATOM      4  C   UNL     1       2.201   8.717  17.748  0.00  0.00    +0.000 A 
ATOM      5  C   UNL     1       1.705   9.156  18.973  0.00  0.00    +0.000 A 
ATOM      6 CL   UNL     1       1.141  10.784  19.080  0.00  0.00    +0.000 Cl
ATOM      7  C   UNL     1       1.696   8.281  20.059  0.00  0.00    +0.000 A 
ATOM      8 CL   UNL     1       1.185   8.774  21.635  0.00  0.00    +0.000 Cl
ATOM      9  C   UNL     1       2.136   6.956  19.899  0.00  0.00    +0.000 A 
ENDBRANCH   1   2
BRANCH   1  10
ATOM     10  C   UNL     1       2.708   4.025  19.614  0.00  0.00    +0.000 A 
ATOM     11  C   UNL     1       1.358   3.900  20.000  0.00  0.00    +0.000 A 
ATOM     12  C   UNL     1       0.973   3.033  21.031  0.00  0.00    +0.000 A 
ATOM     13  C   UNL     1       1.917   2.232  21.672  0.00  0.00    +0.000 A 
ATOM     14  C   UNL     1       3.240   2.277  21.257  0.00  0.00    +0.000 A 
ATOM     15  C   UNL     1       3.632   3.144  20.231  0.00  0.00    +0.000 A 
ENDBRANCH   1  10
BRANCH   1  16
ATOM     16  C   UNL     1       4.688   4.967  18.334  0.00  0.00    +0.000 A 
ATOM     17  C   UNL     1       5.290   4.511  17.169  0.00  0.00    +0.000 A 
ATOM     18  N   UNL     1       6.625   4.435  16.970  0.00  0.00    +0.000 NA
ATOM     19  C   UNL     1       7.385   4.855  17.987  0.00  0.00    +0.000 A 
ATOM     20  N   UNL     1       6.934   5.331  19.156  0.00  0.00    +0.000 NA
ATOM     21  C   UNL     1       5.592   5.377  19.297  0.00  0.00    +0.000 A 
ENDBRANCH   1  16
BRANCH   1  22
ATOM     22  O   UNL     1       2.614   4.672  17.226  0.00  0.00    +0.000 OA
ATOM     23  H   UNL     1       2.086   3.866  17.307  0.00  0.00    +0.000 HD
ENDBRANCH   1  22
TORSDOF 4
ENDMDL
MODEL 9
REMARK VINA RESULT:      -7.1      2.297      3.996
REMARK  Name = 
REMARK  4 active torsions:
REMARK  status: ('A' for Active; 'I' for Inactive)
REMARK    1  A    between atoms: O_1  and  C_2
REMARK    2  A    between atoms: C_2  and  C_3
REMARK    3  A    between atoms: C_2  and  C_9
REMARK    4  A    between atoms: C_2  and  C_15
REMARK                            x       y       z     vdW  Elec       q    Type
REMARK                         _______ _______ _______ _____ _____    ______ ____
ROOT
ATOM      1  C   UNL     1       3.777   5.775  17.780  0.00  0.00    +0.000 C 
ENDROOT
BRANCH   1   2
ATOM      2  C   UNL     1       2.916   6.981  18.262  0.00  0.00    +0.000 A 
ATOM      3  C   UNL     1       2.713   8.118  17.450  0.00  0.00    +0.000 A 
ATOM      4  C   UNL     1       1.966   9.219  17.890  0.00  0.00    +0.000 A 
ATOM      5  C   UNL     1       1.459   9.251  19.186  0.00  0.00    +0.000 A 
ATOM      6 CL   UNL     1       0.555  10.641  19.667  0.00  0.00    +0.000 Cl
ATOM      7  C   UNL     1       1.710   8.180  20.044  0.00  0.00    +0.000 A 
ATOM      8 CL   UNL     1       1.196   8.182  21.695  0.00  0.00    +0.000 Cl
ATOM      9  C   UNL     1       2.422   7.060  19.583  0.00  0.00    +0.000 A 
ENDBRANCH   1   2
BRANCH   1  10
ATOM     10  C   UNL     1       3.166   4.373  18.091  0.00  0.00    +0.000 A 
ATOM     11  C   UNL     1       2.014   4.212  18.889  0.00  0.00    +0.000 A 
ATOM     12  C   UNL     1       1.514   2.940  19.196  0.00  0.00    +0.000 A 
ATOM     13  C   UNL     1       2.120   1.796  18.678  0.00  0.00    +0.000 A 
ATOM     14  C   UNL     1       3.206   1.930  17.825  0.00  0.00    +0.000 A 
ATOM     15  C   UNL     1       3.714   3.197  17.518  0.00  0.00    +0.000 A 
ENDBRANCH   1  10
BRANCH   1  16
ATOM     16  C   UNL     1       5.235   5.836  18.228  0.00  0.00    +0.000 A 
ATOM     17  C   UNL     1       5.711   5.131  19.325  0.00  0.00    +0.000 A 
ATOM     18  N   UNL     1       6.990   5.158  19.764  0.00  0.00    +0.000 NA
ATOM     19  C   UNL     1       7.828   5.918  19.051  0.00  0.00    +0.000 A 
ATOM     20  N   UNL     1       7.504   6.636  17.966  0.00  0.00    +0.000 NA
ATOM     21  C   UNL     1       6.211   6.573  17.581  0.00  0.00    +0.000 A 
ENDBRANCH   1  16
BRANCH   1  22
ATOM     22  O   UNL     1       3.790   6.029  16.360  0.00  0.00    +0.000 OA
ATOM     23  H   UNL     1       4.143   6.913  16.186  0.00  0.00    +0.000 HD
ENDBRANCH   1  22
TORSDOF 4
ENDMDL
