MODEL 1
REMARK VINA RESULT:      -7.1      0.000      0.000
REMARK  Name = 
REMARK  12 active torsions:
REMARK  status: ('A' for Active; 'I' for Inactive)
REMARK    1  A    between atoms: C_1  and  C_2
REMARK    2  A    between atoms: C_2  and  C_3
REMARK    3  A    between atoms: C_2  and  C_4
REMARK    4  A    between atoms: C_6  and  C_7
REMARK    5  A    between atoms: C_7  and  C_8
REMARK    6  A    between atoms: C_7  and  C_9
REMARK    7  A    between atoms: C_7  and  C_10
REMARK    8  A    between atoms: C_12  and  C_13
REMARK    9  A    between atoms: C_20  and  O_21
REMARK   10  A    between atoms: O_21  and  C_22
REMARK   11  A    between atoms: C_22  and  C_23
REMARK   12  A    between atoms: C_25  and  O_26
REMARK                            x       y       z     vdW  Elec       q    Type
REMARK                         _______ _______ _______ _____ _____    ______ ____
ROOT
ATOM      1  C   UNL     1       3.372   5.957  18.454  0.00  0.00    +0.000 A 
ATOM      2  C   UNL     1       3.261   4.642  18.980  0.00  0.00    +0.000 A 
ATOM      3  C   UNL     1       2.540   4.314  20.133  0.00  0.00    +0.000 A 
ATOM      4  C   UNL     1       1.900   5.369  20.785  0.00  0.00    +0.000 A 
ATOM      5  C   UNL     1       1.965   6.717  20.341  0.00  0.00    +0.000 A 
ATOM      6  C   UNL     1       2.745   7.008  19.171  0.00  0.00    +0.000 A 
ENDROOT
BRANCH   5   7
ATOM      7  C   UNL     1       1.156   7.730  21.105  0.00  0.00    +0.000 A 
ATOM      8  C   UNL     1       1.765   8.636  22.008  0.00  0.00    +0.000 A 
ATOM      9  C   UNL     1       1.014   9.515  22.799  0.00  0.00    +0.000 A 
ATOM     10  C   UNL     1      -0.365   9.538  22.671  0.00  0.00    +0.000 A 
ATOM     11  F   UNL     1      -1.088  10.386  23.416  0.00  0.00    +0.000 F 
ATOM     12  C   UNL     1      -1.001   8.682  21.787  0.00  0.00    +0.000 A 
ATOM     13  C   UNL     1      -0.252   7.775  21.033  0.00  0.00    +0.000 A 
ENDBRANCH   5   7
BRANCH   3  14
ATOM     14  C   UNL     1       2.423   2.847  20.582  0.00  0.00    +0.000 C 
ATOM     15  C   UNL     1       3.829   2.257  20.835  0.00  0.00    +0.000 C 
ATOM     16  C   UNL     1       1.611   2.653  21.883  0.00  0.00    +0.000 C 
ATOM     17  C   UNL     1       1.722   2.021  19.481  0.00  0.00    +0.000 C 
ENDBRANCH   3  14
BRANCH   1  19
ATOM     18  C   UNL     1       5.241   6.997  16.977  0.00  0.00    +0.000 C 
ATOM     19  C   UNL     1       4.086   5.996  17.097  0.00  0.00    +0.000 C 
ATOM     20  C   UNL     1       4.352   4.622  16.472  0.00  0.00    +0.000 C 
ENDBRANCH   1  19
BRANCH   6  21
ATOM     21  O   UNL     1       2.719   8.328  18.778  0.00  0.00    +0.000 OA
BRANCH  21  22
ATOM     22  C   UNL     1       1.965   8.665  17.621  0.00  0.00    +0.000 C 
BRANCH  22  23
ATOM     23  C   UNL     1       1.242  10.008  17.780  0.00  0.00    +0.000 C 
ATOM     24  C   UNL     1       1.622  10.744  19.048  0.00  0.00    +0.000 C 
ATOM     25  C   UNL     1       0.655  11.890  19.253  0.00  0.00    +0.000 C 
ATOM     26  C   UNL     1      -0.751  11.353  19.425  0.00  0.00    +0.000 C 
ATOM     27  C   UNL     1      -1.136  10.305  18.416  0.00  0.00    +0.000 C 
ATOM     28  O   UNL     1      -2.305   9.937  18.309  0.00  0.00    +0.000 OA
ATOM     29  O   UNL     1      -0.183   9.780  17.633  0.00  0.00    +0.000 OA
BRANCH  25  30
ATOM     30  O   UNL     1       0.738  12.826  18.177  0.00  0.00    +0.000 OA
ATOM     31  H   UNL     1       0.644  12.366  17.324  0.00  0.00    +0.000 HD
ENDBRANCH  25  30
ENDBRANCH  22  23
ENDBRANCH  21  22
ENDBRANCH   6  21
TORSDOF 7
ENDMDL
MODEL 2
REMARK VINA RESULT:      -6.5      0.838      1.558
REMARK  Name = 
REMARK  12 active torsions:
REMARK  status: ('A' for Active; 'I' for Inactive)
REMARK    1  A    between atoms: C_1  and  C_2
REMARK    2  A    between atoms: C_2  and  C_3
REMARK    3  A    between atoms: C_2  and  C_4
REMARK    4  A    between atoms: C_6  and  C_7
REMARK    5  A    between atoms: C_7  and  C_8
REMARK    6  A    between atoms: C_7  and  C_9
REMARK    7  A    between atoms: C_7  and  C_10
REMARK    8  A    between atoms: C_12  and  C_13
REMARK    9  A    between atoms: C_20  and  O_21
REMARK   10  A    between atoms: O_21  and  C_22
REMARK   11  A    between atoms: C_22  and  C_23
REMARK   12  A    between atoms: C_25  and  O_26
REMARK                            x       y       z     vdW  Elec       q    Type
REMARK                         _______ _______ _______ _____ _____    ______ ____
ROOT
ATOM      1  C   UNL     1       3.355   6.125  18.411  0.00  0.00    +0.000 A 
ATOM      2  C   UNL     1       3.221   4.789  18.875  0.00  0.00    +0.000 A 
ATOM      3  C   UNL     1       2.487   4.420  20.007  0.00  0.00    +0.000 A 
ATOM      4  C   UNL     1       1.857   5.453  20.702  0.00  0.00    +0.000 A 
ATOM      5  C   UNL     1       1.944   6.819  20.320  0.00  0.00    +0.000 A 
ATOM      6  C   UNL     1       2.738   7.151  19.170  0.00  0.00    +0.000 A 
ENDROOT
BRANCH   5   7
ATOM      7  C   UNL     1       1.144   7.808  21.124  0.00  0.00    +0.000 A 
ATOM      8  C   UNL     1       1.771   8.747  21.978  0.00  0.00    +0.000 A 
ATOM      9  C   UNL     1       1.036   9.606  22.807  0.00  0.00    +0.000 A 
ATOM     10  C   UNL     1      -0.348   9.572  22.765  0.00  0.00    +0.000 A 
ATOM     11  F   UNL     1      -1.057  10.399  23.546  0.00  0.00    +0.000 F 
ATOM     12  C   UNL     1      -1.003   8.681  21.931  0.00  0.00    +0.000 A 
ATOM     13  C   UNL     1      -0.266   7.796  21.140  0.00  0.00    +0.000 A 
ENDBRANCH   5   7
BRANCH   3  14
ATOM     14  C   UNL     1       2.345   2.935  20.388  0.00  0.00    +0.000 C 
ATOM     15  C   UNL     1       3.742   2.287  20.517  0.00  0.00    +0.000 C 
ATOM     16  C   UNL     1       1.612   2.700  21.728  0.00  0.00    +0.000 C 
ATOM     17  C   UNL     1       1.546   2.193  19.295  0.00  0.00    +0.000 C 
ENDBRANCH   3  14
BRANCH   1  19
ATOM     18  C   UNL     1       5.200   7.258  16.972  0.00  0.00    +0.000 C 
ATOM     19  C   UNL     1       4.080   6.215  17.061  0.00  0.00    +0.000 C 
ATOM     20  C   UNL     1       4.401   4.863  16.413  0.00  0.00    +0.000 C 
ENDBRANCH   1  19
BRANCH   6  21
ATOM     21  O   UNL     1       2.733   8.488  18.838  0.00  0.00    +0.000 OA
BRANCH  21  22
ATOM     22  C   UNL     1       1.687   8.965  18.002  0.00  0.00    +0.000 C 
BRANCH  22  23
ATOM     23  C   UNL     1       0.862  10.061  18.686  0.00  0.00    +0.000 C 
ATOM     24  C   UNL     1      -0.499  10.265  18.056  0.00  0.00    +0.000 C 
ATOM     25  C   UNL     1      -1.102  11.541  18.603  0.00  0.00    +0.000 C 
ATOM     26  C   UNL     1      -0.231  12.723  18.230  0.00  0.00    +0.000 C 
ATOM     27  C   UNL     1       1.239  12.502  18.470  0.00  0.00    +0.000 C 
ATOM     28  O   UNL     1       2.031  13.441  18.410  0.00  0.00    +0.000 OA
ATOM     29  O   UNL     1       1.669  11.265  18.753  0.00  0.00    +0.000 OA
BRANCH  25  30
ATOM     30  O   UNL     1      -1.297  11.448  20.015  0.00  0.00    +0.000 OA
ATOM     31  H   UNL     1      -1.661  10.575  20.247  0.00  0.00    +0.000 HD
ENDBRANCH  25  30
ENDBRANCH  22  23
ENDBRANCH  21  22
ENDBRANCH   6  21
TORSDOF 7
ENDMDL
MODEL 3
REMARK VINA RESULT:      -6.1      4.413      8.999
REMARK  Name = 
REMARK  12 active torsions:
REMARK  status: ('A' for Active; 'I' for Inactive)
REMARK    1  A    between atoms: C_1  and  C_2
REMARK    2  A    between atoms: C_2  and  C_3
REMARK    3  A    between atoms: C_2  and  C_4
REMARK    4  A    between atoms: C_6  and  C_7
REMARK    5  A    between atoms: C_7  and  C_8
REMARK    6  A    between atoms: C_7  and  C_9
REMARK    7  A    between atoms: C_7  and  C_10
REMARK    8  A    between atoms: C_12  and  C_13
REMARK    9  A    between atoms: C_20  and  O_21
REMARK   10  A    between atoms: O_21  and  C_22
REMARK   11  A    between atoms: C_22  and  C_23
REMARK   12  A    between atoms: C_25  and  O_26
REMARK                            x       y       z     vdW  Elec       q    Type
REMARK                         _______ _______ _______ _____ _____    ______ ____
ROOT
ATOM      1  C   UNL     1      -3.188  13.123  21.177  0.00  0.00    +0.000 A 
ATOM      2  C   UNL     1      -4.556  13.083  21.557  0.00  0.00    +0.000 A 
ATOM      3  C   UNL     1      -5.574  12.524  20.777  0.00  0.00    +0.000 A 
ATOM      4  C   UNL     1      -5.187  11.976  19.553  0.00  0.00    +0.000 A 
ATOM      5  C   UNL     1      -3.846  11.980  19.084  0.00  0.00    +0.000 A 
ATOM      6  C   UNL     1      -2.842  12.597  19.906  0.00  0.00    +0.000 A 
ENDROOT
BRANCH   5   7
ATOM      7  C   UNL     1      -3.573  11.279  17.780  0.00  0.00    +0.000 A 
ATOM      8  C   UNL     1      -2.600  10.256  17.679  0.00  0.00    +0.000 A 
ATOM      9  C   UNL     1      -2.265   9.666  16.452  0.00  0.00    +0.000 A 
ATOM     10  C   UNL     1      -2.933  10.059  15.304  0.00  0.00    +0.000 A 
ATOM     11  F   UNL     1      -2.627   9.491  14.129  0.00  0.00    +0.000 F 
ATOM     12  C   UNL     1      -3.905  11.044  15.360  0.00  0.00    +0.000 A 
ATOM     13  C   UNL     1      -4.203  11.662  16.578  0.00  0.00    +0.000 A 
ENDBRANCH   5   7
BRANCH   3  14
ATOM     14  C   UNL     1      -7.017  12.469  21.310  0.00  0.00    +0.000 C 
ATOM     15  C   UNL     1      -7.014  12.547  22.853  0.00  0.00    +0.000 C 
ATOM     16  C   UNL     1      -7.916  13.618  20.799  0.00  0.00    +0.000 C 
ATOM     17  C   UNL     1      -7.681  11.144  20.874  0.00  0.00    +0.000 C 
ENDBRANCH   3  14
BRANCH   1  19
ATOM     18  C   UNL     1      -2.234  15.171  22.461  0.00  0.00    +0.000 C 
ATOM     19  C   UNL     1      -2.276  13.648  22.293  0.00  0.00    +0.000 C 
ATOM     20  C   UNL     1      -2.341  12.854  23.603  0.00  0.00    +0.000 C 
ENDBRANCH   1  19
BRANCH   6  21
ATOM     21  O   UNL     1      -1.562  12.517  19.404  0.00  0.00    +0.000 OA
BRANCH  21  22
ATOM     22  C   UNL     1      -0.478  12.672  20.311  0.00  0.00    +0.000 C 
BRANCH  22  23
ATOM     23  C   UNL     1       0.240  11.344  20.578  0.00  0.00    +0.000 C 
ATOM     24  C   UNL     1      -0.362  10.178  19.824  0.00  0.00    +0.000 C 
ATOM     25  C   UNL     1       0.218   8.892  20.372  0.00  0.00    +0.000 C 
ATOM     26  C   UNL     1      -0.148   8.745  21.835  0.00  0.00    +0.000 C 
ATOM     27  C   UNL     1       0.062   9.994  22.649  0.00  0.00    +0.000 C 
ATOM     28  O   UNL     1       0.005   9.958  23.877  0.00  0.00    +0.000 OA
ATOM     29  O   UNL     1       0.315  11.146  22.013  0.00  0.00    +0.000 OA
BRANCH  25  30
ATOM     30  O   UNL     1       1.632   8.845  20.171  0.00  0.00    +0.000 OA
ATOM     31  H   UNL     1       1.838   8.921  19.223  0.00  0.00    +0.000 HD
ENDBRANCH  25  30
ENDBRANCH  22  23
ENDBRANCH  21  22
ENDBRANCH   6  21
TORSDOF 7
ENDMDL
MODEL 4
REMARK VINA RESULT:      -6.0      6.251      9.087
REMARK  Name = 
REMARK  12 active torsions:
REMARK  status: ('A' for Active; 'I' for Inactive)
REMARK    1  A    between atoms: C_1  and  C_2
REMARK    2  A    between atoms: C_2  and  C_3
REMARK    3  A    between atoms: C_2  and  C_4
REMARK    4  A    between atoms: C_6  and  C_7
REMARK    5  A    between atoms: C_7  and  C_8
REMARK    6  A    between atoms: C_7  and  C_9
REMARK    7  A    between atoms: C_7  and  C_10
REMARK    8  A    between atoms: C_12  and  C_13
REMARK    9  A    between atoms: C_20  and  O_21
REMARK   10  A    between atoms: O_21  and  C_22
REMARK   11  A    between atoms: C_22  and  C_23
REMARK   12  A    between atoms: C_25  and  O_26
REMARK                            x       y       z     vdW  Elec       q    Type
REMARK                         _______ _______ _______ _____ _____    ______ ____
ROOT
ATOM      1  C   UNL     1      -3.131  12.842  21.331  0.00  0.00    +0.000 A 
ATOM      2  C   UNL     1      -4.523  12.866  21.611  0.00  0.00    +0.000 A 
ATOM      3  C   UNL     1      -5.514  12.449  20.715  0.00  0.00    +0.000 A 
ATOM      4  C   UNL     1      -5.072  11.985  19.476  0.00  0.00    +0.000 A 
ATOM      5  C   UNL     1      -3.703  11.936  19.102  0.00  0.00    +0.000 A 
ATOM      6  C   UNL     1      -2.726  12.406  20.044  0.00  0.00    +0.000 A 
ENDROOT
BRANCH   5   7
ATOM      7  C   UNL     1      -3.379  11.335  17.760  0.00  0.00    +0.000 A 
ATOM      8  C   UNL     1      -4.176  11.598  16.620  0.00  0.00    +0.000 A 
ATOM      9  C   UNL     1      -3.946  10.967  15.390  0.00  0.00    +0.000 A 
ATOM     10  C   UNL     1      -2.882  10.090  15.263  0.00  0.00    +0.000 A 
ATOM     11  F   UNL     1      -2.648   9.492  14.087  0.00  0.00    +0.000 F 
ATOM     12  C   UNL     1      -2.066   9.817  16.349  0.00  0.00    +0.000 A 
ATOM     13  C   UNL     1      -2.326  10.414  17.585  0.00  0.00    +0.000 A 
ENDBRANCH   5   7
BRANCH   3  14
ATOM     14  C   UNL     1      -6.993  12.450  21.141  0.00  0.00    +0.000 C 
ATOM     15  C   UNL     1      -7.654  11.107  20.757  0.00  0.00    +0.000 C 
ATOM     16  C   UNL     1      -7.207  12.643  22.659  0.00  0.00    +0.000 C 
ATOM     17  C   UNL     1      -7.738  13.599  20.426  0.00  0.00    +0.000 C 
ENDBRANCH   3  14
BRANCH   1  19
ATOM     18  C   UNL     1      -2.983  13.984  23.661  0.00  0.00    +0.000 C 
ATOM     19  C   UNL     1      -2.272  13.202  22.550  0.00  0.00    +0.000 C 
ATOM     20  C   UNL     1      -1.348  12.080  23.039  0.00  0.00    +0.000 C 
ENDBRANCH   1  19
BRANCH   6  21
ATOM     21  O   UNL     1      -1.419  12.281  19.625  0.00  0.00    +0.000 OA
BRANCH  21  22
ATOM     22  C   UNL     1      -0.752  13.446  19.161  0.00  0.00    +0.000 C 
BRANCH  22  23
ATOM     23  C   UNL     1       0.494  13.765  19.997  0.00  0.00    +0.000 C 
ATOM     24  C   UNL     1       0.443  15.131  20.647  0.00  0.00    +0.000 C 
ATOM     25  C   UNL     1       1.815  15.461  21.194  0.00  0.00    +0.000 C 
ATOM     26  C   UNL     1       2.820  15.516  20.062  0.00  0.00    +0.000 C 
ATOM     27  C   UNL     1       2.725  14.363  19.099  0.00  0.00    +0.000 C 
ATOM     28  O   UNL     1       3.605  14.172  18.262  0.00  0.00    +0.000 OA
ATOM     29  O   UNL     1       1.666  13.545  19.172  0.00  0.00    +0.000 OA
BRANCH  25  30
ATOM     30  O   UNL     1       2.201  14.525  22.202  0.00  0.00    +0.000 OA
ATOM     31  H   UNL     1       3.151  14.328  22.130  0.00  0.00    +0.000 HD
ENDBRANCH  25  30
ENDBRANCH  22  23
ENDBRANCH  21  22
ENDBRANCH   6  21
TORSDOF 7
ENDMDL
MODEL 5
REMARK VINA RESULT:      -6.0      5.947      8.961
REMARK  Name = 
REMARK  12 active torsions:
REMARK  status: ('A' for Active; 'I' for Inactive)
REMARK    1  A    between atoms: C_1  and  C_2
REMARK    2  A    between atoms: C_2  and  C_3
REMARK    3  A    between atoms: C_2  and  C_4
REMARK    4  A    between atoms: C_6  and  C_7
REMARK    5  A    between atoms: C_7  and  C_8
REMARK    6  A    between atoms: C_7  and  C_9
REMARK    7  A    between atoms: C_7  and  C_10
REMARK    8  A    between atoms: C_12  and  C_13
REMARK    9  A    between atoms: C_20  and  O_21
REMARK   10  A    between atoms: O_21  and  C_22
REMARK   11  A    between atoms: C_22  and  C_23
REMARK   12  A    between atoms: C_25  and  O_26
REMARK                            x       y       z     vdW  Elec       q    Type
REMARK                         _______ _______ _______ _____ _____    ______ ____
ROOT
ATOM      1  C   UNL     1      -3.271  12.956  21.387  0.00  0.00    +0.000 A 
ATOM      2  C   UNL     1      -4.652  12.924  21.718  0.00  0.00    +0.000 A 
ATOM      3  C   UNL     1      -5.652  12.424  20.876  0.00  0.00    +0.000 A 
ATOM      4  C   UNL     1      -5.232  11.930  19.640  0.00  0.00    +0.000 A 
ATOM      5  C   UNL     1      -3.876  11.931  19.218  0.00  0.00    +0.000 A 
ATOM      6  C   UNL     1      -2.891  12.487  20.104  0.00  0.00    +0.000 A 
ENDROOT
BRANCH   5   7
ATOM      7  C   UNL     1      -3.570  11.291  17.890  0.00  0.00    +0.000 A 
ATOM      8  C   UNL     1      -2.507  10.367  17.741  0.00  0.00    +0.000 A 
ATOM      9  C   UNL     1      -2.148   9.841  16.493  0.00  0.00    +0.000 A 
ATOM     10  C   UNL     1      -2.877  10.197  15.370  0.00  0.00    +0.000 A 
ATOM     11  F   UNL     1      -2.548   9.688  14.174  0.00  0.00    +0.000 F 
ATOM     12  C   UNL     1      -3.936  11.084  15.473  0.00  0.00    +0.000 A 
ATOM     13  C   UNL     1      -4.261  11.641  16.713  0.00  0.00    +0.000 A 
ENDBRANCH   5   7
BRANCH   3  14
ATOM     14  C   UNL     1      -7.113  12.371  21.356  0.00  0.00    +0.000 C 
ATOM     15  C   UNL     1      -7.916  13.536  20.735  0.00  0.00    +0.000 C 
ATOM     16  C   UNL     1      -7.848  11.064  20.982  0.00  0.00    +0.000 C 
ATOM     17  C   UNL     1      -7.159  12.493  22.895  0.00  0.00    +0.000 C 
ENDBRANCH   3  14
BRANCH   1  19
ATOM     18  C   UNL     1      -1.154  12.544  22.837  0.00  0.00    +0.000 C 
ATOM     19  C   UNL     1      -2.389  13.407  22.558  0.00  0.00    +0.000 C 
ATOM     20  C   UNL     1      -2.152  14.920  22.637  0.00  0.00    +0.000 C 
ENDBRANCH   1  19
BRANCH   6  21
ATOM     21  O   UNL     1      -1.595  12.407  19.643  0.00  0.00    +0.000 OA
BRANCH  21  22
ATOM     22  C   UNL     1      -0.954  13.611  19.242  0.00  0.00    +0.000 C 
BRANCH  22  23
ATOM     23  C   UNL     1       0.551  13.582  19.534  0.00  0.00    +0.000 C 
ATOM     24  C   UNL     1       1.282  14.808  19.027  0.00  0.00    +0.000 C 
ATOM     25  C   UNL     1       2.771  14.552  19.100  0.00  0.00    +0.000 C 
ATOM     26  C   UNL     1       3.137  13.383  18.207  0.00  0.00    +0.000 C 
ATOM     27  C   UNL     1       2.229  12.192  18.352  0.00  0.00    +0.000 C 
ATOM     28  O   UNL     1       2.529  11.111  17.848  0.00  0.00    +0.000 OA
ATOM     29  O   UNL     1       1.089  12.328  19.043  0.00  0.00    +0.000 OA
BRANCH  25  30
ATOM     30  O   UNL     1       3.186  14.339  20.450  0.00  0.00    +0.000 OA
ATOM     31  H   UNL     1       4.140  14.147  20.482  0.00  0.00    +0.000 HD
ENDBRANCH  25  30
ENDBRANCH  22  23
ENDBRANCH  21  22
ENDBRANCH   6  21
TORSDOF 7
ENDMDL
MODEL 6
REMARK VINA RESULT:      -6.0      3.388      7.548
REMARK  Name = 
REMARK  12 active torsions:
REMARK  status: ('A' for Active; 'I' for Inactive)
REMARK    1  A    between atoms: C_1  and  C_2
REMARK    2  A    between atoms: C_2  and  C_3
REMARK    3  A    between atoms: C_2  and  C_4
REMARK    4  A    between atoms: C_6  and  C_7
REMARK    5  A    between atoms: C_7  and  C_8
REMARK    6  A    between atoms: C_7  and  C_9
REMARK    7  A    between atoms: C_7  and  C_10
REMARK    8  A    between atoms: C_12  and  C_13
REMARK    9  A    between atoms: C_20  and  O_21
REMARK   10  A    between atoms: O_21  and  C_22
REMARK   11  A    between atoms: C_22  and  C_23
REMARK   12  A    between atoms: C_25  and  O_26
REMARK                            x       y       z     vdW  Elec       q    Type
REMARK                         _______ _______ _______ _____ _____    ______ ____
ROOT
ATOM      1  C   UNL     1      -0.598  12.961  19.066  0.00  0.00    +0.000 A 
ATOM      2  C   UNL     1      -1.870  12.567  18.573  0.00  0.00    +0.000 A 
ATOM      3  C   UNL     1      -2.185  11.268  18.157  0.00  0.00    +0.000 A 
ATOM      4  C   UNL     1      -1.162  10.324  18.245  0.00  0.00    +0.000 A 
ATOM      5  C   UNL     1       0.144  10.628  18.713  0.00  0.00    +0.000 A 
ATOM      6  C   UNL     1       0.428  11.983  19.097  0.00  0.00    +0.000 A 
ENDROOT
BRANCH   5   7
ATOM      7  C   UNL     1       1.117   9.485  18.825  0.00  0.00    +0.000 A 
ATOM      8  C   UNL     1       1.937   9.101  17.735  0.00  0.00    +0.000 A 
ATOM      9  C   UNL     1       2.772   7.978  17.793  0.00  0.00    +0.000 A 
ATOM     10  C   UNL     1       2.837   7.237  18.962  0.00  0.00    +0.000 A 
ATOM     11  F   UNL     1       3.644   6.168  19.029  0.00  0.00    +0.000 F 
ATOM     12  C   UNL     1       2.066   7.587  20.057  0.00  0.00    +0.000 A 
ATOM     13  C   UNL     1       1.200   8.682  19.980  0.00  0.00    +0.000 A 
ENDBRANCH   5   7
BRANCH   3  14
ATOM     14  C   UNL     1      -3.616  10.926  17.703  0.00  0.00    +0.000 C 
ATOM     15  C   UNL     1      -3.788  11.257  16.204  0.00  0.00    +0.000 C 
ATOM     16  C   UNL     1      -3.990   9.438  17.884  0.00  0.00    +0.000 C 
ATOM     17  C   UNL     1      -4.632  11.754  18.521  0.00  0.00    +0.000 C 
ENDBRANCH   3  14
BRANCH   1  19
ATOM     18  C   UNL     1      -0.223  15.487  18.580  0.00  0.00    +0.000 C 
ATOM     19  C   UNL     1      -0.587  14.400  19.598  0.00  0.00    +0.000 C 
ATOM     20  C   UNL     1      -1.754  14.750  20.528  0.00  0.00    +0.000 C 
ENDBRANCH   1  19
BRANCH   6  21
ATOM     21  O   UNL     1       1.701  12.186  19.584  0.00  0.00    +0.000 OA
BRANCH  21  22
ATOM     22  C   UNL     1       2.630  12.875  18.758  0.00  0.00    +0.000 C 
BRANCH  22  23
ATOM     23  C   UNL     1       3.356  13.990  19.519  0.00  0.00    +0.000 C 
ATOM     24  C   UNL     1       2.732  14.300  20.863  0.00  0.00    +0.000 C 
ATOM     25  C   UNL     1       3.329  15.586  21.392  0.00  0.00    +0.000 C 
ATOM     26  C   UNL     1       3.006  16.728  20.450  0.00  0.00    +0.000 C 
ATOM     27  C   UNL     1       3.240  16.411  18.997  0.00  0.00    +0.000 C 
ATOM     28  O   UNL     1       3.219  17.302  18.150  0.00  0.00    +0.000 OA
ATOM     29  O   UNL     1       3.473  15.140  18.642  0.00  0.00    +0.000 OA
BRANCH  25  30
ATOM     30  O   UNL     1       4.735  15.449  21.598  0.00  0.00    +0.000 OA
ATOM     31  H   UNL     1       5.049  14.608  21.221  0.00  0.00    +0.000 HD
ENDBRANCH  25  30
ENDBRANCH  22  23
ENDBRANCH  21  22
ENDBRANCH   6  21
TORSDOF 7
ENDMDL
MODEL 7
REMARK VINA RESULT:      -6.0      3.487      7.526
REMARK  Name = 
REMARK  12 active torsions:
REMARK  status: ('A' for Active; 'I' for Inactive)
REMARK    1  A    between atoms: C_1  and  C_2
REMARK    2  A    between atoms: C_2  and  C_3
REMARK    3  A    between atoms: C_2  and  C_4
REMARK    4  A    between atoms: C_6  and  C_7
REMARK    5  A    between atoms: C_7  and  C_8
REMARK    6  A    between atoms: C_7  and  C_9
REMARK    7  A    between atoms: C_7  and  C_10
REMARK    8  A    between atoms: C_12  and  C_13
REMARK    9  A    between atoms: C_20  and  O_21
REMARK   10  A    between atoms: O_21  and  C_22
REMARK   11  A    between atoms: C_22  and  C_23
REMARK   12  A    between atoms: C_25  and  O_26
REMARK                            x       y       z     vdW  Elec       q    Type
REMARK                         _______ _______ _______ _____ _____    ______ ____
ROOT
ATOM      1  C   UNL     1      -0.716  12.894  19.094  0.00  0.00    +0.000 A 
ATOM      2  C   UNL     1      -1.950  12.491  18.516  0.00  0.00    +0.000 A 
ATOM      3  C   UNL     1      -2.214  11.200  18.044  0.00  0.00    +0.000 A 
ATOM      4  C   UNL     1      -1.178  10.272  18.166  0.00  0.00    +0.000 A 
ATOM      5  C   UNL     1       0.092  10.587  18.719  0.00  0.00    +0.000 A 
ATOM      6  C   UNL     1       0.326  11.935  19.157  0.00  0.00    +0.000 A 
ENDROOT
BRANCH   5   7
ATOM      7  C   UNL     1       1.079   9.459  18.855  0.00  0.00    +0.000 A 
ATOM      8  C   UNL     1       1.913   9.070  17.779  0.00  0.00    +0.000 A 
ATOM      9  C   UNL     1       2.763   7.959  17.859  0.00  0.00    +0.000 A 
ATOM     10  C   UNL     1       2.829   7.237  19.040  0.00  0.00    +0.000 A 
ATOM     11  F   UNL     1       3.649   6.181  19.129  0.00  0.00    +0.000 F 
ATOM     12  C   UNL     1       2.044   7.593  20.124  0.00  0.00    +0.000 A 
ATOM     13  C   UNL     1       1.164   8.674  20.024  0.00  0.00    +0.000 A 
ENDBRANCH   5   7
BRANCH   3  14
ATOM     14  C   UNL     1      -3.608  10.845  17.497  0.00  0.00    +0.000 C 
ATOM     15  C   UNL     1      -3.648  11.068  15.969  0.00  0.00    +0.000 C 
ATOM     16  C   UNL     1      -4.025   9.379  17.752  0.00  0.00    +0.000 C 
ATOM     17  C   UNL     1      -4.671  11.744  18.165  0.00  0.00    +0.000 C 
ENDBRANCH   3  14
BRANCH   1  19
ATOM     18  C   UNL     1      -0.388  14.455  21.146  0.00  0.00    +0.000 C 
ATOM     19  C   UNL     1      -0.765  14.317  19.666  0.00  0.00    +0.000 C 
ATOM     20  C   UNL     1      -0.186  15.399  18.747  0.00  0.00    +0.000 C 
ENDBRANCH   1  19
BRANCH   6  21
ATOM     21  O   UNL     1       1.563  12.147  19.725  0.00  0.00    +0.000 OA
BRANCH  21  22
ATOM     22  C   UNL     1       2.552  12.804  18.943  0.00  0.00    +0.000 C 
BRANCH  22  23
ATOM     23  C   UNL     1       3.012  14.117  19.588  0.00  0.00    +0.000 C 
ATOM     24  C   UNL     1       4.221  14.724  18.909  0.00  0.00    +0.000 C 
ATOM     25  C   UNL     1       4.763  15.835  19.783  0.00  0.00    +0.000 C 
ATOM     26  C   UNL     1       5.207  15.270  21.117  0.00  0.00    +0.000 C 
ATOM     27  C   UNL     1       4.218  14.326  21.744  0.00  0.00    +0.000 C 
ATOM     28  O   UNL     1       4.354  13.960  22.910  0.00  0.00    +0.000 OA
ATOM     29  O   UNL     1       3.183  13.892  21.011  0.00  0.00    +0.000 OA
BRANCH  25  30
ATOM     30  O   UNL     1       3.797  16.875  19.942  0.00  0.00    +0.000 OA
ATOM     31  H   UNL     1       2.913  16.555  19.689  0.00  0.00    +0.000 HD
ENDBRANCH  25  30
ENDBRANCH  22  23
ENDBRANCH  21  22
ENDBRANCH   6  21
TORSDOF 7
ENDMDL
MODEL 8
REMARK VINA RESULT:      -5.9      3.753      8.028
REMARK  Name = 
REMARK  12 active torsions:
REMARK  status: ('A' for Active; 'I' for Inactive)
REMARK    1  A    between atoms: C_1  and  C_2
REMARK    2  A    between atoms: C_2  and  C_3
REMARK    3  A    between atoms: C_2  and  C_4
REMARK    4  A    between atoms: C_6  and  C_7
REMARK    5  A    between atoms: C_7  and  C_8
REMARK    6  A    between atoms: C_7  and  C_9
REMARK    7  A    between atoms: C_7  and  C_10
REMARK    8  A    between atoms: C_12  and  C_13
REMARK    9  A    between atoms: C_20  and  O_21
REMARK   10  A    between atoms: O_21  and  C_22
REMARK   11  A    between atoms: C_22  and  C_23
REMARK   12  A    between atoms: C_25  and  O_26
REMARK                            x       y       z     vdW  Elec       q    Type
REMARK                         _______ _______ _______ _____ _____    ______ ____
ROOT
ATOM      1  C   UNL     1      -2.704  12.981  20.803  0.00  0.00    +0.000 A 
ATOM      2  C   UNL     1      -3.756  12.743  19.879  0.00  0.00    +0.000 A 
ATOM      3  C   UNL     1      -3.699  11.803  18.844  0.00  0.00    +0.000 A 
ATOM      4  C   UNL     1      -2.518  11.067  18.741  0.00  0.00    +0.000 A 
ATOM      5  C   UNL     1      -1.409  11.243  19.611  0.00  0.00    +0.000 A 
ATOM      6  C   UNL     1      -1.504  12.244  20.637  0.00  0.00    +0.000 A 
ENDROOT
BRANCH   5   7
ATOM      7  C   UNL     1      -0.236  10.317  19.423  0.00  0.00    +0.000 A 
ATOM      8  C   UNL     1       0.378  10.149  18.159  0.00  0.00    +0.000 A 
ATOM      9  C   UNL     1       1.404   9.217  17.949  0.00  0.00    +0.000 A 
ATOM     10  C   UNL     1       1.868   8.464  19.014  0.00  0.00    +0.000 A 
ATOM     11  F   UNL     1       2.857   7.579  18.824  0.00  0.00    +0.000 F 
ATOM     12  C   UNL     1       1.307   8.609  20.272  0.00  0.00    +0.000 A 
ATOM     13  C   UNL     1       0.254   9.507  20.468  0.00  0.00    +0.000 A 
ENDBRANCH   5   7
BRANCH   3  14
ATOM     14  C   UNL     1      -4.921  11.574  17.937  0.00  0.00    +0.000 C 
ATOM     15  C   UNL     1      -5.786  12.852  17.882  0.00  0.00    +0.000 C 
ATOM     16  C   UNL     1      -4.558  11.209  16.479  0.00  0.00    +0.000 C 
ATOM     17  C   UNL     1      -5.772  10.414  18.498  0.00  0.00    +0.000 C 
ENDBRANCH   3  14
BRANCH   1  19
ATOM     18  C   UNL     1      -3.037  13.386  23.349  0.00  0.00    +0.000 C 
ATOM     19  C   UNL     1      -3.104  13.948  21.924  0.00  0.00    +0.000 C 
ATOM     20  C   UNL     1      -2.562  15.374  21.765  0.00  0.00    +0.000 C 
ENDBRANCH   1  19
BRANCH   6  21
ATOM     21  O   UNL     1      -0.407  12.319  21.468  0.00  0.00    +0.000 OA
BRANCH  21  22
ATOM     22  C   UNL     1       0.451  13.445  21.340  0.00  0.00    +0.000 C 
BRANCH  22  23
ATOM     23  C   UNL     1       0.998  13.589  19.915  0.00  0.00    +0.000 C 
ATOM     24  C   UNL     1       2.468  13.242  19.802  0.00  0.00    +0.000 C 
ATOM     25  C   UNL     1       2.971  13.691  18.448  0.00  0.00    +0.000 C 
ATOM     26  C   UNL     1       2.832  15.194  18.320  0.00  0.00    +0.000 C 
ATOM     27  C   UNL     1       1.498  15.728  18.766  0.00  0.00    +0.000 C 
ATOM     28  O   UNL     1       1.176  16.890  18.525  0.00  0.00    +0.000 OA
ATOM     29  O   UNL     1       0.665  14.915  19.429  0.00  0.00    +0.000 OA
BRANCH  25  30
ATOM     30  O   UNL     1       2.289  13.003  17.397  0.00  0.00    +0.000 OA
ATOM     31  H   UNL     1       1.937  13.641  16.752  0.00  0.00    +0.000 HD
ENDBRANCH  25  30
ENDBRANCH  22  23
ENDBRANCH  21  22
ENDBRANCH   6  21
TORSDOF 7
ENDMDL
MODEL 9
REMARK VINA RESULT:      -5.9      3.323      7.470
REMARK  Name = 
REMARK  12 active torsions:
REMARK  status: ('A' for Active; 'I' for Inactive)
REMARK    1  A    between atoms: C_1  and  C_2
REMARK    2  A    between atoms: C_2  and  C_3
REMARK    3  A    between atoms: C_2  and  C_4
REMARK    4  A    between atoms: C_6  and  C_7
REMARK    5  A    between atoms: C_7  and  C_8
REMARK    6  A    between atoms: C_7  and  C_9
REMARK    7  A    between atoms: C_7  and  C_10
REMARK    8  A    between atoms: C_12  and  C_13
REMARK    9  A    between atoms: C_20  and  O_21
REMARK   10  A    between atoms: O_21  and  C_22
REMARK   11  A    between atoms: C_22  and  C_23
REMARK   12  A    between atoms: C_25  and  O_26
REMARK                            x       y       z     vdW  Elec       q    Type
REMARK                         _______ _______ _______ _____ _____    ______ ____
ROOT
ATOM      1  C   UNL     1      -0.491  12.843  19.006  0.00  0.00    +0.000 A 
ATOM      2  C   UNL     1      -1.734  12.470  18.429  0.00  0.00    +0.000 A 
ATOM      3  C   UNL     1      -2.035  11.182  17.974  0.00  0.00    +0.000 A 
ATOM      4  C   UNL     1      -1.029  10.225  18.110  0.00  0.00    +0.000 A 
ATOM      5  C   UNL     1       0.249  10.508  18.664  0.00  0.00    +0.000 A 
ATOM      6  C   UNL     1       0.521  11.854  19.086  0.00  0.00    +0.000 A 
ENDROOT
BRANCH   5   7
ATOM      7  C   UNL     1       1.201   9.352  18.818  0.00  0.00    +0.000 A 
ATOM      8  C   UNL     1       2.051   8.947  17.760  0.00  0.00    +0.000 A 
ATOM      9  C   UNL     1       2.868   7.813  17.855  0.00  0.00    +0.000 A 
ATOM     10  C   UNL     1       2.884   7.083  19.032  0.00  0.00    +0.000 A 
ATOM     11  F   UNL     1       3.673   6.004  19.135  0.00  0.00    +0.000 F 
ATOM     12  C   UNL     1       2.082   7.454  20.099  0.00  0.00    +0.000 A 
ATOM     13  C   UNL     1       1.235   8.559  19.983  0.00  0.00    +0.000 A 
ENDBRANCH   5   7
BRANCH   3  14
ATOM     14  C   UNL     1      -3.438  10.862  17.426  0.00  0.00    +0.000 C 
ATOM     15  C   UNL     1      -4.492  11.755  18.118  0.00  0.00    +0.000 C 
ATOM     16  C   UNL     1      -3.582  11.088  15.904  0.00  0.00    +0.000 C 
ATOM     17  C   UNL     1      -3.776   9.380  17.700  0.00  0.00    +0.000 C 
ENDBRANCH   3  14
BRANCH   1  19
ATOM     18  C   UNL     1      -0.137  15.380  18.563  0.00  0.00    +0.000 C 
ATOM     19  C   UNL     1      -0.499  14.274  19.561  0.00  0.00    +0.000 C 
ATOM     20  C   UNL     1      -1.678  14.597  20.486  0.00  0.00    +0.000 C 
ENDBRANCH   1  19
BRANCH   6  21
ATOM     21  O   UNL     1       1.763  12.036  19.655  0.00  0.00    +0.000 OA
BRANCH  21  22
ATOM     22  C   UNL     1       1.846  12.811  20.843  0.00  0.00    +0.000 C 
BRANCH  22  23
ATOM     23  C   UNL     1       2.952  13.870  20.760  0.00  0.00    +0.000 C 
ATOM     24  C   UNL     1       2.601  15.157  21.477  0.00  0.00    +0.000 C 
ATOM     25  C   UNL     1       3.610  16.218  21.093  0.00  0.00    +0.000 C 
ATOM     26  C   UNL     1       3.541  16.477  19.601  0.00  0.00    +0.000 C 
ATOM     27  C   UNL     1       3.507  15.228  18.762  0.00  0.00    +0.000 C 
ATOM     28  O   UNL     1       3.660  15.288  17.543  0.00  0.00    +0.000 OA
ATOM     29  O   UNL     1       3.309  14.048  19.366  0.00  0.00    +0.000 OA
BRANCH  25  30
ATOM     30  O   UNL     1       4.925  15.845  21.507  0.00  0.00    +0.000 OA
ATOM     31  H   UNL     1       4.968  15.792  22.478  0.00  0.00    +0.000 HD
ENDBRANCH  25  30
ENDBRANCH  22  23
ENDBRANCH  21  22
ENDBRANCH   6  21
TORSDOF 7
ENDMDL
