MODEL 1
REMARK VINA RESULT:      -7.9      0.000      0.000
REMARK  Name = 
REMARK  4 active torsions:
REMARK  status: ('A' for Active; 'I' for Inactive)
REMARK    1  A    between atoms: C_2  and  C_3
REMARK    2  A    between atoms: C_3  and  C_4
REMARK    3  A    between atoms: C_7  and  N_8
REMARK    4  A    between atoms: C_18  and  C_19
REMARK                            x       y       z     vdW  Elec       q    Type
REMARK                         _______ _______ _______ _____ _____    ______ ____
ROOT
ATOM      1  N   UNL     1      -1.267  11.283  21.113  0.00  0.00    +0.000 N 
ATOM      2  C   UNL     1      -1.748  11.962  19.901  0.00  0.00    +0.000 A 
ATOM      3  O   UNL     1      -2.790  12.551  19.649  0.00  0.00    +0.000 OA
ATOM      4  N   UNL     1      -0.666  12.072  19.073  0.00  0.00    +0.000 N 
ATOM      5  C   UNL     1       0.510  11.848  19.811  0.00  0.00    +0.000 A 
ATOM      6  C   UNL     1       1.659  11.832  19.118  0.00  0.00    +0.000 A 
ATOM      7  N   UNL     1       1.745  10.864  18.243  0.00  0.00    +0.000 NA
ATOM      8  C   UNL     1       1.467   9.662  18.733  0.00  0.00    +0.000 A 
ATOM      9  C   UNL     1       1.960   8.778  17.770  0.00  0.00    +0.000 A 
ATOM     10  C   UNL     1       2.368   7.507  18.032  0.00  0.00    +0.000 A 
ATOM     11  C   UNL     1       2.349   7.013  19.329  0.00  0.00    +0.000 A 
ATOM     12  C   UNL     1       1.533   7.888  20.282  0.00  0.00    +0.000 A 
ATOM     13  C   UNL     1       0.984   9.398  20.055  0.00  0.00    +0.000 A 
ATOM     14  C   UNL     1       0.266  10.800  20.701  0.00  0.00    +0.000 A 
ATOM     15  H   UNL     1      -0.713  12.461  18.142  0.00  0.00    +0.000 HD
ENDROOT
BRANCH   1  19
ATOM     16  C   UNL     1      -2.342  14.443  24.313  0.00  0.00    +0.000 A 
ATOM     17  C   UNL     1      -1.151  14.521  23.596  0.00  0.00    +0.000 A 
ATOM     18  C   UNL     1      -0.799  13.471  22.655  0.00  0.00    +0.000 A 
ATOM     19  C   UNL     1      -1.566  12.275  22.351  0.00  0.00    +0.000 A 
ATOM     20  C   UNL     1      -2.717  12.216  23.135  0.00  0.00    +0.000 A 
ATOM     21  C   UNL     1      -3.087  13.273  24.084  0.00  0.00    +0.000 A 
BRANCH  16  22
ATOM     22  C   UNL     1      -2.779  15.572  25.250  0.00  0.00    +0.000 C 
BRANCH  22  24
ATOM     23  N   UNL     1      -5.074  16.755  24.598  0.00  0.00    +0.000 NA
ATOM     24  C   UNL     1      -4.064  16.214  24.894  0.00  0.00    +0.000 C 
ENDBRANCH  22  24
ENDBRANCH  16  22
ENDBRANCH   1  19
BRANCH  11  25
ATOM     25  C   UNL     1       3.272   5.749  19.493  0.00  0.00    +0.000 A 
ATOM     26  C   UNL     1       4.604   5.728  18.932  0.00  0.00    +0.000 A 
ATOM     27  C   UNL     1       5.425   4.583  18.932  0.00  0.00    +0.000 A 
ATOM     28  N   UNL     1       5.048   3.426  19.483  0.00  0.00    +0.000 NA
ATOM     29  C   UNL     1       3.817   3.429  20.038  0.00  0.00    +0.000 A 
ATOM     30  C   UNL     1       2.913   4.534  20.070  0.00  0.00    +0.000 A 
ENDBRANCH  11  25
TORSDOF 4
ENDMDL
MODEL 2
REMARK VINA RESULT:      -7.9      0.949      1.035
REMARK  Name = 
REMARK  4 active torsions:
REMARK  status: ('A' for Active; 'I' for Inactive)
REMARK    1  A    between atoms: C_2  and  C_3
REMARK    2  A    between atoms: C_3  and  C_4
REMARK    3  A    between atoms: C_7  and  N_8
REMARK    4  A    between atoms: C_18  and  C_19
REMARK                            x       y       z     vdW  Elec       q    Type
REMARK                         _______ _______ _______ _____ _____    ______ ____
ROOT
ATOM      1  N   UNL     1      -1.216  11.224  21.090  0.00  0.00    +0.000 N 
ATOM      2  C   UNL     1      -1.694  11.899  19.874  0.00  0.00    +0.000 A 
ATOM      3  O   UNL     1      -2.733  12.492  19.620  0.00  0.00    +0.000 OA
ATOM      4  N   UNL     1      -0.612  12.000  19.046  0.00  0.00    +0.000 N 
ATOM      5  C   UNL     1       0.564  11.775  19.784  0.00  0.00    +0.000 A 
ATOM      6  C   UNL     1       1.712  11.750  19.091  0.00  0.00    +0.000 A 
ATOM      7  N   UNL     1       1.793  10.777  18.222  0.00  0.00    +0.000 NA
ATOM      8  C   UNL     1       1.510   9.579  18.718  0.00  0.00    +0.000 A 
ATOM      9  C   UNL     1       1.999   8.687  17.760  0.00  0.00    +0.000 A 
ATOM     10  C   UNL     1       2.401   7.416  18.028  0.00  0.00    +0.000 A 
ATOM     11  C   UNL     1       2.381   6.929  19.327  0.00  0.00    +0.000 A 
ATOM     12  C   UNL     1       1.568   7.812  20.276  0.00  0.00    +0.000 A 
ATOM     13  C   UNL     1       1.026   9.324  20.041  0.00  0.00    +0.000 A 
ATOM     14  C   UNL     1       0.315  10.732  20.680  0.00  0.00    +0.000 A 
ATOM     15  H   UNL     1      -0.657  12.384  18.113  0.00  0.00    +0.000 HD
ENDROOT
BRANCH   1  19
ATOM     16  C   UNL     1      -2.270  14.408  24.273  0.00  0.00    +0.000 A 
ATOM     17  C   UNL     1      -1.073  14.467  23.564  0.00  0.00    +0.000 A 
ATOM     18  C   UNL     1      -0.729  13.411  22.629  0.00  0.00    +0.000 A 
ATOM     19  C   UNL     1      -1.510  12.224  22.323  0.00  0.00    +0.000 A 
ATOM     20  C   UNL     1      -2.667  12.183  23.099  0.00  0.00    +0.000 A 
ATOM     21  C   UNL     1      -3.029  13.248  24.042  0.00  0.00    +0.000 A 
BRANCH  16  22
ATOM     22  C   UNL     1      -2.698  15.546  25.204  0.00  0.00    +0.000 C 
BRANCH  22  24
ATOM     23  N   UNL     1      -0.751  16.478  26.764  0.00  0.00    +0.000 NA
ATOM     24  C   UNL     1      -1.628  16.065  26.085  0.00  0.00    +0.000 C 
ENDBRANCH  22  24
ENDBRANCH  16  22
ENDBRANCH   1  19
BRANCH  11  25
ATOM     25  C   UNL     1       3.298   5.662  19.498  0.00  0.00    +0.000 A 
ATOM     26  C   UNL     1       4.654   5.658  18.999  0.00  0.00    +0.000 A 
ATOM     27  C   UNL     1       5.477   4.514  19.004  0.00  0.00    +0.000 A 
ATOM     28  N   UNL     1       5.078   3.341  19.504  0.00  0.00    +0.000 NA
ATOM     29  C   UNL     1       3.822   3.328  20.001  0.00  0.00    +0.000 A 
ATOM     30  C   UNL     1       2.915   4.430  20.023  0.00  0.00    +0.000 A 
ENDBRANCH  11  25
TORSDOF 4
ENDMDL
MODEL 3
REMARK VINA RESULT:      -7.4      1.231      1.566
REMARK  Name = 
REMARK  4 active torsions:
REMARK  status: ('A' for Active; 'I' for Inactive)
REMARK    1  A    between atoms: C_2  and  C_3
REMARK    2  A    between atoms: C_3  and  C_4
REMARK    3  A    between atoms: C_7  and  N_8
REMARK    4  A    between atoms: C_18  and  C_19
REMARK                            x       y       z     vdW  Elec       q    Type
REMARK                         _______ _______ _______ _____ _____    ______ ____
ROOT
ATOM      1  N   UNL     1      -1.133  11.315  20.386  0.00  0.00    +0.000 N 
ATOM      2  C   UNL     1      -1.470  11.919  19.087  0.00  0.00    +0.000 A 
ATOM      3  O   UNL     1      -2.457  12.528  18.698  0.00  0.00    +0.000 OA
ATOM      4  N   UNL     1      -0.314  11.922  18.359  0.00  0.00    +0.000 N 
ATOM      5  C   UNL     1       0.779  11.708  19.218  0.00  0.00    +0.000 A 
ATOM      6  C   UNL     1       1.983  11.593  18.638  0.00  0.00    +0.000 A 
ATOM      7  N   UNL     1       2.103  10.559  17.848  0.00  0.00    +0.000 NA
ATOM      8  C   UNL     1       1.726   9.410  18.395  0.00  0.00    +0.000 A 
ATOM      9  C   UNL     1       2.262   8.436  17.549  0.00  0.00    +0.000 A 
ATOM     10  C   UNL     1       2.585   7.173  17.939  0.00  0.00    +0.000 A 
ATOM     11  C   UNL     1       2.425   6.780  19.260  0.00  0.00    +0.000 A 
ATOM     12  C   UNL     1       1.568   7.758  20.067  0.00  0.00    +0.000 A 
ATOM     13  C   UNL     1       1.113   9.267  19.681  0.00  0.00    +0.000 A 
ATOM     14  C   UNL     1       0.407  10.741  20.155  0.00  0.00    +0.000 A 
ATOM     15  H   UNL     1      -0.258  12.240  17.402  0.00  0.00    +0.000 HD
ENDROOT
BRANCH   1  19
ATOM     16  C   UNL     1      -1.994  14.110  23.966  0.00  0.00    +0.000 A 
ATOM     17  C   UNL     1      -2.926  13.161  23.554  0.00  0.00    +0.000 A 
ATOM     18  C   UNL     1      -2.665  12.351  22.377  0.00  0.00    +0.000 A 
ATOM     19  C   UNL     1      -1.497  12.410  21.515  0.00  0.00    +0.000 A 
ATOM     20  C   UNL     1      -0.625  13.412  21.936  0.00  0.00    +0.000 A 
ATOM     21  C   UNL     1      -0.873  14.232  23.127  0.00  0.00    +0.000 A 
BRANCH  16  22
ATOM     22  C   UNL     1      -2.202  14.922  25.248  0.00  0.00    +0.000 C 
BRANCH  22  24
ATOM     23  N   UNL     1      -0.018  16.138  26.164  0.00  0.00    +0.000 NA
ATOM     24  C   UNL     1      -0.994  15.614  25.749  0.00  0.00    +0.000 C 
ENDBRANCH  22  24
ENDBRANCH  16  22
ENDBRANCH   1  19
BRANCH  11  25
ATOM     25  C   UNL     1       3.270   5.497  19.601  0.00  0.00    +0.000 A 
ATOM     26  C   UNL     1       4.650   5.388  19.186  0.00  0.00    +0.000 A 
ATOM     27  C   UNL     1       5.414   4.215  19.345  0.00  0.00    +0.000 A 
ATOM     28  N   UNL     1       4.932   3.113  19.926  0.00  0.00    +0.000 NA
ATOM     29  C   UNL     1       3.652   3.201  20.348  0.00  0.00    +0.000 A 
ATOM     30  C   UNL     1       2.799   4.339  20.214  0.00  0.00    +0.000 A 
ENDBRANCH  11  25
TORSDOF 4
ENDMDL
MODEL 4
REMARK VINA RESULT:      -7.3      0.684      1.064
REMARK  Name = 
REMARK  4 active torsions:
REMARK  status: ('A' for Active; 'I' for Inactive)
REMARK    1  A    between atoms: C_2  and  C_3
REMARK    2  A    between atoms: C_3  and  C_4
REMARK    3  A    between atoms: C_7  and  N_8
REMARK    4  A    between atoms: C_18  and  C_19
REMARK                            x       y       z     vdW  Elec       q    Type
REMARK                         _______ _______ _______ _____ _____    ______ ____
ROOT
ATOM      1  N   UNL     1      -1.209  11.270  20.285  0.00  0.00    +0.000 N 
ATOM      2  C   UNL     1      -1.537  11.887  18.990  0.00  0.00    +0.000 A 
ATOM      3  O   UNL     1      -2.530  12.480  18.593  0.00  0.00    +0.000 OA
ATOM      4  N   UNL     1      -0.368  11.929  18.283  0.00  0.00    +0.000 N 
ATOM      5  C   UNL     1       0.714  11.726  19.158  0.00  0.00    +0.000 A 
ATOM      6  C   UNL     1       1.931  11.648  18.599  0.00  0.00    +0.000 A 
ATOM      7  N   UNL     1       2.088  10.630  17.794  0.00  0.00    +0.000 NA
ATOM      8  C   UNL     1       1.728   9.464  18.315  0.00  0.00    +0.000 A 
ATOM      9  C   UNL     1       2.302   8.516  17.464  0.00  0.00    +0.000 A 
ATOM     10  C   UNL     1       2.647   7.255  17.839  0.00  0.00    +0.000 A 
ATOM     11  C   UNL     1       2.473   6.837  19.151  0.00  0.00    +0.000 A 
ATOM     12  C   UNL     1       1.579   7.781  19.958  0.00  0.00    +0.000 A 
ATOM     13  C   UNL     1       1.096   9.286  19.588  0.00  0.00    +0.000 A 
ATOM     14  C   UNL     1       0.348  10.735  20.073  0.00  0.00    +0.000 A 
ATOM     15  H   UNL     1      -0.303  12.264  17.333  0.00  0.00    +0.000 HD
ENDROOT
BRANCH   1  19
ATOM     16  C   UNL     1      -2.408  13.925  23.875  0.00  0.00    +0.000 A 
ATOM     17  C   UNL     1      -3.372  13.317  23.076  0.00  0.00    +0.000 A 
ATOM     18  C   UNL     1      -2.971  12.554  21.907  0.00  0.00    +0.000 A 
ATOM     19  C   UNL     1      -1.618  12.337  21.425  0.00  0.00    +0.000 A 
ATOM     20  C   UNL     1      -0.697  13.014  22.223  0.00  0.00    +0.000 A 
ATOM     21  C   UNL     1      -1.089  13.781  23.411  0.00  0.00    +0.000 A 
BRANCH  16  22
ATOM     22  C   UNL     1      -2.793  14.666  25.158  0.00  0.00    +0.000 C 
BRANCH  22  24
ATOM     23  N   UNL     1      -4.393  16.769  24.825  0.00  0.00    +0.000 NA
ATOM     24  C   UNL     1      -3.672  15.841  24.958  0.00  0.00    +0.000 C 
ENDBRANCH  22  24
ENDBRANCH  16  22
ENDBRANCH   1  19
BRANCH  11  25
ATOM     25  C   UNL     1       3.341   5.568  19.487  0.00  0.00    +0.000 A 
ATOM     26  C   UNL     1       4.688   5.438  18.980  0.00  0.00    +0.000 A 
ATOM     27  C   UNL     1       5.464   4.272  19.135  0.00  0.00    +0.000 A 
ATOM     28  N   UNL     1       5.025   3.197  19.796  0.00  0.00    +0.000 NA
ATOM     29  C   UNL     1       3.777   3.305  20.302  0.00  0.00    +0.000 A 
ATOM     30  C   UNL     1       2.916   4.438  20.180  0.00  0.00    +0.000 A 
ENDBRANCH  11  25
TORSDOF 4
ENDMDL
MODEL 5
REMARK VINA RESULT:      -7.3      1.518      1.671
REMARK  Name = 
REMARK  4 active torsions:
REMARK  status: ('A' for Active; 'I' for Inactive)
REMARK    1  A    between atoms: C_2  and  C_3
REMARK    2  A    between atoms: C_3  and  C_4
REMARK    3  A    between atoms: C_7  and  N_8
REMARK    4  A    between atoms: C_18  and  C_19
REMARK                            x       y       z     vdW  Elec       q    Type
REMARK                         _______ _______ _______ _____ _____    ______ ____
ROOT
ATOM      1  N   UNL     1      -0.503  11.427  20.756  0.00  0.00    +0.000 N 
ATOM      2  C   UNL     1      -1.061  11.958  19.503  0.00  0.00    +0.000 A 
ATOM      3  O   UNL     1      -2.060  12.624  19.267  0.00  0.00    +0.000 OA
ATOM      4  N   UNL     1      -0.088  11.800  18.557  0.00  0.00    +0.000 N 
ATOM      5  C   UNL     1       1.143  11.553  19.190  0.00  0.00    +0.000 A 
ATOM      6  C   UNL     1       2.186  11.284  18.390  0.00  0.00    +0.000 A 
ATOM      7  N   UNL     1       2.059  10.185  17.693  0.00  0.00    +0.000 NA
ATOM      8  C   UNL     1       1.722   9.121  18.411  0.00  0.00    +0.000 A 
ATOM      9  C   UNL     1       1.994   8.040  17.569  0.00  0.00    +0.000 A 
ATOM     10  C   UNL     1       2.298   6.787  18.001  0.00  0.00    +0.000 A 
ATOM     11  C   UNL     1       2.393   6.513  19.358  0.00  0.00    +0.000 A 
ATOM     12  C   UNL     1       1.800   7.623  20.228  0.00  0.00    +0.000 A 
ATOM     13  C   UNL     1       1.387   9.134  19.803  0.00  0.00    +0.000 A 
ATOM     14  C   UNL     1       0.907  10.699  20.270  0.00  0.00    +0.000 A 
ATOM     15  H   UNL     1      -0.212  12.037  17.583  0.00  0.00    +0.000 HD
ENDROOT
BRANCH   1  19
ATOM     16  C   UNL     1      -0.909  15.133  23.491  0.00  0.00    +0.000 A 
ATOM     17  C   UNL     1       0.070  15.071  22.503  0.00  0.00    +0.000 A 
ATOM     18  C   UNL     1       0.229  13.864  21.712  0.00  0.00    +0.000 A 
ATOM     19  C   UNL     1      -0.537  12.634  21.827  0.00  0.00    +0.000 A 
ATOM     20  C   UNL     1      -1.461  12.726  22.866  0.00  0.00    +0.000 A 
ATOM     21  C   UNL     1      -1.636  13.943  23.668  0.00  0.00    +0.000 A 
BRANCH  16  22
ATOM     22  C   UNL     1      -1.154  16.418  24.286  0.00  0.00    +0.000 C 
BRANCH  22  24
ATOM     23  N   UNL     1       0.613  16.917  26.215  0.00  0.00    +0.000 NA
ATOM     24  C   UNL     1      -0.158  16.695  25.346  0.00  0.00    +0.000 C 
ENDBRANCH  22  24
ENDBRANCH  16  22
ENDBRANCH   1  19
BRANCH  11  25
ATOM     25  C   UNL     1       3.193   5.187  19.639  0.00  0.00    +0.000 A 
ATOM     26  C   UNL     1       4.518   4.994  19.095  0.00  0.00    +0.000 A 
ATOM     27  C   UNL     1       5.229   3.782  19.200  0.00  0.00    +0.000 A 
ATOM     28  N   UNL     1       4.744   2.716  19.844  0.00  0.00    +0.000 NA
ATOM     29  C   UNL     1       3.517   2.882  20.384  0.00  0.00    +0.000 A 
ATOM     30  C   UNL     1       2.720   4.065  20.313  0.00  0.00    +0.000 A 
ENDBRANCH  11  25
TORSDOF 4
ENDMDL
MODEL 6
REMARK VINA RESULT:      -7.2      0.629      1.065
REMARK  Name = 
REMARK  4 active torsions:
REMARK  status: ('A' for Active; 'I' for Inactive)
REMARK    1  A    between atoms: C_2  and  C_3
REMARK    2  A    between atoms: C_3  and  C_4
REMARK    3  A    between atoms: C_7  and  N_8
REMARK    4  A    between atoms: C_18  and  C_19
REMARK                            x       y       z     vdW  Elec       q    Type
REMARK                         _______ _______ _______ _____ _____    ______ ____
ROOT
ATOM      1  N   UNL     1      -0.829  11.086  20.737  0.00  0.00    +0.000 N 
ATOM      2  C   UNL     1      -1.345  11.728  19.518  0.00  0.00    +0.000 A 
ATOM      3  O   UNL     1      -2.382  12.334  19.287  0.00  0.00    +0.000 OA
ATOM      4  N   UNL     1      -0.298  11.775  18.642  0.00  0.00    +0.000 N 
ATOM      5  C   UNL     1       0.904  11.550  19.337  0.00  0.00    +0.000 A 
ATOM      6  C   UNL     1       2.020  11.475  18.597  0.00  0.00    +0.000 A 
ATOM      7  N   UNL     1       2.043  10.470  17.762  0.00  0.00    +0.000 NA
ATOM      8  C   UNL     1       1.757   9.297  18.312  0.00  0.00    +0.000 A 
ATOM      9  C   UNL     1       2.186   8.361  17.368  0.00  0.00    +0.000 A 
ATOM     10  C   UNL     1       2.573   7.091  17.665  0.00  0.00    +0.000 A 
ATOM     11  C   UNL     1       2.598   6.652  18.981  0.00  0.00    +0.000 A 
ATOM     12  C   UNL     1       1.846   7.587  19.931  0.00  0.00    +0.000 A 
ATOM     13  C   UNL     1       1.326   9.101  19.664  0.00  0.00    +0.000 A 
ATOM     14  C   UNL     1       0.673  10.546  20.281  0.00  0.00    +0.000 A 
ATOM     15  H   UNL     1      -0.375  12.127  17.698  0.00  0.00    +0.000 HD
ENDROOT
BRANCH   1  19
ATOM     16  C   UNL     1      -1.755  14.363  23.865  0.00  0.00    +0.000 A 
ATOM     17  C   UNL     1      -0.694  14.498  22.974  0.00  0.00    +0.000 A 
ATOM     18  C   UNL     1      -0.374  13.418  22.056  0.00  0.00    +0.000 A 
ATOM     19  C   UNL     1      -1.049  12.136  21.943  0.00  0.00    +0.000 A 
ATOM     20  C   UNL     1      -2.063  12.029  22.893  0.00  0.00    +0.000 A 
ATOM     21  C   UNL     1      -2.400  13.115  23.821  0.00  0.00    +0.000 A 
BRANCH  16  22
ATOM     22  C   UNL     1      -2.168  15.513  24.787  0.00  0.00    +0.000 C 
BRANCH  22  24
ATOM     23  N   UNL     1      -4.705  16.274  24.512  0.00  0.00    +0.000 NA
ATOM     24  C   UNL     1      -3.577  15.946  24.650  0.00  0.00    +0.000 C 
ENDBRANCH  22  24
ENDBRANCH  16  22
ENDBRANCH   1  19
BRANCH  11  25
ATOM     25  C   UNL     1       3.496   5.372  19.160  0.00  0.00    +0.000 A 
ATOM     26  C   UNL     1       2.997   4.210  19.860  0.00  0.00    +0.000 A 
ATOM     27  C   UNL     1       3.795   3.090  20.166  0.00  0.00    +0.000 A 
ATOM     28  N   UNL     1       5.077   2.997  19.802  0.00  0.00    +0.000 NA
ATOM     29  C   UNL     1       5.558   4.060  19.122  0.00  0.00    +0.000 A 
ATOM     30  C   UNL     1       4.830   5.241  18.783  0.00  0.00    +0.000 A 
ENDBRANCH  11  25
TORSDOF 4
ENDMDL
MODEL 7
REMARK VINA RESULT:      -7.1      2.091      9.854
REMARK  Name = 
REMARK  4 active torsions:
REMARK  status: ('A' for Active; 'I' for Inactive)
REMARK    1  A    between atoms: C_2  and  C_3
REMARK    2  A    between atoms: C_3  and  C_4
REMARK    3  A    between atoms: C_7  and  N_8
REMARK    4  A    between atoms: C_18  and  C_19
REMARK                            x       y       z     vdW  Elec       q    Type
REMARK                         _______ _______ _______ _____ _____    ______ ____
ROOT
ATOM      1  N   UNL     1       1.798   8.841  19.445  0.00  0.00    +0.000 N 
ATOM      2  C   UNL     1       2.045   9.288  18.066  0.00  0.00    +0.000 A 
ATOM      3  O   UNL     1       2.921   9.010  17.258  0.00  0.00    +0.000 OA
ATOM      4  N   UNL     1       0.914   9.945  17.671  0.00  0.00    +0.000 N 
ATOM      5  C   UNL     1      -0.138   9.631  18.549  0.00  0.00    +0.000 A 
ATOM      6  C   UNL     1      -1.299  10.273  18.348  0.00  0.00    +0.000 A 
ATOM      7  N   UNL     1      -1.234  11.567  18.518  0.00  0.00    +0.000 NA
ATOM      8  C   UNL     1      -0.677  11.938  19.664  0.00  0.00    +0.000 A 
ATOM      9  C   UNL     1      -1.032  13.283  19.797  0.00  0.00    +0.000 A 
ATOM     10  C   UNL     1      -1.144  13.933  20.987  0.00  0.00    +0.000 A 
ATOM     11  C   UNL     1      -0.938  13.259  22.182  0.00  0.00    +0.000 A 
ATOM     12  C   UNL     1      -0.267  11.898  21.983  0.00  0.00    +0.000 A 
ATOM     13  C   UNL     1      -0.066  11.056  20.611  0.00  0.00    +0.000 A 
ATOM     14  C   UNL     1       0.379   9.601  19.847  0.00  0.00    +0.000 A 
ATOM     15  H   UNL     1       0.818  10.403  16.776  0.00  0.00    +0.000 HD
ENDROOT
BRANCH   1  19
ATOM     16  C   UNL     1       1.745   4.218  19.389  0.00  0.00    +0.000 A 
ATOM     17  C   UNL     1       1.541   4.926  20.570  0.00  0.00    +0.000 A 
ATOM     18  C   UNL     1       1.643   6.374  20.576  0.00  0.00    +0.000 A 
ATOM     19  C   UNL     1       1.959   7.235  19.448  0.00  0.00    +0.000 A 
ATOM     20  C   UNL     1       2.211   6.476  18.307  0.00  0.00    +0.000 A 
ATOM     21  C   UNL     1       2.104   5.012  18.286  0.00  0.00    +0.000 A 
BRANCH  16  22
ATOM     22  C   UNL     1       1.564   2.699  19.333  0.00  0.00    +0.000 C 
BRANCH  22  24
ATOM     23  N   UNL     1       3.643   1.334  18.378  0.00  0.00    +0.000 NA
ATOM     24  C   UNL     1       2.723   1.954  18.789  0.00  0.00    +0.000 C 
ENDBRANCH  22  24
ENDBRANCH  16  22
ENDBRANCH   1  19
BRANCH  11  25
ATOM     25  C   UNL     1      -1.560  14.024  23.408  0.00  0.00    +0.000 A 
ATOM     26  C   UNL     1      -2.932  13.797  23.803  0.00  0.00    +0.000 A 
ATOM     27  C   UNL     1      -3.583  14.545  24.804  0.00  0.00    +0.000 A 
ATOM     28  N   UNL     1      -2.970  15.510  25.495  0.00  0.00    +0.000 NA
ATOM     29  C   UNL     1      -1.678  15.722  25.162  0.00  0.00    +0.000 A 
ATOM     30  C   UNL     1      -0.945  15.026  24.154  0.00  0.00    +0.000 A 
ENDBRANCH  11  25
TORSDOF 4
ENDMDL
MODEL 8
REMARK VINA RESULT:      -7.0      2.033      9.867
REMARK  Name = 
REMARK  4 active torsions:
REMARK  status: ('A' for Active; 'I' for Inactive)
REMARK    1  A    between atoms: C_2  and  C_3
REMARK    2  A    between atoms: C_3  and  C_4
REMARK    3  A    between atoms: C_7  and  N_8
REMARK    4  A    between atoms: C_18  and  C_19
REMARK                            x       y       z     vdW  Elec       q    Type
REMARK                         _______ _______ _______ _____ _____    ______ ____
ROOT
ATOM      1  N   UNL     1       1.850   8.593  19.427  0.00  0.00    +0.000 N 
ATOM      2  C   UNL     1       2.269   9.094  18.109  0.00  0.00    +0.000 A 
ATOM      3  O   UNL     1       3.203   8.795  17.376  0.00  0.00    +0.000 OA
ATOM      4  N   UNL     1       1.233   9.855  17.645  0.00  0.00    +0.000 N 
ATOM      5  C   UNL     1       0.076   9.573  18.393  0.00  0.00    +0.000 A 
ATOM      6  C   UNL     1      -1.010  10.310  18.117  0.00  0.00    +0.000 A 
ATOM      7  N   UNL     1      -0.874  11.585  18.371  0.00  0.00    +0.000 NA
ATOM      8  C   UNL     1      -0.414  11.851  19.587  0.00  0.00    +0.000 A 
ATOM      9  C   UNL     1      -0.688  13.209  19.767  0.00  0.00    +0.000 A 
ATOM     10  C   UNL     1      -0.877  13.801  20.977  0.00  0.00    +0.000 A 
ATOM     11  C   UNL     1      -0.843  13.050  22.143  0.00  0.00    +0.000 A 
ATOM     12  C   UNL     1      -0.250  11.656  21.929  0.00  0.00    +0.000 A 
ATOM     13  C   UNL     1       0.033  10.875  20.535  0.00  0.00    +0.000 A 
ATOM     14  C   UNL     1       0.453   9.435  19.731  0.00  0.00    +0.000 A 
ATOM     15  H   UNL     1       1.262  10.366  16.774  0.00  0.00    +0.000 HD
ENDROOT
BRANCH   1  19
ATOM     16  C   UNL     1       2.504   4.022  19.204  0.00  0.00    +0.000 A 
ATOM     17  C   UNL     1       2.474   4.801  18.051  0.00  0.00    +0.000 A 
ATOM     18  C   UNL     1       2.186   6.222  18.142  0.00  0.00    +0.000 A 
ATOM     19  C   UNL     1       1.898   6.982  19.347  0.00  0.00    +0.000 A 
ATOM     20  C   UNL     1       1.883   6.147  20.463  0.00  0.00    +0.000 A 
ATOM     21  C   UNL     1       2.179   4.711  20.385  0.00  0.00    +0.000 A 
BRANCH  16  22
ATOM     22  C   UNL     1       2.884   2.539  19.150  0.00  0.00    +0.000 C 
BRANCH  22  24
ATOM     23  N   UNL     1       5.085   1.892  20.504  0.00  0.00    +0.000 NA
ATOM     24  C   UNL     1       4.118   2.186  19.889  0.00  0.00    +0.000 C 
ENDBRANCH  22  24
ENDBRANCH  16  22
ENDBRANCH   1  19
BRANCH  11  25
ATOM     25  C   UNL     1      -1.534  13.793  23.345  0.00  0.00    +0.000 A 
ATOM     26  C   UNL     1      -2.890  13.472  23.732  0.00  0.00    +0.000 A 
ATOM     27  C   UNL     1      -3.605  14.191  24.710  0.00  0.00    +0.000 A 
ATOM     28  N   UNL     1      -3.074  15.214  25.386  0.00  0.00    +0.000 NA
ATOM     29  C   UNL     1      -1.798  15.515  25.060  0.00  0.00    +0.000 A 
ATOM     30  C   UNL     1      -1.004  14.854  24.074  0.00  0.00    +0.000 A 
ENDBRANCH  11  25
TORSDOF 4
ENDMDL
MODEL 9
REMARK VINA RESULT:      -7.0      2.045      9.697
REMARK  Name = 
REMARK  4 active torsions:
REMARK  status: ('A' for Active; 'I' for Inactive)
REMARK    1  A    between atoms: C_2  and  C_3
REMARK    2  A    between atoms: C_3  and  C_4
REMARK    3  A    between atoms: C_7  and  N_8
REMARK    4  A    between atoms: C_18  and  C_19
REMARK                            x       y       z     vdW  Elec       q    Type
REMARK                         _______ _______ _______ _____ _____    ______ ____
ROOT
ATOM      1  N   UNL     1       1.545   9.496  19.535  0.00  0.00    +0.000 N 
ATOM      2  C   UNL     1       1.621   9.865  18.113  0.00  0.00    +0.000 A 
ATOM      3  O   UNL     1       2.453   9.626  17.248  0.00  0.00    +0.000 OA
ATOM      4  N   UNL     1       0.392  10.361  17.783  0.00  0.00    +0.000 N 
ATOM      5  C   UNL     1      -0.539   9.998  18.772  0.00  0.00    +0.000 A 
ATOM      6  C   UNL     1      -1.780  10.491  18.637  0.00  0.00    +0.000 A 
ATOM      7  N   UNL     1      -1.852  11.794  18.718  0.00  0.00    +0.000 NA
ATOM      8  C   UNL     1      -1.248  12.308  19.781  0.00  0.00    +0.000 A 
ATOM      9  C   UNL     1      -1.745  13.611  19.861  0.00  0.00    +0.000 A 
ATOM     10  C   UNL     1      -1.832  14.331  21.011  0.00  0.00    +0.000 A 
ATOM     11  C   UNL     1      -1.450  13.774  22.223  0.00  0.00    +0.000 A 
ATOM     12  C   UNL     1      -0.643  12.485  22.052  0.00  0.00    +0.000 A 
ATOM     13  C   UNL     1      -0.461  11.571  20.723  0.00  0.00    +0.000 A 
ATOM     14  C   UNL     1       0.085  10.122  20.016  0.00  0.00    +0.000 A 
ATOM     15  H   UNL     1       0.168  10.738  16.873  0.00  0.00    +0.000 HD
ENDROOT
BRANCH   1  19
ATOM     16  C   UNL     1       2.042   4.901  19.674  0.00  0.00    +0.000 A 
ATOM     17  C   UNL     1       1.618   5.613  20.792  0.00  0.00    +0.000 A 
ATOM     18  C   UNL     1       1.548   7.063  20.747  0.00  0.00    +0.000 A 
ATOM     19  C   UNL     1       1.891   7.922  19.626  0.00  0.00    +0.000 A 
ATOM     20  C   UNL     1       2.364   7.166  18.555  0.00  0.00    +0.000 A 
ATOM     21  C   UNL     1       2.433   5.701  18.585  0.00  0.00    +0.000 A 
BRANCH  16  22
ATOM     22  C   UNL     1       2.049   3.370  19.664  0.00  0.00    +0.000 C 
BRANCH  22  24
ATOM     23  N   UNL     1       1.794   2.228  22.056  0.00  0.00    +0.000 NA
ATOM     24  C   UNL     1       1.889   2.738  20.993  0.00  0.00    +0.000 C 
ENDBRANCH  22  24
ENDBRANCH  16  22
ENDBRANCH   1  19
BRANCH  11  25
ATOM     25  C   UNL     1      -2.052  14.554  23.450  0.00  0.00    +0.000 A 
ATOM     26  C   UNL     1      -3.429  14.993  23.443  0.00  0.00    +0.000 A 
ATOM     27  C   UNL     1      -3.986  15.807  24.449  0.00  0.00    +0.000 A 
ATOM     28  N   UNL     1      -3.290  16.215  25.514  0.00  0.00    +0.000 NA
ATOM     29  C   UNL     1      -2.007  15.795  25.556  0.00  0.00    +0.000 A 
ATOM     30  C   UNL     1      -1.356  14.985  24.576  0.00  0.00    +0.000 A 
ENDBRANCH  11  25
TORSDOF 4
ENDMDL
