MODEL 1
REMARK VINA RESULT:      -7.1      0.000      0.000
REMARK  Name = 
REMARK  4 active torsions:
REMARK  status: ('A' for Active; 'I' for Inactive)
REMARK    1  A    between atoms: C_1  and  C_2
REMARK    2  A    between atoms: C_5  and  N_6
REMARK    3  A    between atoms: C_7  and  C_9
REMARK    4  A    between atoms: C_14  and  C_15
REMARK                            x       y       z     vdW  Elec       q    Type
REMARK                         _______ _______ _______ _____ _____    ______ ____
ROOT
ATOM      1  N   UNL     1       4.644   4.343  16.164  0.00  0.00    +0.000 N 
ATOM      2  C   UNL     1       6.027   4.431  16.212  0.00  0.00    +0.000 C 
ATOM      3  O   UNL     1       6.731   4.377  17.213  0.00  0.00    +0.000 OA
ATOM      4  H   UNL     1       4.250   4.435  15.236  0.00  0.00    +0.000 HD
ENDROOT
BRANCH   1   9
ATOM      5  C   UNL     1       0.987   3.496  20.532  0.00  0.00    +0.000 C 
ATOM      6  C   UNL     1       1.942   3.716  19.397  0.00  0.00    +0.000 A 
ATOM      7  C   UNL     1       2.422   2.644  18.655  0.00  0.00    +0.000 A 
ATOM      8  C   UNL     1       3.312   2.857  17.598  0.00  0.00    +0.000 A 
ATOM      9  C   UNL     1       3.751   4.141  17.245  0.00  0.00    +0.000 A 
ATOM     10  C   UNL     1       3.266   5.238  17.991  0.00  0.00    +0.000 A 
ATOM     11  C   UNL     1       3.640   6.679  17.758  0.00  0.00    +0.000 C 
ATOM     12  C   UNL     1       2.369   5.004  19.060  0.00  0.00    +0.000 A 
ENDBRANCH   1   9
BRANCH   2  13
ATOM     13  C   UNL     1       6.644   4.608  14.896  0.00  0.00    +0.000 A 
ATOM     14  C   UNL     1       6.243   3.919  13.762  0.00  0.00    +0.000 A 
ATOM     15  S   UNL     1       7.225   4.446  12.464  0.00  0.00    +0.000 S 
ATOM     16  N   UNL     1       8.092   5.507  13.426  0.00  0.00    +0.000 NA
ATOM     17  N   UNL     1       7.694   5.503  14.687  0.00  0.00    +0.000 NA
ENDBRANCH   2  13
TORSDOF 2
ENDMDL
MODEL 2
REMARK VINA RESULT:      -6.9      1.377      1.673
REMARK  Name = 
REMARK  4 active torsions:
REMARK  status: ('A' for Active; 'I' for Inactive)
REMARK    1  A    between atoms: C_1  and  C_2
REMARK    2  A    between atoms: C_5  and  N_6
REMARK    3  A    between atoms: C_7  and  C_9
REMARK    4  A    between atoms: C_14  and  C_15
REMARK                            x       y       z     vdW  Elec       q    Type
REMARK                         _______ _______ _______ _____ _____    ______ ____
ROOT
ATOM      1  N   UNL     1       4.556   3.794  17.400  0.00  0.00    +0.000 N 
ATOM      2  C   UNL     1       5.635   4.664  17.324  0.00  0.00    +0.000 C 
ATOM      3  O   UNL     1       6.087   5.350  18.233  0.00  0.00    +0.000 OA
ATOM      4  H   UNL     1       4.325   3.337  16.526  0.00  0.00    +0.000 HD
ENDROOT
BRANCH   1   9
ATOM      5  C   UNL     1       1.372   2.497  22.019  0.00  0.00    +0.000 C 
ATOM      6  C   UNL     1       2.202   2.838  20.819  0.00  0.00    +0.000 A 
ATOM      7  C   UNL     1       3.524   2.422  20.728  0.00  0.00    +0.000 A 
ATOM      8  C   UNL     1       4.292   2.744  19.605  0.00  0.00    +0.000 A 
ATOM      9  C   UNL     1       3.770   3.486  18.537  0.00  0.00    +0.000 A 
ATOM     10  C   UNL     1       2.425   3.911  18.617  0.00  0.00    +0.000 A 
ATOM     11  C   UNL     1       1.707   4.724  17.570  0.00  0.00    +0.000 C 
ATOM     12  C   UNL     1       1.663   3.581  19.763  0.00  0.00    +0.000 A 
ENDBRANCH   1   9
BRANCH   2  13
ATOM     13  C   UNL     1       6.244   4.720  15.995  0.00  0.00    +0.000 A 
ATOM     14  C   UNL     1       5.830   3.937  14.928  0.00  0.00    +0.000 A 
ATOM     15  S   UNL     1       6.808   4.340  13.582  0.00  0.00    +0.000 S 
ATOM     16  N   UNL     1       7.689   5.474  14.443  0.00  0.00    +0.000 NA
ATOM     17  N   UNL     1       7.300   5.584  15.701  0.00  0.00    +0.000 NA
ENDBRANCH   2  13
TORSDOF 2
ENDMDL
MODEL 3
REMARK VINA RESULT:      -6.7      1.195      2.147
REMARK  Name = 
REMARK  4 active torsions:
REMARK  status: ('A' for Active; 'I' for Inactive)
REMARK    1  A    between atoms: C_1  and  C_2
REMARK    2  A    between atoms: C_5  and  N_6
REMARK    3  A    between atoms: C_7  and  C_9
REMARK    4  A    between atoms: C_14  and  C_15
REMARK                            x       y       z     vdW  Elec       q    Type
REMARK                         _______ _______ _______ _____ _____    ______ ____
ROOT
ATOM      1  N   UNL     1       4.607   4.105  17.298  0.00  0.00    +0.000 N 
ATOM      2  C   UNL     1       5.976   4.333  17.275  0.00  0.00    +0.000 C 
ATOM      3  O   UNL     1       6.730   4.361  18.240  0.00  0.00    +0.000 OA
ATOM      4  H   UNL     1       4.160   4.147  16.390  0.00  0.00    +0.000 HD
ENDROOT
BRANCH   1   9
ATOM      5  C   UNL     1       1.334   2.991  21.902  0.00  0.00    +0.000 C 
ATOM      6  C   UNL     1       2.183   3.282  20.702  0.00  0.00    +0.000 A 
ATOM      7  C   UNL     1       2.539   4.586  20.383  0.00  0.00    +0.000 A 
ATOM      8  C   UNL     1       3.332   4.849  19.262  0.00  0.00    +0.000 A 
ATOM      9  C   UNL     1       3.795   3.825  18.424  0.00  0.00    +0.000 A 
ATOM     10  C   UNL     1       3.441   2.495  18.741  0.00  0.00    +0.000 A 
ATOM     11  C   UNL     1       3.840   1.277  17.947  0.00  0.00    +0.000 C 
ATOM     12  C   UNL     1       2.635   2.247  19.877  0.00  0.00    +0.000 A 
ENDBRANCH   1   9
BRANCH   2  13
ATOM     13  C   UNL     1       6.505   4.559  15.929  0.00  0.00    +0.000 A 
ATOM     14  C   UNL     1       6.040   3.898  14.802  0.00  0.00    +0.000 A 
ATOM     15  S   UNL     1       6.930   4.477  13.460  0.00  0.00    +0.000 S 
ATOM     16  N   UNL     1       7.844   5.521  14.398  0.00  0.00    +0.000 NA
ATOM     17  N   UNL     1       7.528   5.474  15.680  0.00  0.00    +0.000 NA
ENDBRANCH   2  13
TORSDOF 2
ENDMDL
MODEL 4
REMARK VINA RESULT:      -6.6      1.275      1.330
REMARK  Name = 
REMARK  4 active torsions:
REMARK  status: ('A' for Active; 'I' for Inactive)
REMARK    1  A    between atoms: C_1  and  C_2
REMARK    2  A    between atoms: C_5  and  N_6
REMARK    3  A    between atoms: C_7  and  C_9
REMARK    4  A    between atoms: C_14  and  C_15
REMARK                            x       y       z     vdW  Elec       q    Type
REMARK                         _______ _______ _______ _____ _____    ______ ____
ROOT
ATOM      1  N   UNL     1       4.733   3.933  16.354  0.00  0.00    +0.000 N 
ATOM      2  C   UNL     1       5.204   5.114  15.799  0.00  0.00    +0.000 C 
ATOM      3  O   UNL     1       4.910   6.253  16.142  0.00  0.00    +0.000 OA
ATOM      4  H   UNL     1       5.081   3.093  15.908  0.00  0.00    +0.000 HD
ENDROOT
BRANCH   1   9
ATOM      5  C   UNL     1       1.091   3.349  20.776  0.00  0.00    +0.000 C 
ATOM      6  C   UNL     1       2.040   3.497  19.625  0.00  0.00    +0.000 A 
ATOM      7  C   UNL     1       1.644   3.179  18.333  0.00  0.00    +0.000 A 
ATOM      8  C   UNL     1       2.534   3.321  17.264  0.00  0.00    +0.000 A 
ATOM      9  C   UNL     1       3.845   3.783  17.447  0.00  0.00    +0.000 A 
ATOM     10  C   UNL     1       4.257   4.113  18.757  0.00  0.00    +0.000 A 
ATOM     11  C   UNL     1       5.628   4.612  19.137  0.00  0.00    +0.000 C 
ATOM     12  C   UNL     1       3.345   3.959  19.828  0.00  0.00    +0.000 A 
ENDBRANCH   1   9
BRANCH   2  13
ATOM     13  C   UNL     1       6.141   4.904  14.694  0.00  0.00    +0.000 A 
ATOM     14  C   UNL     1       5.883   4.068  13.619  0.00  0.00    +0.000 A 
ATOM     15  S   UNL     1       7.237   4.138  12.575  0.00  0.00    +0.000 S 
ATOM     16  N   UNL     1       8.057   5.218  13.556  0.00  0.00    +0.000 NA
ATOM     17  N   UNL     1       7.378   5.547  14.642  0.00  0.00    +0.000 NA
ENDBRANCH   2  13
TORSDOF 2
ENDMDL
MODEL 5
REMARK VINA RESULT:      -6.5      0.841      1.893
REMARK  Name = 
REMARK  4 active torsions:
REMARK  status: ('A' for Active; 'I' for Inactive)
REMARK    1  A    between atoms: C_1  and  C_2
REMARK    2  A    between atoms: C_5  and  N_6
REMARK    3  A    between atoms: C_7  and  C_9
REMARK    4  A    between atoms: C_14  and  C_15
REMARK                            x       y       z     vdW  Elec       q    Type
REMARK                         _______ _______ _______ _____ _____    ______ ____
ROOT
ATOM      1  N   UNL     1       4.873   5.121  16.204  0.00  0.00    +0.000 N 
ATOM      2  C   UNL     1       6.211   4.758  16.153  0.00  0.00    +0.000 C 
ATOM      3  O   UNL     1       6.929   4.469  17.103  0.00  0.00    +0.000 OA
ATOM      4  H   UNL     1       4.466   5.346  15.305  0.00  0.00    +0.000 HD
ENDROOT
BRANCH   1   9
ATOM      5  C   UNL     1       1.525   5.489  20.875  0.00  0.00    +0.000 C 
ATOM      6  C   UNL     1       2.394   5.394  19.657  0.00  0.00    +0.000 A 
ATOM      7  C   UNL     1       2.926   6.536  19.073  0.00  0.00    +0.000 A 
ATOM      8  C   UNL     1       3.735   6.439  17.937  0.00  0.00    +0.000 A 
ATOM      9  C   UNL     1       4.042   5.205  17.348  0.00  0.00    +0.000 A 
ATOM     10  C   UNL     1       3.509   4.036  17.936  0.00  0.00    +0.000 A 
ATOM     11  C   UNL     1       3.725   2.634  17.430  0.00  0.00    +0.000 C 
ATOM     12  C   UNL     1       2.688   4.153  19.082  0.00  0.00    +0.000 A 
ENDBRANCH   1   9
BRANCH   2  13
ATOM     13  C   UNL     1       6.758   4.742  14.796  0.00  0.00    +0.000 A 
ATOM     14  C   UNL     1       6.243   3.962  13.771  0.00  0.00    +0.000 A 
ATOM     15  S   UNL     1       7.178   4.268  12.371  0.00  0.00    +0.000 S 
ATOM     16  N   UNL     1       8.171   5.363  13.157  0.00  0.00    +0.000 NA
ATOM     17  N   UNL     1       7.851   5.528  14.429  0.00  0.00    +0.000 NA
ENDBRANCH   2  13
TORSDOF 2
ENDMDL
MODEL 6
REMARK VINA RESULT:      -6.3      3.594      6.411
REMARK  Name = 
REMARK  4 active torsions:
REMARK  status: ('A' for Active; 'I' for Inactive)
REMARK    1  A    between atoms: C_1  and  C_2
REMARK    2  A    between atoms: C_5  and  N_6
REMARK    3  A    between atoms: C_7  and  C_9
REMARK    4  A    between atoms: C_14  and  C_15
REMARK                            x       y       z     vdW  Elec       q    Type
REMARK                         _______ _______ _______ _____ _____    ______ ____
ROOT
ATOM      1  N   UNL     1       4.860   3.756  17.868  0.00  0.00    +0.000 N 
ATOM      2  C   UNL     1       3.690   4.315  18.362  0.00  0.00    +0.000 C 
ATOM      3  O   UNL     1       3.059   5.245  17.873  0.00  0.00    +0.000 OA
ATOM      4  H   UNL     1       5.238   3.007  18.436  0.00  0.00    +0.000 HD
ENDROOT
BRANCH   1   9
ATOM      5  C   UNL     1       7.688   5.151  13.051  0.00  0.00    +0.000 C 
ATOM      6  C   UNL     1       6.950   4.791  14.304  0.00  0.00    +0.000 A 
ATOM      7  C   UNL     1       5.674   4.247  14.246  0.00  0.00    +0.000 A 
ATOM      8  C   UNL     1       4.992   3.914  15.420  0.00  0.00    +0.000 A 
ATOM      9  C   UNL     1       5.558   4.109  16.687  0.00  0.00    +0.000 A 
ATOM     10  C   UNL     1       6.857   4.658  16.759  0.00  0.00    +0.000 A 
ATOM     11  C   UNL     1       7.610   4.946  18.032  0.00  0.00    +0.000 C 
ATOM     12  C   UNL     1       7.531   4.994  15.560  0.00  0.00    +0.000 A 
ENDBRANCH   1   9
BRANCH   2  13
ATOM     13  C   UNL     1       3.219   3.683  19.596  0.00  0.00    +0.000 A 
ATOM     14  C   UNL     1       2.000   3.974  20.188  0.00  0.00    +0.000 A 
ATOM     15  S   UNL     1       1.863   3.002  21.590  0.00  0.00    +0.000 S 
ATOM     16  N   UNL     1       3.357   2.283  21.353  0.00  0.00    +0.000 NA
ATOM     17  N   UNL     1       3.975   2.724  20.270  0.00  0.00    +0.000 NA
ENDBRANCH   2  13
TORSDOF 2
ENDMDL
MODEL 7
REMARK VINA RESULT:      -6.3      2.107      3.133
REMARK  Name = 
REMARK  4 active torsions:
REMARK  status: ('A' for Active; 'I' for Inactive)
REMARK    1  A    between atoms: C_1  and  C_2
REMARK    2  A    between atoms: C_5  and  N_6
REMARK    3  A    between atoms: C_7  and  C_9
REMARK    4  A    between atoms: C_14  and  C_15
REMARK                            x       y       z     vdW  Elec       q    Type
REMARK                         _______ _______ _______ _____ _____    ______ ____
ROOT
ATOM      1  N   UNL     1       4.114   6.262  17.193  0.00  0.00    +0.000 N 
ATOM      2  C   UNL     1       5.498   6.164  17.216  0.00  0.00    +0.000 C 
ATOM      3  O   UNL     1       6.245   6.555  18.105  0.00  0.00    +0.000 OA
ATOM      4  H   UNL     1       3.683   5.898  16.352  0.00  0.00    +0.000 HD
ENDROOT
BRANCH   1   9
ATOM      5  C   UNL     1       0.696   8.479  21.262  0.00  0.00    +0.000 C 
ATOM      6  C   UNL     1       1.583   7.901  20.201  0.00  0.00    +0.000 A 
ATOM      7  C   UNL     1       1.878   8.622  19.052  0.00  0.00    +0.000 A 
ATOM      8  C   UNL     1       2.707   8.076  18.066  0.00  0.00    +0.000 A 
ATOM      9  C   UNL     1       3.267   6.798  18.194  0.00  0.00    +0.000 A 
ATOM     10  C   UNL     1       2.976   6.056  19.360  0.00  0.00    +0.000 A 
ATOM     11  C   UNL     1       3.481   4.668  19.655  0.00  0.00    +0.000 C 
ATOM     12  C   UNL     1       2.132   6.622  20.345  0.00  0.00    +0.000 A 
ENDBRANCH   1   9
BRANCH   2  13
ATOM     13  C   UNL     1       6.055   5.521  16.025  0.00  0.00    +0.000 A 
ATOM     14  C   UNL     1       5.383   4.558  15.288  0.00  0.00    +0.000 A 
ATOM     15  S   UNL     1       6.399   4.100  13.989  0.00  0.00    +0.000 S 
ATOM     16  N   UNL     1       7.620   5.150  14.450  0.00  0.00    +0.000 NA
ATOM     17  N   UNL     1       7.322   5.843  15.535  0.00  0.00    +0.000 NA
ENDBRANCH   2  13
TORSDOF 2
ENDMDL
MODEL 8
REMARK VINA RESULT:      -6.3      3.719      6.426
REMARK  Name = 
REMARK  4 active torsions:
REMARK  status: ('A' for Active; 'I' for Inactive)
REMARK    1  A    between atoms: C_1  and  C_2
REMARK    2  A    between atoms: C_5  and  N_6
REMARK    3  A    between atoms: C_7  and  C_9
REMARK    4  A    between atoms: C_14  and  C_15
REMARK                            x       y       z     vdW  Elec       q    Type
REMARK                         _______ _______ _______ _____ _____    ______ ____
ROOT
ATOM      1  N   UNL     1       4.466   3.977  17.979  0.00  0.00    +0.000 N 
ATOM      2  C   UNL     1       3.878   2.768  18.324  0.00  0.00    +0.000 C 
ATOM      3  O   UNL     1       3.921   1.724  17.685  0.00  0.00    +0.000 OA
ATOM      4  H   UNL     1       4.291   4.729  18.635  0.00  0.00    +0.000 HD
ENDROOT
BRANCH   1   9
ATOM      5  C   UNL     1       7.695   5.084  13.342  0.00  0.00    +0.000 C 
ATOM      6  C   UNL     1       6.853   4.799  14.549  0.00  0.00    +0.000 A 
ATOM      7  C   UNL     1       5.533   4.389  14.413  0.00  0.00    +0.000 A 
ATOM      8  C   UNL     1       4.754   4.125  15.544  0.00  0.00    +0.000 A 
ATOM      9  C   UNL     1       5.263   4.260  16.843  0.00  0.00    +0.000 A 
ATOM     10  C   UNL     1       6.605   4.673  16.993  0.00  0.00    +0.000 A 
ATOM     11  C   UNL     1       7.309   4.880  18.309  0.00  0.00    +0.000 C 
ATOM     12  C   UNL     1       7.378   4.940  15.838  0.00  0.00    +0.000 A 
ENDBRANCH   1   9
BRANCH   2  13
ATOM     13  C   UNL     1       3.146   2.818  19.591  0.00  0.00    +0.000 A 
ATOM     14  C   UNL     1       1.841   3.271  19.704  0.00  0.00    +0.000 A 
ATOM     15  S   UNL     1       1.391   3.142  21.350  0.00  0.00    +0.000 S 
ATOM     16  N   UNL     1       2.879   2.525  21.806  0.00  0.00    +0.000 NA
ATOM     17  N   UNL     1       3.719   2.400  20.793  0.00  0.00    +0.000 NA
ENDBRANCH   2  13
TORSDOF 2
ENDMDL
MODEL 9
REMARK VINA RESULT:      -6.2      5.930      7.858
REMARK  Name = 
REMARK  4 active torsions:
REMARK  status: ('A' for Active; 'I' for Inactive)
REMARK    1  A    between atoms: C_1  and  C_2
REMARK    2  A    between atoms: C_5  and  N_6
REMARK    3  A    between atoms: C_7  and  C_9
REMARK    4  A    between atoms: C_14  and  C_15
REMARK                            x       y       z     vdW  Elec       q    Type
REMARK                         _______ _______ _______ _____ _____    ______ ____
ROOT
ATOM      1  N   UNL     1       1.867   7.339  20.452  0.00  0.00    +0.000 N 
ATOM      2  C   UNL     1       1.341   8.597  20.199  0.00  0.00    +0.000 C 
ATOM      3  O   UNL     1       1.345   9.191  19.127  0.00  0.00    +0.000 OA
ATOM      4  H   UNL     1       1.783   7.036  21.414  0.00  0.00    +0.000 HD
ENDROOT
BRANCH   1   9
ATOM      5  C   UNL     1       4.378   3.788  16.678  0.00  0.00    +0.000 C 
ATOM      6  C   UNL     1       3.728   4.712  17.662  0.00  0.00    +0.000 A 
ATOM      7  C   UNL     1       4.004   6.073  17.648  0.00  0.00    +0.000 A 
ATOM      8  C   UNL     1       3.393   6.929  18.570  0.00  0.00    +0.000 A 
ATOM      9  C   UNL     1       2.488   6.459  19.532  0.00  0.00    +0.000 A 
ATOM     10  C   UNL     1       2.197   5.076  19.553  0.00  0.00    +0.000 A 
ATOM     11  C   UNL     1       1.262   4.400  20.522  0.00  0.00    +0.000 C 
ATOM     12  C   UNL     1       2.828   4.224  18.616  0.00  0.00    +0.000 A 
ENDBRANCH   1   9
BRANCH   2  13
ATOM     13  C   UNL     1       0.738   9.223  21.376  0.00  0.00    +0.000 A 
ATOM     14  C   UNL     1      -0.481   9.883  21.354  0.00  0.00    +0.000 A 
ATOM     15  S   UNL     1      -0.795  10.441  22.941  0.00  0.00    +0.000 S 
ATOM     16  N   UNL     1       0.634   9.812  23.546  0.00  0.00    +0.000 NA
ATOM     17  N   UNL     1       1.355   9.194  22.627  0.00  0.00    +0.000 NA
ENDBRANCH   2  13
TORSDOF 2
ENDMDL
