MODEL 1
REMARK VINA RESULT:      -8.8      0.000      0.000
REMARK  Name = 
REMARK  7 active torsions:
REMARK  status: ('A' for Active; 'I' for Inactive)
REMARK    1  A    between atoms: C_1  and  N_2
REMARK    2  A    between atoms: N_2  and  C_3
REMARK    3  A    between atoms: C_6  and  N_7
REMARK    4  A    between atoms: C_10  and  C_11
REMARK    5  A    between atoms: N_18  and  C_19
REMARK    6  A    between atoms: C_19  and  C_20
REMARK    7  A    between atoms: C_22  and  C_23
REMARK                            x       y       z     vdW  Elec       q    Type
REMARK                         _______ _______ _______ _____ _____    ______ ____
ROOT
ATOM      1  C   UNL     1       0.878   2.317  18.858  0.00  0.00    +0.000 C 
ATOM      2  N   UNL     1       2.218   2.752  18.510  0.00  0.00    +0.000 N 
ATOM      3  C   UNL     1       2.938   2.062  17.450  0.00  0.00    +0.000 C 
ATOM      4  C   UNL     1       2.737   3.959  18.957  0.00  0.00    +0.000 A 
ATOM      5  C   UNL     1       2.049   4.763  19.842  0.00  0.00    +0.000 A 
ATOM      6  C   UNL     1       2.584   5.993  20.152  0.00  0.00    +0.000 A 
ATOM      7  N   UNL     1       3.733   6.413  19.604  0.00  0.00    +0.000 NA
ATOM      8  C   UNL     1       4.409   5.546  18.861  0.00  0.00    +0.000 A 
ATOM      9  N   UNL     1       5.653   5.960  18.454  0.00  0.00    +0.000 N 
ATOM     10  N   UNL     1       3.948   4.340  18.516  0.00  0.00    +0.000 NA
ATOM     11  H   UNL     1       5.704   6.944  18.247  0.00  0.00    +0.000 HD
ENDROOT
BRANCH   6  12
ATOM     12  N   UNL     1       1.874   6.815  21.059  0.00  0.00    +0.000 N 
ATOM     13  C   UNL     1       1.431   8.063  20.812  0.00  0.00    +0.000 A 
ATOM     14  C   UNL     1       0.904   8.487  19.572  0.00  0.00    +0.000 A 
ATOM     15  C   UNL     1       0.612   9.814  19.746  0.00  0.00    +0.000 A 
ATOM     16  N   UNL     1       0.926  10.097  21.041  0.00  0.00    +0.000 N 
ATOM     17  N   UNL     1       1.385   9.035  21.727  0.00  0.00    +0.000 NA
ATOM     18  H   UNL     1       2.228   6.687  22.000  0.00  0.00    +0.000 HD
ATOM     19  H   UNL     1       0.847  10.986  21.521  0.00  0.00    +0.000 HD
BRANCH  15  20
ATOM     20  C   UNL     1       0.080  10.729  18.672  0.00  0.00    +0.000 C 
ATOM     21  C   UNL     1      -1.090  10.280  17.829  0.00  0.00    +0.000 C 
ATOM     22  C   UNL     1      -1.294  11.329  18.867  0.00  0.00    +0.000 C 
ENDBRANCH  15  20
ENDBRANCH   6  12
BRANCH   9  23
ATOM     23  C   UNL     1       6.608   5.034  17.902  0.00  0.00    +0.000 C 
BRANCH  23  24
ATOM     24  C   UNL     1       6.564   4.796  16.444  0.00  0.00    +0.000 A 
ATOM     25  C   UNL     1       5.814   3.998  15.617  0.00  0.00    +0.000 A 
ATOM     26  C   UNL     1       6.333   4.226  14.320  0.00  0.00    +0.000 A 
ATOM     27  N   UNL     1       7.315   5.142  14.365  0.00  0.00    +0.000 NA
ATOM     28  O   UNL     1       7.463   5.485  15.694  0.00  0.00    +0.000 OA
BRANCH  26  29
ATOM     29  C   UNL     1       5.913   3.594  13.073  0.00  0.00    +0.000 A 
ATOM     30  C   UNL     1       4.626   3.798  12.562  0.00  0.00    +0.000 A 
ATOM     31  C   UNL     1       4.224   3.170  11.380  0.00  0.00    +0.000 A 
ATOM     32  C   UNL     1       5.109   2.339  10.698  0.00  0.00    +0.000 A 
ATOM     33  C   UNL     1       6.397   2.135  11.189  0.00  0.00    +0.000 A 
ATOM     34  C   UNL     1       6.799   2.759  12.372  0.00  0.00    +0.000 A 
ENDBRANCH  26  29
ENDBRANCH  23  24
ENDBRANCH   9  23
TORSDOF 5
ENDMDL
MODEL 2
REMARK VINA RESULT:      -8.6      3.853      7.644
REMARK  Name = 
REMARK  7 active torsions:
REMARK  status: ('A' for Active; 'I' for Inactive)
REMARK    1  A    between atoms: C_1  and  N_2
REMARK    2  A    between atoms: N_2  and  C_3
REMARK    3  A    between atoms: C_6  and  N_7
REMARK    4  A    between atoms: C_10  and  C_11
REMARK    5  A    between atoms: N_18  and  C_19
REMARK    6  A    between atoms: C_19  and  C_20
REMARK    7  A    between atoms: C_22  and  C_23
REMARK                            x       y       z     vdW  Elec       q    Type
REMARK                         _______ _______ _______ _____ _____    ______ ____
ROOT
ATOM      1  C   UNL     1       1.156  14.972  18.743  0.00  0.00    +0.000 C 
ATOM      2  N   UNL     1       1.320  13.661  19.341  0.00  0.00    +0.000 N 
ATOM      3  C   UNL     1       2.327  13.470  20.374  0.00  0.00    +0.000 C 
ATOM      4  C   UNL     1       0.385  12.651  19.163  0.00  0.00    +0.000 A 
ATOM      5  C   UNL     1      -0.699  12.802  18.322  0.00  0.00    +0.000 A 
ATOM      6  C   UNL     1      -1.636  11.796  18.284  0.00  0.00    +0.000 A 
ATOM      7  N   UNL     1      -1.518  10.701  19.048  0.00  0.00    +0.000 NA
ATOM      8  C   UNL     1      -0.393  10.556  19.739  0.00  0.00    +0.000 A 
ATOM      9  N   UNL     1      -0.244   9.351  20.378  0.00  0.00    +0.000 N 
ATOM     10  N   UNL     1       0.555  11.493  19.825  0.00  0.00    +0.000 NA
ATOM     11  H   UNL     1      -1.105   8.974  20.738  0.00  0.00    +0.000 HD
ENDROOT
BRANCH   6  12
ATOM     12  N   UNL     1      -2.746  11.956  17.421  0.00  0.00    +0.000 N 
ATOM     13  C   UNL     1      -4.035  11.732  17.743  0.00  0.00    +0.000 A 
ATOM     14  C   UNL     1      -4.604  12.038  19.000  0.00  0.00    +0.000 A 
ATOM     15  C   UNL     1      -5.906  11.622  18.910  0.00  0.00    +0.000 A 
ATOM     16  N   UNL     1      -6.057  11.145  17.643  0.00  0.00    +0.000 N 
ATOM     17  N   UNL     1      -4.944  11.242  16.895  0.00  0.00    +0.000 NA
ATOM     18  H   UNL     1      -2.505  11.667  16.480  0.00  0.00    +0.000 HD
ATOM     19  H   UNL     1      -6.890  10.747  17.222  0.00  0.00    +0.000 HD
BRANCH  15  20
ATOM     20  C   UNL     1      -6.911  11.680  20.033  0.00  0.00    +0.000 C 
ATOM     21  C   UNL     1      -6.587  12.476  21.275  0.00  0.00    +0.000 C 
ATOM     22  C   UNL     1      -7.592  13.002  20.309  0.00  0.00    +0.000 C 
ENDBRANCH  15  20
ENDBRANCH   6  12
BRANCH   9  23
ATOM     23  C   UNL     1       1.029   8.938  20.912  0.00  0.00    +0.000 C 
BRANCH  23  24
ATOM     24  C   UNL     1       1.756   7.870  20.193  0.00  0.00    +0.000 A 
ATOM     25  C   UNL     1       2.530   7.820  19.061  0.00  0.00    +0.000 A 
ATOM     26  C   UNL     1       2.875   6.455  18.915  0.00  0.00    +0.000 A 
ATOM     27  N   UNL     1       2.368   5.734  19.929  0.00  0.00    +0.000 NA
ATOM     28  O   UNL     1       1.659   6.620  20.716  0.00  0.00    +0.000 OA
BRANCH  26  29
ATOM     29  C   UNL     1       3.662   5.849  17.845  0.00  0.00    +0.000 A 
ATOM     30  C   UNL     1       3.618   4.469  17.615  0.00  0.00    +0.000 A 
ATOM     31  C   UNL     1       4.393   3.893  16.605  0.00  0.00    +0.000 A 
ATOM     32  C   UNL     1       5.212   4.695  15.814  0.00  0.00    +0.000 A 
ATOM     33  C   UNL     1       5.258   6.071  16.025  0.00  0.00    +0.000 A 
ATOM     34  C   UNL     1       4.487   6.647  17.036  0.00  0.00    +0.000 A 
ENDBRANCH  26  29
ENDBRANCH  23  24
ENDBRANCH   9  23
TORSDOF 5
ENDMDL
MODEL 3
REMARK VINA RESULT:      -8.5      0.550      1.085
REMARK  Name = 
REMARK  7 active torsions:
REMARK  status: ('A' for Active; 'I' for Inactive)
REMARK    1  A    between atoms: C_1  and  N_2
REMARK    2  A    between atoms: N_2  and  C_3
REMARK    3  A    between atoms: C_6  and  N_7
REMARK    4  A    between atoms: C_10  and  C_11
REMARK    5  A    between atoms: N_18  and  C_19
REMARK    6  A    between atoms: C_19  and  C_20
REMARK    7  A    between atoms: C_22  and  C_23
REMARK                            x       y       z     vdW  Elec       q    Type
REMARK                         _______ _______ _______ _____ _____    ______ ____
ROOT
ATOM      1  C   UNL     1       0.863   2.243  19.107  0.00  0.00    +0.000 C 
ATOM      2  N   UNL     1       2.179   2.736  18.746  0.00  0.00    +0.000 N 
ATOM      3  C   UNL     1       2.959   2.018  17.749  0.00  0.00    +0.000 C 
ATOM      4  C   UNL     1       2.614   4.002  19.110  0.00  0.00    +0.000 A 
ATOM      5  C   UNL     1       1.861   4.823  19.925  0.00  0.00    +0.000 A 
ATOM      6  C   UNL     1       2.313   6.103  20.151  0.00  0.00    +0.000 A 
ATOM      7  N   UNL     1       3.442   6.556  19.589  0.00  0.00    +0.000 NA
ATOM      8  C   UNL     1       4.184   5.681  18.920  0.00  0.00    +0.000 A 
ATOM      9  N   UNL     1       5.407   6.144  18.500  0.00  0.00    +0.000 N 
ATOM     10  N   UNL     1       3.806   4.427  18.659  0.00  0.00    +0.000 NA
ATOM     11  H   UNL     1       5.400   7.112  18.223  0.00  0.00    +0.000 HD
ENDROOT
BRANCH   6  12
ATOM     12  N   UNL     1       1.537   6.942  20.986  0.00  0.00    +0.000 N 
ATOM     13  C   UNL     1       1.331   8.261  20.807  0.00  0.00    +0.000 A 
ATOM     14  C   UNL     1       1.154   8.873  19.547  0.00  0.00    +0.000 A 
ATOM     15  C   UNL     1       1.012  10.208  19.817  0.00  0.00    +0.000 A 
ATOM     16  N   UNL     1       1.067  10.320  21.174  0.00  0.00    +0.000 N 
ATOM     17  N   UNL     1       1.216   9.142  21.805  0.00  0.00    +0.000 NA
ATOM     18  H   UNL     1       1.654   6.676  21.957  0.00  0.00    +0.000 HD
ATOM     19  H   UNL     1       1.005  11.164  21.732  0.00  0.00    +0.000 HD
BRANCH  15  20
ATOM     20  C   UNL     1       0.859  11.289  18.777  0.00  0.00    +0.000 C 
ATOM     21  C   UNL     1      -0.464  12.006  18.643  0.00  0.00    +0.000 C 
ATOM     22  C   UNL     1       0.696  12.715  19.254  0.00  0.00    +0.000 C 
ENDBRANCH  15  20
ENDBRANCH   6  12
BRANCH   9  23
ATOM     23  C   UNL     1       6.428   5.243  18.030  0.00  0.00    +0.000 C 
BRANCH  23  24
ATOM     24  C   UNL     1       6.483   4.972  16.578  0.00  0.00    +0.000 A 
ATOM     25  C   UNL     1       5.804   4.139  15.724  0.00  0.00    +0.000 A 
ATOM     26  C   UNL     1       6.401   4.349  14.458  0.00  0.00    +0.000 A 
ATOM     27  N   UNL     1       7.359   5.288  14.544  0.00  0.00    +0.000 NA
ATOM     28  O   UNL     1       7.414   5.663  15.871  0.00  0.00    +0.000 OA
BRANCH  26  29
ATOM     29  C   UNL     1       6.076   3.681  13.202  0.00  0.00    +0.000 A 
ATOM     30  C   UNL     1       7.070   3.047  12.448  0.00  0.00    +0.000 A 
ATOM     31  C   UNL     1       6.754   2.430  11.234  0.00  0.00    +0.000 A 
ATOM     32  C   UNL     1       5.442   2.438  10.770  0.00  0.00    +0.000 A 
ATOM     33  C   UNL     1       4.440   3.057  11.514  0.00  0.00    +0.000 A 
ATOM     34  C   UNL     1       4.754   3.676  12.726  0.00  0.00    +0.000 A 
ENDBRANCH  26  29
ENDBRANCH  23  24
ENDBRANCH   9  23
TORSDOF 5
ENDMDL
MODEL 4
REMARK VINA RESULT:      -8.3      2.875     10.044
REMARK  Name = 
REMARK  7 active torsions:
REMARK  status: ('A' for Active; 'I' for Inactive)
REMARK    1  A    between atoms: C_1  and  N_2
REMARK    2  A    between atoms: N_2  and  C_3
REMARK    3  A    between atoms: C_6  and  N_7
REMARK    4  A    between atoms: C_10  and  C_11
REMARK    5  A    between atoms: N_18  and  C_19
REMARK    6  A    between atoms: C_19  and  C_20
REMARK    7  A    between atoms: C_22  and  C_23
REMARK                            x       y       z     vdW  Elec       q    Type
REMARK                         _______ _______ _______ _____ _____    ______ ____
ROOT
ATOM      1  C   UNL     1       2.528   2.504  17.408  0.00  0.00    +0.000 C 
ATOM      2  N   UNL     1       2.000   3.529  18.287  0.00  0.00    +0.000 N 
ATOM      3  C   UNL     1       1.013   3.164  19.293  0.00  0.00    +0.000 C 
ATOM      4  C   UNL     1       2.587   4.782  18.390  0.00  0.00    +0.000 A 
ATOM      5  C   UNL     1       3.642   5.159  17.584  0.00  0.00    +0.000 A 
ATOM      6  C   UNL     1       4.236   6.377  17.821  0.00  0.00    +0.000 A 
ATOM      7  N   UNL     1       3.821   7.176  18.814  0.00  0.00    +0.000 NA
ATOM      8  C   UNL     1       2.725   6.815  19.471  0.00  0.00    +0.000 A 
ATOM      9  N   UNL     1       2.243   7.737  20.367  0.00  0.00    +0.000 N 
ATOM     10  N   UNL     1       2.101   5.648  19.296  0.00  0.00    +0.000 NA
ATOM     11  H   UNL     1       2.964   8.256  20.841  0.00  0.00    +0.000 HD
ENDROOT
BRANCH   6  12
ATOM     12  N   UNL     1       5.318   6.760  16.993  0.00  0.00    +0.000 N 
ATOM     13  C   UNL     1       5.922   5.980  16.075  0.00  0.00    +0.000 A 
ATOM     14  C   UNL     1       5.244   5.055  15.250  0.00  0.00    +0.000 A 
ATOM     15  C   UNL     1       6.226   4.463  14.501  0.00  0.00    +0.000 A 
ATOM     16  N   UNL     1       7.390   5.066  14.869  0.00  0.00    +0.000 N 
ATOM     17  N   UNL     1       7.228   6.028  15.795  0.00  0.00    +0.000 NA
ATOM     18  H   UNL     1       5.958   7.358  17.503  0.00  0.00    +0.000 HD
ATOM     19  H   UNL     1       8.326   4.877  14.528  0.00  0.00    +0.000 HD
BRANCH  15  20
ATOM     20  C   UNL     1       6.003   3.350  13.508  0.00  0.00    +0.000 C 
ATOM     21  C   UNL     1       5.042   3.563  12.362  0.00  0.00    +0.000 C 
ATOM     22  C   UNL     1       6.508   3.547  12.096  0.00  0.00    +0.000 C 
ENDBRANCH  15  20
ENDBRANCH   6  12
BRANCH   9  23
ATOM     23  C   UNL     1       0.922   7.618  20.927  0.00  0.00    +0.000 C 
BRANCH  23  24
ATOM     24  C   UNL     1       0.310   8.837  21.498  0.00  0.00    +0.000 A 
ATOM     25  C   UNL     1      -0.381   9.904  20.980  0.00  0.00    +0.000 A 
ATOM     26  C   UNL     1      -0.634  10.747  22.089  0.00  0.00    +0.000 A 
ATOM     27  N   UNL     1      -0.155  10.193  23.215  0.00  0.00    +0.000 NA
ATOM     28  O   UNL     1       0.445   9.007  22.838  0.00  0.00    +0.000 OA
BRANCH  26  29
ATOM     29  C   UNL     1      -1.309  12.041  22.084  0.00  0.00    +0.000 A 
ATOM     30  C   UNL     1      -2.387  12.285  21.224  0.00  0.00    +0.000 A 
ATOM     31  C   UNL     1      -3.012  13.535  21.208  0.00  0.00    +0.000 A 
ATOM     32  C   UNL     1      -2.568  14.546  22.056  0.00  0.00    +0.000 A 
ATOM     33  C   UNL     1      -1.504  14.314  22.924  0.00  0.00    +0.000 A 
ATOM     34  C   UNL     1      -0.876  13.067  22.939  0.00  0.00    +0.000 A 
ENDBRANCH  26  29
ENDBRANCH  23  24
ENDBRANCH   9  23
TORSDOF 5
ENDMDL
MODEL 5
REMARK VINA RESULT:      -8.2      2.873     10.155
REMARK  Name = 
REMARK  7 active torsions:
REMARK  status: ('A' for Active; 'I' for Inactive)
REMARK    1  A    between atoms: C_1  and  N_2
REMARK    2  A    between atoms: N_2  and  C_3
REMARK    3  A    between atoms: C_6  and  N_7
REMARK    4  A    between atoms: C_10  and  C_11
REMARK    5  A    between atoms: N_18  and  C_19
REMARK    6  A    between atoms: C_19  and  C_20
REMARK    7  A    between atoms: C_22  and  C_23
REMARK                            x       y       z     vdW  Elec       q    Type
REMARK                         _______ _______ _______ _____ _____    ______ ____
ROOT
ATOM      1  C   UNL     1       3.401   3.820  19.882  0.00  0.00    +0.000 C 
ATOM      2  N   UNL     1       2.584   4.982  19.588  0.00  0.00    +0.000 N 
ATOM      3  C   UNL     1       1.382   5.224  20.372  0.00  0.00    +0.000 C 
ATOM      4  C   UNL     1       3.036   6.010  18.774  0.00  0.00    +0.000 A 
ATOM      5  C   UNL     1       4.246   5.938  18.114  0.00  0.00    +0.000 A 
ATOM      6  C   UNL     1       4.671   7.044  17.414  0.00  0.00    +0.000 A 
ATOM      7  N   UNL     1       3.945   8.170  17.378  0.00  0.00    +0.000 NA
ATOM      8  C   UNL     1       2.736   8.135  17.925  0.00  0.00    +0.000 A 
ATOM      9  N   UNL     1       1.965   9.253  17.726  0.00  0.00    +0.000 N 
ATOM     10  N   UNL     1       2.262   7.099  18.623  0.00  0.00    +0.000 NA
ATOM     11  H   UNL     1       2.490  10.112  17.725  0.00  0.00    +0.000 HD
ENDROOT
BRANCH   6  12
ATOM     12  N   UNL     1       5.913   6.965  16.741  0.00  0.00    +0.000 N 
ATOM     13  C   UNL     1       6.304   5.970  15.920  0.00  0.00    +0.000 A 
ATOM     14  C   UNL     1       5.447   5.304  15.017  0.00  0.00    +0.000 A 
ATOM     15  C   UNL     1       6.233   4.356  14.415  0.00  0.00    +0.000 A 
ATOM     16  N   UNL     1       7.480   4.523  14.937  0.00  0.00    +0.000 N 
ATOM     17  N   UNL     1       7.562   5.531  15.825  0.00  0.00    +0.000 NA
ATOM     18  H   UNL     1       6.656   7.322  17.330  0.00  0.00    +0.000 HD
ATOM     19  H   UNL     1       8.318   3.991  14.730  0.00  0.00    +0.000 HD
BRANCH  15  20
ATOM     20  C   UNL     1       5.748   3.343  13.409  0.00  0.00    +0.000 C 
ATOM     21  C   UNL     1       4.962   3.812  12.207  0.00  0.00    +0.000 C 
ATOM     22  C   UNL     1       6.371   3.357  12.032  0.00  0.00    +0.000 C 
ENDBRANCH  15  20
ENDBRANCH   6  12
BRANCH   9  23
ATOM     23  C   UNL     1       0.551   9.247  17.998  0.00  0.00    +0.000 C 
BRANCH  23  24
ATOM     24  C   UNL     1       0.070  10.067  19.131  0.00  0.00    +0.000 A 
ATOM     25  C   UNL     1      -1.134  10.630  19.474  0.00  0.00    +0.000 A 
ATOM     26  C   UNL     1      -0.877  11.334  20.675  0.00  0.00    +0.000 A 
ATOM     27  N   UNL     1       0.402  11.166  21.051  0.00  0.00    +0.000 NA
ATOM     28  O   UNL     1       0.992  10.386  20.076  0.00  0.00    +0.000 OA
BRANCH  26  29
ATOM     29  C   UNL     1      -1.815  12.144  21.446  0.00  0.00    +0.000 A 
ATOM     30  C   UNL     1      -2.543  13.174  20.838  0.00  0.00    +0.000 A 
ATOM     31  C   UNL     1      -3.421  13.960  21.589  0.00  0.00    +0.000 A 
ATOM     32  C   UNL     1      -3.582  13.718  22.951  0.00  0.00    +0.000 A 
ATOM     33  C   UNL     1      -2.873  12.689  23.566  0.00  0.00    +0.000 A 
ATOM     34  C   UNL     1      -1.993  11.904  22.819  0.00  0.00    +0.000 A 
ENDBRANCH  26  29
ENDBRANCH  23  24
ENDBRANCH   9  23
TORSDOF 5
ENDMDL
MODEL 6
REMARK VINA RESULT:      -8.0      2.789      9.924
REMARK  Name = 
REMARK  7 active torsions:
REMARK  status: ('A' for Active; 'I' for Inactive)
REMARK    1  A    between atoms: C_1  and  N_2
REMARK    2  A    between atoms: N_2  and  C_3
REMARK    3  A    between atoms: C_6  and  N_7
REMARK    4  A    between atoms: C_10  and  C_11
REMARK    5  A    between atoms: N_18  and  C_19
REMARK    6  A    between atoms: C_19  and  C_20
REMARK    7  A    between atoms: C_22  and  C_23
REMARK                            x       y       z     vdW  Elec       q    Type
REMARK                         _______ _______ _______ _____ _____    ______ ____
ROOT
ATOM      1  C   UNL     1       2.560   1.736  17.942  0.00  0.00    +0.000 C 
ATOM      2  N   UNL     1       2.026   2.918  18.591  0.00  0.00    +0.000 N 
ATOM      3  C   UNL     1       0.763   2.827  19.308  0.00  0.00    +0.000 C 
ATOM      4  C   UNL     1       2.793   4.058  18.784  0.00  0.00    +0.000 A 
ATOM      5  C   UNL     1       4.071   4.171  18.277  0.00  0.00    +0.000 A 
ATOM      6  C   UNL     1       4.803   5.289  18.604  0.00  0.00    +0.000 A 
ATOM      7  N   UNL     1       4.305   6.241  19.404  0.00  0.00    +0.000 NA
ATOM      8  C   UNL     1       3.029   6.137  19.757  0.00  0.00    +0.000 A 
ATOM      9  N   UNL     1       2.515   7.212  20.440  0.00  0.00    +0.000 N 
ATOM     10  N   UNL     1       2.262   5.080  19.479  0.00  0.00    +0.000 NA
ATOM     11  H   UNL     1       3.174   7.647  21.064  0.00  0.00    +0.000 HD
ENDROOT
BRANCH   6  12
ATOM     12  N   UNL     1       6.114   5.399  18.082  0.00  0.00    +0.000 N 
ATOM     13  C   UNL     1       6.500   5.047  16.840  0.00  0.00    +0.000 A 
ATOM     14  C   UNL     1       5.715   5.235  15.681  0.00  0.00    +0.000 A 
ATOM     15  C   UNL     1       6.462   4.714  14.658  0.00  0.00    +0.000 A 
ATOM     16  N   UNL     1       7.627   4.294  15.226  0.00  0.00    +0.000 N 
ATOM     17  N   UNL     1       7.696   4.526  16.549  0.00  0.00    +0.000 NA
ATOM     18  H   UNL     1       6.797   5.182  18.798  0.00  0.00    +0.000 HD
ATOM     19  H   UNL     1       8.417   3.848  14.771  0.00  0.00    +0.000 HD
BRANCH  15  20
ATOM     20  C   UNL     1       6.016   4.624  13.221  0.00  0.00    +0.000 C 
ATOM     21  C   UNL     1       6.940   4.008  12.197  0.00  0.00    +0.000 C 
ATOM     22  C   UNL     1       5.737   3.253  12.649  0.00  0.00    +0.000 C 
ENDBRANCH  15  20
ENDBRANCH   6  12
BRANCH   9  23
ATOM     23  C   UNL     1       1.096   7.373  20.626  0.00  0.00    +0.000 C 
BRANCH  23  24
ATOM     24  C   UNL     1       0.595   8.737  20.900  0.00  0.00    +0.000 A 
ATOM     25  C   UNL     1      -0.022   9.344  21.965  0.00  0.00    +0.000 A 
ATOM     26  C   UNL     1      -0.276  10.668  21.534  0.00  0.00    +0.000 A 
ATOM     27  N   UNL     1       0.201  10.853  20.292  0.00  0.00    +0.000 NA
ATOM     28  O   UNL     1       0.732   9.641  19.896  0.00  0.00    +0.000 OA
BRANCH  26  29
ATOM     29  C   UNL     1      -0.951  11.728  22.275  0.00  0.00    +0.000 A 
ATOM     30  C   UNL     1      -2.111  11.462  23.013  0.00  0.00    +0.000 A 
ATOM     31  C   UNL     1      -2.765  12.488  23.700  0.00  0.00    +0.000 A 
ATOM     32  C   UNL     1      -2.261  13.785  23.659  0.00  0.00    +0.000 A 
ATOM     33  C   UNL     1      -1.102  14.062  22.938  0.00  0.00    +0.000 A 
ATOM     34  C   UNL     1      -0.449  13.039  22.248  0.00  0.00    +0.000 A 
ENDBRANCH  26  29
ENDBRANCH  23  24
ENDBRANCH   9  23
TORSDOF 5
ENDMDL
MODEL 7
REMARK VINA RESULT:      -7.9      3.755      7.161
REMARK  Name = 
REMARK  7 active torsions:
REMARK  status: ('A' for Active; 'I' for Inactive)
REMARK    1  A    between atoms: C_1  and  N_2
REMARK    2  A    between atoms: N_2  and  C_3
REMARK    3  A    between atoms: C_6  and  N_7
REMARK    4  A    between atoms: C_10  and  C_11
REMARK    5  A    between atoms: N_18  and  C_19
REMARK    6  A    between atoms: C_19  and  C_20
REMARK    7  A    between atoms: C_22  and  C_23
REMARK                            x       y       z     vdW  Elec       q    Type
REMARK                         _______ _______ _______ _____ _____    ______ ____
ROOT
ATOM      1  C   UNL     1      -0.798  10.349  23.313  0.00  0.00    +0.000 C 
ATOM      2  N   UNL     1       0.065  10.052  22.186  0.00  0.00    +0.000 N 
ATOM      3  C   UNL     1       1.121   9.062  22.340  0.00  0.00    +0.000 C 
ATOM      4  C   UNL     1      -0.237  10.473  20.899  0.00  0.00    +0.000 A 
ATOM      5  C   UNL     1      -1.320  11.286  20.635  0.00  0.00    +0.000 A 
ATOM      6  C   UNL     1      -1.613  11.569  19.320  0.00  0.00    +0.000 A 
ATOM      7  N   UNL     1      -0.883  11.064  18.317  0.00  0.00    +0.000 NA
ATOM      8  C   UNL     1       0.217  10.395  18.638  0.00  0.00    +0.000 A 
ATOM      9  N   UNL     1       1.019  10.034  17.584  0.00  0.00    +0.000 N 
ATOM     10  N   UNL     1       0.560  10.079  19.890  0.00  0.00    +0.000 NA
ATOM     11  H   UNL     1       0.508   9.788  16.752  0.00  0.00    +0.000 HD
ENDROOT
BRANCH   6  12
ATOM     12  N   UNL     1      -2.726  12.402  19.054  0.00  0.00    +0.000 N 
ATOM     13  C   UNL     1      -3.759  12.629  19.889  0.00  0.00    +0.000 A 
ATOM     14  C   UNL     1      -3.634  12.760  21.290  0.00  0.00    +0.000 A 
ATOM     15  C   UNL     1      -4.913  12.945  21.744  0.00  0.00    +0.000 A 
ATOM     16  N   UNL     1      -5.703  12.957  20.635  0.00  0.00    +0.000 N 
ATOM     17  N   UNL     1      -5.020  12.812  19.486  0.00  0.00    +0.000 NA
ATOM     18  H   UNL     1      -2.998  12.326  18.081  0.00  0.00    +0.000 HD
ATOM     19  H   UNL     1      -6.710  13.065  20.589  0.00  0.00    +0.000 HD
BRANCH  15  20
ATOM     20  C   UNL     1      -5.304  13.072  23.195  0.00  0.00    +0.000 C 
ATOM     21  C   UNL     1      -4.277  13.539  24.200  0.00  0.00    +0.000 C 
ATOM     22  C   UNL     1      -5.376  14.459  23.792  0.00  0.00    +0.000 C 
ENDBRANCH  15  20
ENDBRANCH   6  12
BRANCH   9  23
ATOM     23  C   UNL     1       2.368   9.574  17.790  0.00  0.00    +0.000 C 
BRANCH  23  24
ATOM     24  C   UNL     1       2.587   8.113  17.856  0.00  0.00    +0.000 A 
ATOM     25  C   UNL     1       1.826   7.038  18.242  0.00  0.00    +0.000 A 
ATOM     26  C   UNL     1       2.679   5.917  18.098  0.00  0.00    +0.000 A 
ATOM     27  N   UNL     1       3.873   6.298  17.613  0.00  0.00    +0.000 NA
ATOM     28  O   UNL     1       3.814   7.671  17.477  0.00  0.00    +0.000 OA
BRANCH  26  29
ATOM     29  C   UNL     1       2.374   4.524  18.411  0.00  0.00    +0.000 A 
ATOM     30  C   UNL     1       2.831   3.487  17.589  0.00  0.00    +0.000 A 
ATOM     31  C   UNL     1       2.515   2.158  17.883  0.00  0.00    +0.000 A 
ATOM     32  C   UNL     1       1.744   1.857  19.003  0.00  0.00    +0.000 A 
ATOM     33  C   UNL     1       1.291   2.878  19.835  0.00  0.00    +0.000 A 
ATOM     34  C   UNL     1       1.604   4.207  19.542  0.00  0.00    +0.000 A 
ENDBRANCH  26  29
ENDBRANCH  23  24
ENDBRANCH   9  23
TORSDOF 5
ENDMDL
MODEL 8
REMARK VINA RESULT:      -7.8      1.434      1.481
REMARK  Name = 
REMARK  7 active torsions:
REMARK  status: ('A' for Active; 'I' for Inactive)
REMARK    1  A    between atoms: C_1  and  N_2
REMARK    2  A    between atoms: N_2  and  C_3
REMARK    3  A    between atoms: C_6  and  N_7
REMARK    4  A    between atoms: C_10  and  C_11
REMARK    5  A    between atoms: N_18  and  C_19
REMARK    6  A    between atoms: C_19  and  C_20
REMARK    7  A    between atoms: C_22  and  C_23
REMARK                            x       y       z     vdW  Elec       q    Type
REMARK                         _______ _______ _______ _____ _____    ______ ____
ROOT
ATOM      1  C   UNL     1       2.098   2.417  21.410  0.00  0.00    +0.000 C 
ATOM      2  N   UNL     1       3.064   3.107  20.576  0.00  0.00    +0.000 N 
ATOM      3  C   UNL     1       4.064   2.332  19.856  0.00  0.00    +0.000 C 
ATOM      4  C   UNL     1       2.912   4.441  20.226  0.00  0.00    +0.000 A 
ATOM      5  C   UNL     1       1.890   5.215  20.737  0.00  0.00    +0.000 A 
ATOM      6  C   UNL     1       1.745   6.497  20.257  0.00  0.00    +0.000 A 
ATOM      7  N   UNL     1       2.559   6.985  19.310  0.00  0.00    +0.000 NA
ATOM      8  C   UNL     1       3.597   6.238  18.952  0.00  0.00    +0.000 A 
ATOM      9  N   UNL     1       4.491   6.840  18.102  0.00  0.00    +0.000 N 
ATOM     10  N   UNL     1       3.796   4.986  19.373  0.00  0.00    +0.000 NA
ATOM     11  H   UNL     1       4.062   7.456  17.432  0.00  0.00    +0.000 HD
ENDROOT
BRANCH   6  12
ATOM     12  N   UNL     1       0.695   7.286  20.782  0.00  0.00    +0.000 N 
ATOM     13  C   UNL     1       0.693   8.629  20.885  0.00  0.00    +0.000 A 
ATOM     14  C   UNL     1       1.249   9.500  19.921  0.00  0.00    +0.000 A 
ATOM     15  C   UNL     1       1.063  10.758  20.431  0.00  0.00    +0.000 A 
ATOM     16  N   UNL     1       0.396  10.588  21.606  0.00  0.00    +0.000 N 
ATOM     17  N   UNL     1       0.117   9.302  21.885  0.00  0.00    +0.000 NA
ATOM     18  H   UNL     1       0.262   6.817  21.569  0.00  0.00    +0.000 HD
ATOM     19  H   UNL     1       0.096  11.301  22.261  0.00  0.00    +0.000 HD
BRANCH  15  20
ATOM     20  C   UNL     1       1.550  12.031  19.787  0.00  0.00    +0.000 C 
ATOM     21  C   UNL     1       1.859  12.041  18.308  0.00  0.00    +0.000 C 
ATOM     22  C   UNL     1       0.633  12.726  18.806  0.00  0.00    +0.000 C 
ENDBRANCH  15  20
ENDBRANCH   6  12
BRANCH   9  23
ATOM     23  C   UNL     1       5.795   6.276  17.865  0.00  0.00    +0.000 C 
BRANCH  23  24
ATOM     24  C   UNL     1       6.060   5.709  16.525  0.00  0.00    +0.000 A 
ATOM     25  C   UNL     1       5.328   4.977  15.623  0.00  0.00    +0.000 A 
ATOM     26  C   UNL     1       6.217   4.724  14.552  0.00  0.00    +0.000 A 
ATOM     27  N   UNL     1       7.405   5.309  14.783  0.00  0.00    +0.000 NA
ATOM     28  O   UNL     1       7.305   5.911  16.021  0.00  0.00    +0.000 OA
BRANCH  26  29
ATOM     29  C   UNL     1       5.952   3.950  13.343  0.00  0.00    +0.000 A 
ATOM     30  C   UNL     1       4.658   3.864  12.815  0.00  0.00    +0.000 A 
ATOM     31  C   UNL     1       4.409   3.101  11.671  0.00  0.00    +0.000 A 
ATOM     32  C   UNL     1       5.452   2.425  11.044  0.00  0.00    +0.000 A 
ATOM     33  C   UNL     1       6.746   2.510  11.552  0.00  0.00    +0.000 A 
ATOM     34  C   UNL     1       6.997   3.270  12.697  0.00  0.00    +0.000 A 
ENDBRANCH  26  29
ENDBRANCH  23  24
ENDBRANCH   9  23
TORSDOF 5
ENDMDL
MODEL 9
REMARK VINA RESULT:      -7.8      3.869      7.397
REMARK  Name = 
REMARK  7 active torsions:
REMARK  status: ('A' for Active; 'I' for Inactive)
REMARK    1  A    between atoms: C_1  and  N_2
REMARK    2  A    between atoms: N_2  and  C_3
REMARK    3  A    between atoms: C_6  and  N_7
REMARK    4  A    between atoms: C_10  and  C_11
REMARK    5  A    between atoms: N_18  and  C_19
REMARK    6  A    between atoms: C_19  and  C_20
REMARK    7  A    between atoms: C_22  and  C_23
REMARK                            x       y       z     vdW  Elec       q    Type
REMARK                         _______ _______ _______ _____ _____    ______ ____
ROOT
ATOM      1  C   UNL     1      -1.987  11.863  22.559  0.00  0.00    +0.000 C 
ATOM      2  N   UNL     1      -0.974  11.210  21.752  0.00  0.00    +0.000 N 
ATOM      3  C   UNL     1       0.022  10.372  22.402  0.00  0.00    +0.000 C 
ATOM      4  C   UNL     1      -1.072  11.135  20.370  0.00  0.00    +0.000 A 
ATOM      5  C   UNL     1      -2.084  11.768  19.677  0.00  0.00    +0.000 A 
ATOM      6  C   UNL     1      -2.173  11.555  18.320  0.00  0.00    +0.000 A 
ATOM      7  N   UNL     1      -1.315  10.747  17.682  0.00  0.00    +0.000 NA
ATOM      8  C   UNL     1      -0.291  10.270  18.379  0.00  0.00    +0.000 A 
ATOM      9  N   UNL     1       0.649   9.582  17.652  0.00  0.00    +0.000 N 
ATOM     10  N   UNL     1      -0.145  10.432  19.697  0.00  0.00    +0.000 NA
ATOM     11  H   UNL     1       0.260   9.040  16.898  0.00  0.00    +0.000 HD
ENDROOT
BRANCH   6  12
ATOM     12  N   UNL     1      -3.213  12.205  17.614  0.00  0.00    +0.000 N 
ATOM     13  C   UNL     1      -4.532  11.977  17.766  0.00  0.00    +0.000 A 
ATOM     14  C   UNL     1      -5.153  11.709  19.006  0.00  0.00    +0.000 A 
ATOM     15  C   UNL     1      -6.474  11.508  18.704  0.00  0.00    +0.000 A 
ATOM     16  N   UNL     1      -6.581  11.698  17.360  0.00  0.00    +0.000 N 
ATOM     17  N   UNL     1      -5.419  12.030  16.769  0.00  0.00    +0.000 NA
ATOM     18  H   UNL     1      -2.936  12.370  16.653  0.00  0.00    +0.000 HD
ATOM     19  H   UNL     1      -7.413  11.624  16.784  0.00  0.00    +0.000 HD
BRANCH  15  20
ATOM     20  C   UNL     1      -7.539  11.125  19.700  0.00  0.00    +0.000 C 
ATOM     21  C   UNL     1      -7.340   9.900  20.562  0.00  0.00    +0.000 C 
ATOM     22  C   UNL     1      -7.215  11.255  21.171  0.00  0.00    +0.000 C 
ENDBRANCH  15  20
ENDBRANCH   6  12
BRANCH   9  23
ATOM     23  C   UNL     1       1.940   9.266  18.205  0.00  0.00    +0.000 C 
BRANCH  23  24
ATOM     24  C   UNL     1       2.405   7.866  18.097  0.00  0.00    +0.000 A 
ATOM     25  C   UNL     1       1.856   6.641  18.382  0.00  0.00    +0.000 A 
ATOM     26  C   UNL     1       2.876   5.706  18.084  0.00  0.00    +0.000 A 
ATOM     27  N   UNL     1       3.963   6.337  17.607  0.00  0.00    +0.000 NA
ATOM     28  O   UNL     1       3.667   7.685  17.630  0.00  0.00    +0.000 OA
BRANCH  26  29
ATOM     29  C   UNL     1       2.826   4.256  18.246  0.00  0.00    +0.000 A 
ATOM     30  C   UNL     1       1.600   3.586  18.332  0.00  0.00    +0.000 A 
ATOM     31  C   UNL     1       1.561   2.200  18.511  0.00  0.00    +0.000 A 
ATOM     32  C   UNL     1       2.746   1.476  18.599  0.00  0.00    +0.000 A 
ATOM     33  C   UNL     1       3.973   2.129  18.504  0.00  0.00    +0.000 A 
ATOM     34  C   UNL     1       4.015   3.513  18.328  0.00  0.00    +0.000 A 
ENDBRANCH  26  29
ENDBRANCH  23  24
ENDBRANCH   9  23
TORSDOF 5
ENDMDL
