MODEL 1
REMARK VINA RESULT:      -8.0      0.000      0.000
REMARK  Name = 
REMARK  5 active torsions:
REMARK  status: ('A' for Active; 'I' for Inactive)
REMARK    1  A    between atoms: C_2  and  C_3
REMARK    2  A    between atoms: C_2  and  C_17
REMARK    3  A    between atoms: C_3  and  N_4
REMARK    4  A    between atoms: C_7  and  C_8
REMARK    5  A    between atoms: C_12  and  O_13
REMARK                            x       y       z     vdW  Elec       q    Type
REMARK                         _______ _______ _______ _____ _____    ______ ____
ROOT
ATOM      1  N   UNL     1       4.508   5.212  18.329  0.00  0.00    +0.000 N 
ATOM      2  C   UNL     1       4.212   4.055  17.693  0.00  0.00    +0.000 A 
ATOM      3  C   UNL     1       4.698   3.808  16.407  0.00  0.00    +0.000 A 
ATOM      4  C   UNL     1       5.503   4.747  15.750  0.00  0.00    +0.000 A 
ATOM      5  C   UNL     1       5.759   5.943  16.435  0.00  0.00    +0.000 A 
ATOM      6  C   UNL     1       5.259   6.153  17.718  0.00  0.00    +0.000 A 
ENDROOT
BRANCH   4   7
ATOM      7  C   UNL     1       6.084   4.472  14.416  0.00  0.00    +0.000 A 
ATOM      8  C   UNL     1       7.217   5.161  13.943  0.00  0.00    +0.000 A 
ATOM      9  C   UNL     1       7.722   4.942  12.654  0.00  0.00    +0.000 A 
ATOM     10  C   UNL     1       7.112   4.021  11.808  0.00  0.00    +0.000 A 
ATOM     11  C   UNL     1       6.006   3.320  12.266  0.00  0.00    +0.000 A 
ATOM     12  C   UNL     1       5.501   3.532  13.548  0.00  0.00    +0.000 A 
BRANCH  11  13
ATOM     13  O   UNL     1       5.361   2.412  11.479  0.00  0.00    +0.000 OA
ATOM     14  H   UNL     1       4.626   2.023  11.985  0.00  0.00    +0.000 HD
ENDBRANCH  11  13
ENDBRANCH   4   7
BRANCH   1  15
ATOM     15  C   UNL     1       4.056   5.421  19.731  0.00  0.00    +0.000 C 
BRANCH  15  17
ATOM     16  C   UNL     1       1.617   4.716  20.068  0.00  0.00    +0.000 C 
ATOM     17  C   UNL     1       2.571   5.639  19.849  0.00  0.00    +0.000 C 
BRANCH  17  18
ATOM     18  C   UNL     1       2.122   7.037  19.688  0.00  0.00    +0.000 A 
ATOM     19  C   UNL     1       1.539   7.729  20.758  0.00  0.00    +0.000 A 
ATOM     20  C   UNL     1       1.037   9.023  20.575  0.00  0.00    +0.000 A 
ATOM     21  C   UNL     1       1.117   9.627  19.319  0.00  0.00    +0.000 A 
ATOM     22  I   UNL     1       0.306  11.517  19.027  0.00  0.00    +0.000 I 
ATOM     23  C   UNL     1       1.715   8.956  18.253  0.00  0.00    +0.000 A 
ATOM     24  C   UNL     1       2.214   7.663  18.436  0.00  0.00    +0.000 A 
ENDBRANCH  17  18
ENDBRANCH  15  17
ENDBRANCH   1  15
TORSDOF 5
ENDMDL
MODEL 2
REMARK VINA RESULT:      -7.9      0.251      1.008
REMARK  Name = 
REMARK  5 active torsions:
REMARK  status: ('A' for Active; 'I' for Inactive)
REMARK    1  A    between atoms: C_2  and  C_3
REMARK    2  A    between atoms: C_2  and  C_17
REMARK    3  A    between atoms: C_3  and  N_4
REMARK    4  A    between atoms: C_7  and  C_8
REMARK    5  A    between atoms: C_12  and  O_13
REMARK                            x       y       z     vdW  Elec       q    Type
REMARK                         _______ _______ _______ _____ _____    ______ ____
ROOT
ATOM      1  N   UNL     1       4.757   5.279  18.308  0.00  0.00    +0.000 N 
ATOM      2  C   UNL     1       5.350   6.267  17.598  0.00  0.00    +0.000 A 
ATOM      3  C   UNL     1       5.863   6.015  16.324  0.00  0.00    +0.000 A 
ATOM      4  C   UNL     1       5.773   4.740  15.751  0.00  0.00    +0.000 A 
ATOM      5  C   UNL     1       5.177   3.742  16.534  0.00  0.00    +0.000 A 
ATOM      6  C   UNL     1       4.675   4.030  17.800  0.00  0.00    +0.000 A 
ENDROOT
BRANCH   4   7
ATOM      7  C   UNL     1       6.249   4.474  14.374  0.00  0.00    +0.000 A 
ATOM      8  C   UNL     1       7.332   5.178  13.813  0.00  0.00    +0.000 A 
ATOM      9  C   UNL     1       7.734   4.967  12.488  0.00  0.00    +0.000 A 
ATOM     10  C   UNL     1       7.070   4.040  11.692  0.00  0.00    +0.000 A 
ATOM     11  C   UNL     1       6.013   3.325  12.235  0.00  0.00    +0.000 A 
ATOM     12  C   UNL     1       5.609   3.529  13.554  0.00  0.00    +0.000 A 
BRANCH  11  13
ATOM     13  O   UNL     1       5.317   2.410  11.500  0.00  0.00    +0.000 OA
ATOM     14  H   UNL     1       5.287   1.570  11.990  0.00  0.00    +0.000 HD
ENDBRANCH  11  13
ENDBRANCH   4   7
BRANCH   1  15
ATOM     15  C   UNL     1       4.137   5.584  19.626  0.00  0.00    +0.000 C 
BRANCH  15  17
ATOM     16  C   UNL     1       1.712   4.767  19.548  0.00  0.00    +0.000 C 
ATOM     17  C   UNL     1       2.641   5.739  19.556  0.00  0.00    +0.000 C 
BRANCH  17  18
ATOM     18  C   UNL     1       2.153   7.130  19.473  0.00  0.00    +0.000 A 
ATOM     19  C   UNL     1       1.596   7.761  20.594  0.00  0.00    +0.000 A 
ATOM     20  C   UNL     1       1.056   9.048  20.486  0.00  0.00    +0.000 A 
ATOM     21  C   UNL     1       1.072   9.707  19.256  0.00  0.00    +0.000 A 
ATOM     22  I   UNL     1       0.205  11.585  19.077  0.00  0.00    +0.000 I 
ATOM     23  C   UNL     1       1.643   9.097  18.140  0.00  0.00    +0.000 A 
ATOM     24  C   UNL     1       2.181   7.810  18.247  0.00  0.00    +0.000 A 
ENDBRANCH  17  18
ENDBRANCH  15  17
ENDBRANCH   1  15
TORSDOF 5
ENDMDL
MODEL 3
REMARK VINA RESULT:      -7.9      0.236      1.430
REMARK  Name = 
REMARK  5 active torsions:
REMARK  status: ('A' for Active; 'I' for Inactive)
REMARK    1  A    between atoms: C_2  and  C_3
REMARK    2  A    between atoms: C_2  and  C_17
REMARK    3  A    between atoms: C_3  and  N_4
REMARK    4  A    between atoms: C_7  and  C_8
REMARK    5  A    between atoms: C_12  and  O_13
REMARK                            x       y       z     vdW  Elec       q    Type
REMARK                         _______ _______ _______ _____ _____    ______ ____
ROOT
ATOM      1  N   UNL     1       4.767   5.194  18.363  0.00  0.00    +0.000 N 
ATOM      2  C   UNL     1       5.549   6.116  17.756  0.00  0.00    +0.000 A 
ATOM      3  C   UNL     1       6.062   5.881  16.478  0.00  0.00    +0.000 A 
ATOM      4  C   UNL     1       5.777   4.692  15.796  0.00  0.00    +0.000 A 
ATOM      5  C   UNL     1       4.988   3.753  16.476  0.00  0.00    +0.000 A 
ATOM      6  C   UNL     1       4.492   4.023  17.749  0.00  0.00    +0.000 A 
ENDROOT
BRANCH   4   7
ATOM      7  C   UNL     1       6.255   4.457  14.415  0.00  0.00    +0.000 A 
ATOM      8  C   UNL     1       7.335   5.177  13.869  0.00  0.00    +0.000 A 
ATOM      9  C   UNL     1       7.739   4.996  12.540  0.00  0.00    +0.000 A 
ATOM     10  C   UNL     1       7.079   4.083  11.724  0.00  0.00    +0.000 A 
ATOM     11  C   UNL     1       6.024   3.353  12.251  0.00  0.00    +0.000 A 
ATOM     12  C   UNL     1       5.619   3.526  13.574  0.00  0.00    +0.000 A 
BRANCH  11  13
ATOM     13  O   UNL     1       5.333   2.451  11.497  0.00  0.00    +0.000 OA
ATOM     14  H   UNL     1       4.599   2.094  12.026  0.00  0.00    +0.000 HD
ENDBRANCH  11  13
ENDBRANCH   4   7
BRANCH   1  15
ATOM     15  C   UNL     1       4.157   5.497  19.686  0.00  0.00    +0.000 C 
BRANCH  15  17
ATOM     16  C   UNL     1       1.752   4.619  19.712  0.00  0.00    +0.000 C 
ATOM     17  C   UNL     1       2.657   5.611  19.635  0.00  0.00    +0.000 C 
BRANCH  17  18
ATOM     18  C   UNL     1       2.133   6.981  19.466  0.00  0.00    +0.000 A 
ATOM     19  C   UNL     1       2.262   7.651  18.242  0.00  0.00    +0.000 A 
ATOM     20  C   UNL     1       1.841   8.981  18.115  0.00  0.00    +0.000 A 
ATOM     21  C   UNL     1       1.291   9.642  19.214  0.00  0.00    +0.000 A 
ATOM     22  I   UNL     1       0.736  11.637  19.048  0.00  0.00    +0.000 I 
ATOM     23  C   UNL     1       1.138   8.979  20.430  0.00  0.00    +0.000 A 
ATOM     24  C   UNL     1       1.560   7.651  20.557  0.00  0.00    +0.000 A 
ENDBRANCH  17  18
ENDBRANCH  15  17
ENDBRANCH   1  15
TORSDOF 5
ENDMDL
MODEL 4
REMARK VINA RESULT:      -7.9      0.276      1.045
REMARK  Name = 
REMARK  5 active torsions:
REMARK  status: ('A' for Active; 'I' for Inactive)
REMARK    1  A    between atoms: C_2  and  C_3
REMARK    2  A    between atoms: C_2  and  C_17
REMARK    3  A    between atoms: C_3  and  N_4
REMARK    4  A    between atoms: C_7  and  C_8
REMARK    5  A    between atoms: C_12  and  O_13
REMARK                            x       y       z     vdW  Elec       q    Type
REMARK                         _______ _______ _______ _____ _____    ______ ____
ROOT
ATOM      1  N   UNL     1       4.545   5.467  18.186  0.00  0.00    +0.000 N 
ATOM      2  C   UNL     1       4.529   4.179  17.770  0.00  0.00    +0.000 A 
ATOM      3  C   UNL     1       4.992   3.839  16.497  0.00  0.00    +0.000 A 
ATOM      4  C   UNL     1       5.485   4.817  15.625  0.00  0.00    +0.000 A 
ATOM      5  C   UNL     1       5.455   6.141  16.087  0.00  0.00    +0.000 A 
ATOM      6  C   UNL     1       4.988   6.442  17.364  0.00  0.00    +0.000 A 
ENDROOT
BRANCH   4   7
ATOM      7  C   UNL     1       6.044   4.465  14.300  0.00  0.00    +0.000 A 
ATOM      8  C   UNL     1       7.224   5.059  13.810  0.00  0.00    +0.000 A 
ATOM      9  C   UNL     1       7.711   4.770  12.529  0.00  0.00    +0.000 A 
ATOM     10  C   UNL     1       7.037   3.872  11.707  0.00  0.00    +0.000 A 
ATOM     11  C   UNL     1       5.884   3.264  12.182  0.00  0.00    +0.000 A 
ATOM     12  C   UNL     1       5.395   3.546  13.457  0.00  0.00    +0.000 A 
BRANCH  11  13
ATOM     13  O   UNL     1       5.175   2.384  11.419  0.00  0.00    +0.000 OA
ATOM     14  H   UNL     1       5.778   1.957  10.787  0.00  0.00    +0.000 HD
ENDBRANCH  11  13
ENDBRANCH   4   7
BRANCH   1  15
ATOM     15  C   UNL     1       4.131   5.800  19.575  0.00  0.00    +0.000 C 
BRANCH  15  17
ATOM     16  C   UNL     1       1.790   4.862  20.019  0.00  0.00    +0.000 C 
ATOM     17  C   UNL     1       2.636   5.871  19.747  0.00  0.00    +0.000 C 
BRANCH  17  18
ATOM     18  C   UNL     1       2.044   7.214  19.582  0.00  0.00    +0.000 A 
ATOM     19  C   UNL     1       2.068   7.858  18.337  0.00  0.00    +0.000 A 
ATOM     20  C   UNL     1       1.583   9.165  18.208  0.00  0.00    +0.000 A 
ATOM     21  C   UNL     1       1.074   9.830  19.324  0.00  0.00    +0.000 A 
ATOM     22  I   UNL     1       0.424  11.795  19.149  0.00  0.00    +0.000 I 
ATOM     23  C   UNL     1       1.025   9.191  20.561  0.00  0.00    +0.000 A 
ATOM     24  C   UNL     1       1.511   7.886  20.691  0.00  0.00    +0.000 A 
ENDBRANCH  17  18
ENDBRANCH  15  17
ENDBRANCH   1  15
TORSDOF 5
ENDMDL
MODEL 5
REMARK VINA RESULT:      -7.8      1.229      1.794
REMARK  Name = 
REMARK  5 active torsions:
REMARK  status: ('A' for Active; 'I' for Inactive)
REMARK    1  A    between atoms: C_2  and  C_3
REMARK    2  A    between atoms: C_2  and  C_17
REMARK    3  A    between atoms: C_3  and  N_4
REMARK    4  A    between atoms: C_7  and  C_8
REMARK    5  A    between atoms: C_12  and  O_13
REMARK                            x       y       z     vdW  Elec       q    Type
REMARK                         _______ _______ _______ _____ _____    ______ ____
ROOT
ATOM      1  N   UNL     1       4.436   4.680  18.711  0.00  0.00    +0.000 N 
ATOM      2  C   UNL     1       5.709   5.083  18.494  0.00  0.00    +0.000 A 
ATOM      3  C   UNL     1       6.275   4.989  17.221  0.00  0.00    +0.000 A 
ATOM      4  C   UNL     1       5.541   4.481  16.142  0.00  0.00    +0.000 A 
ATOM      5  C   UNL     1       4.237   4.049  16.420  0.00  0.00    +0.000 A 
ATOM      6  C   UNL     1       3.704   4.160  17.702  0.00  0.00    +0.000 A 
ENDROOT
BRANCH   4   7
ATOM      7  C   UNL     1       6.102   4.440  14.772  0.00  0.00    +0.000 A 
ATOM      8  C   UNL     1       5.597   3.567  13.789  0.00  0.00    +0.000 A 
ATOM      9  C   UNL     1       6.176   3.487  12.516  0.00  0.00    +0.000 A 
ATOM     10  C   UNL     1       7.268   4.285  12.188  0.00  0.00    +0.000 A 
ATOM     11  C   UNL     1       7.765   5.164  13.139  0.00  0.00    +0.000 A 
ATOM     12  C   UNL     1       7.192   5.250  14.408  0.00  0.00    +0.000 A 
BRANCH  11  13
ATOM     13  O   UNL     1       8.838   5.963  12.881  0.00  0.00    +0.000 OA
ATOM     14  H   UNL     1       9.413   5.984  13.666  0.00  0.00    +0.000 HD
ENDBRANCH  11  13
ENDBRANCH   4   7
BRANCH   1  15
ATOM     15  C   UNL     1       3.819   4.868  20.052  0.00  0.00    +0.000 C 
BRANCH  15  17
ATOM     16  C   UNL     1       1.301   4.406  20.058  0.00  0.00    +0.000 C 
ATOM     17  C   UNL     1       2.360   5.232  19.987  0.00  0.00    +0.000 C 
BRANCH  17  18
ATOM     18  C   UNL     1       2.074   6.670  19.811  0.00  0.00    +0.000 A 
ATOM     19  C   UNL     1       1.484   7.414  20.841  0.00  0.00    +0.000 A 
ATOM     20  C   UNL     1       1.136   8.755  20.636  0.00  0.00    +0.000 A 
ATOM     21  C   UNL     1       1.378   9.354  19.399  0.00  0.00    +0.000 A 
ATOM     22  I   UNL     1       0.795  11.320  19.070  0.00  0.00    +0.000 I 
ATOM     23  C   UNL     1       1.985   8.630  18.375  0.00  0.00    +0.000 A 
ATOM     24  C   UNL     1       2.331   7.289  18.579  0.00  0.00    +0.000 A 
ENDBRANCH  17  18
ENDBRANCH  15  17
ENDBRANCH   1  15
TORSDOF 5
ENDMDL
MODEL 6
REMARK VINA RESULT:      -7.7      1.265      1.612
REMARK  Name = 
REMARK  5 active torsions:
REMARK  status: ('A' for Active; 'I' for Inactive)
REMARK    1  A    between atoms: C_2  and  C_3
REMARK    2  A    between atoms: C_2  and  C_17
REMARK    3  A    between atoms: C_3  and  N_4
REMARK    4  A    between atoms: C_7  and  C_8
REMARK    5  A    between atoms: C_12  and  O_13
REMARK                            x       y       z     vdW  Elec       q    Type
REMARK                         _______ _______ _______ _____ _____    ______ ____
ROOT
ATOM      1  N   UNL     1       4.179   4.516  18.555  0.00  0.00    +0.000 N 
ATOM      2  C   UNL     1       3.588   3.829  17.551  0.00  0.00    +0.000 A 
ATOM      3  C   UNL     1       4.149   3.817  16.272  0.00  0.00    +0.000 A 
ATOM      4  C   UNL     1       5.336   4.510  16.001  0.00  0.00    +0.000 A 
ATOM      5  C   UNL     1       5.897   5.231  17.064  0.00  0.00    +0.000 A 
ATOM      6  C   UNL     1       5.310   5.218  18.327  0.00  0.00    +0.000 A 
ENDROOT
BRANCH   4   7
ATOM      7  C   UNL     1       5.982   4.450  14.670  0.00  0.00    +0.000 A 
ATOM      8  C   UNL     1       5.517   3.589  13.657  0.00  0.00    +0.000 A 
ATOM      9  C   UNL     1       6.173   3.489  12.423  0.00  0.00    +0.000 A 
ATOM     10  C   UNL     1       7.306   4.256  12.166  0.00  0.00    +0.000 A 
ATOM     11  C   UNL     1       7.765   5.123  13.146  0.00  0.00    +0.000 A 
ATOM     12  C   UNL     1       7.115   5.228  14.375  0.00  0.00    +0.000 A 
BRANCH  11  13
ATOM     13  O   UNL     1       8.875   5.892  12.957  0.00  0.00    +0.000 OA
ATOM     14  H   UNL     1       8.955   6.103  12.010  0.00  0.00    +0.000 HD
ENDBRANCH  11  13
ENDBRANCH   4   7
BRANCH   1  15
ATOM     15  C   UNL     1       3.616   4.447  19.931  0.00  0.00    +0.000 C 
BRANCH  15  17
ATOM     16  C   UNL     1       1.085   4.150  20.181  0.00  0.00    +0.000 C 
ATOM     17  C   UNL     1       2.184   4.905  20.009  0.00  0.00    +0.000 C 
BRANCH  17  18
ATOM     18  C   UNL     1       1.978   6.361  19.864  0.00  0.00    +0.000 A 
ATOM     19  C   UNL     1       1.434   7.114  20.913  0.00  0.00    +0.000 A 
ATOM     20  C   UNL     1       1.161   8.476  20.738  0.00  0.00    +0.000 A 
ATOM     21  C   UNL     1       1.430   9.087  19.512  0.00  0.00    +0.000 A 
ATOM     22  I   UNL     1       0.956  11.089  19.227  0.00  0.00    +0.000 I 
ATOM     23  C   UNL     1       1.992   8.352  18.469  0.00  0.00    +0.000 A 
ATOM     24  C   UNL     1       2.263   6.990  18.644  0.00  0.00    +0.000 A 
ENDBRANCH  17  18
ENDBRANCH  15  17
ENDBRANCH   1  15
TORSDOF 5
ENDMDL
MODEL 7
REMARK VINA RESULT:      -7.7      4.364      5.861
REMARK  Name = 
REMARK  5 active torsions:
REMARK  status: ('A' for Active; 'I' for Inactive)
REMARK    1  A    between atoms: C_2  and  C_3
REMARK    2  A    between atoms: C_2  and  C_17
REMARK    3  A    between atoms: C_3  and  N_4
REMARK    4  A    between atoms: C_7  and  C_8
REMARK    5  A    between atoms: C_12  and  O_13
REMARK                            x       y       z     vdW  Elec       q    Type
REMARK                         _______ _______ _______ _____ _____    ______ ____
ROOT
ATOM      1  N   UNL     1       1.514   8.572  20.004  0.00  0.00    +0.000 N 
ATOM      2  C   UNL     1       1.354   7.543  20.867  0.00  0.00    +0.000 A 
ATOM      3  C   UNL     1       1.715   6.245  20.500  0.00  0.00    +0.000 A 
ATOM      4  C   UNL     1       2.252   5.979  19.234  0.00  0.00    +0.000 A 
ATOM      5  C   UNL     1       2.373   7.070  18.362  0.00  0.00    +0.000 A 
ATOM      6  C   UNL     1       2.005   8.352  18.765  0.00  0.00    +0.000 A 
ENDROOT
BRANCH   4   7
ATOM      7  C   UNL     1       2.705   4.622  18.854  0.00  0.00    +0.000 A 
ATOM      8  C   UNL     1       2.092   3.899  17.812  0.00  0.00    +0.000 A 
ATOM      9  C   UNL     1       2.482   2.590  17.501  0.00  0.00    +0.000 A 
ATOM     10  C   UNL     1       3.502   1.972  18.217  0.00  0.00    +0.000 A 
ATOM     11  C   UNL     1       4.129   2.677  19.234  0.00  0.00    +0.000 A 
ATOM     12  C   UNL     1       3.747   3.981  19.546  0.00  0.00    +0.000 A 
BRANCH  11  13
ATOM     13  O   UNL     1       5.129   2.121  19.977  0.00  0.00    +0.000 OA
ATOM     14  H   UNL     1       5.393   1.278  19.570  0.00  0.00    +0.000 HD
ENDBRANCH  11  13
ENDBRANCH   4   7
BRANCH   1  15
ATOM     15  C   UNL     1       1.208   9.960  20.442  0.00  0.00    +0.000 C 
BRANCH  15  17
ATOM     16  C   UNL     1       1.721  11.632  18.572  0.00  0.00    +0.000 C 
ATOM     17  C   UNL     1       0.874  10.883  19.300  0.00  0.00    +0.000 C 
BRANCH  17  18
ATOM     18  C   UNL     1      -0.560  10.974  18.960  0.00  0.00    +0.000 A 
ATOM     19  C   UNL     1      -1.107  10.176  17.946  0.00  0.00    +0.000 A 
ATOM     20  C   UNL     1      -2.447  10.330  17.569  0.00  0.00    +0.000 A 
ATOM     21  C   UNL     1      -3.242  11.283  18.207  0.00  0.00    +0.000 A 
ATOM     22  I   UNL     1      -5.208  11.564  17.599  0.00  0.00    +0.000 I 
ATOM     23  C   UNL     1      -2.714  12.067  19.231  0.00  0.00    +0.000 A 
ATOM     24  C   UNL     1      -1.375  11.914  19.606  0.00  0.00    +0.000 A 
ENDBRANCH  17  18
ENDBRANCH  15  17
ENDBRANCH   1  15
TORSDOF 5
ENDMDL
MODEL 8
REMARK VINA RESULT:      -7.7      1.194      2.094
REMARK  Name = 
REMARK  5 active torsions:
REMARK  status: ('A' for Active; 'I' for Inactive)
REMARK    1  A    between atoms: C_2  and  C_3
REMARK    2  A    between atoms: C_2  and  C_17
REMARK    3  A    between atoms: C_3  and  N_4
REMARK    4  A    between atoms: C_7  and  C_8
REMARK    5  A    between atoms: C_12  and  O_13
REMARK                            x       y       z     vdW  Elec       q    Type
REMARK                         _______ _______ _______ _____ _____    ______ ____
ROOT
ATOM      1  N   UNL     1       4.470   4.764  18.718  0.00  0.00    +0.000 N 
ATOM      2  C   UNL     1       5.391   5.673  18.321  0.00  0.00    +0.000 A 
ATOM      3  C   UNL     1       5.962   5.594  17.049  0.00  0.00    +0.000 A 
ATOM      4  C   UNL     1       5.595   4.580  16.156  0.00  0.00    +0.000 A 
ATOM      5  C   UNL     1       4.659   3.645  16.620  0.00  0.00    +0.000 A 
ATOM      6  C   UNL     1       4.109   3.756  17.895  0.00  0.00    +0.000 A 
ENDROOT
BRANCH   4   7
ATOM      7  C   UNL     1       6.138   4.524  14.780  0.00  0.00    +0.000 A 
ATOM      8  C   UNL     1       5.594   3.669  13.801  0.00  0.00    +0.000 A 
ATOM      9  C   UNL     1       6.155   3.573  12.521  0.00  0.00    +0.000 A 
ATOM     10  C   UNL     1       7.268   4.336  12.182  0.00  0.00    +0.000 A 
ATOM     11  C   UNL     1       7.804   5.196  13.128  0.00  0.00    +0.000 A 
ATOM     12  C   UNL     1       7.249   5.298  14.403  0.00  0.00    +0.000 A 
BRANCH  11  13
ATOM     13  O   UNL     1       8.899   5.962  12.858  0.00  0.00    +0.000 OA
ATOM     14  H   UNL     1       8.699   6.546  12.106  0.00  0.00    +0.000 HD
ENDBRANCH  11  13
ENDBRANCH   4   7
BRANCH   1  15
ATOM     15  C   UNL     1       3.807   4.913  20.041  0.00  0.00    +0.000 C 
BRANCH  15  17
ATOM     16  C   UNL     1       1.322   4.294  20.025  0.00  0.00    +0.000 C 
ATOM     17  C   UNL     1       2.329   5.181  19.937  0.00  0.00    +0.000 C 
BRANCH  17  18
ATOM     18  C   UNL     1       1.958   6.590  19.695  0.00  0.00    +0.000 A 
ATOM     19  C   UNL     1       2.186   7.186  18.447  0.00  0.00    +0.000 A 
ATOM     20  C   UNL     1       1.913   8.545  18.251  0.00  0.00    +0.000 A 
ATOM     21  C   UNL     1       1.412   9.311  19.304  0.00  0.00    +0.000 A 
ATOM     22  I   UNL     1       1.077  11.344  19.038  0.00  0.00    +0.000 I 
ATOM     23  C   UNL     1       1.160   8.724  20.543  0.00  0.00    +0.000 A 
ATOM     24  C   UNL     1       1.435   7.366  20.739  0.00  0.00    +0.000 A 
ENDBRANCH  17  18
ENDBRANCH  15  17
ENDBRANCH   1  15
TORSDOF 5
ENDMDL
MODEL 9
REMARK VINA RESULT:      -7.7      1.153      1.827
REMARK  Name = 
REMARK  5 active torsions:
REMARK  status: ('A' for Active; 'I' for Inactive)
REMARK    1  A    between atoms: C_2  and  C_3
REMARK    2  A    between atoms: C_2  and  C_17
REMARK    3  A    between atoms: C_3  and  N_4
REMARK    4  A    between atoms: C_7  and  C_8
REMARK    5  A    between atoms: C_12  and  O_13
REMARK                            x       y       z     vdW  Elec       q    Type
REMARK                         _______ _______ _______ _____ _____    ______ ____
ROOT
ATOM      1  N   UNL     1       4.272   4.924  18.579  0.00  0.00    +0.000 N 
ATOM      2  C   UNL     1       3.838   3.963  17.732  0.00  0.00    +0.000 A 
ATOM      3  C   UNL     1       4.372   3.857  16.445  0.00  0.00    +0.000 A 
ATOM      4  C   UNL     1       5.367   4.739  16.004  0.00  0.00    +0.000 A 
ATOM      5  C   UNL     1       5.764   5.737  16.905  0.00  0.00    +0.000 A 
ATOM      6  C   UNL     1       5.211   5.810  18.182  0.00  0.00    +0.000 A 
ENDROOT
BRANCH   4   7
ATOM      7  C   UNL     1       5.992   4.598  14.670  0.00  0.00    +0.000 A 
ATOM      8  C   UNL     1       5.488   3.705  13.704  0.00  0.00    +0.000 A 
ATOM      9  C   UNL     1       6.123   3.529  12.468  0.00  0.00    +0.000 A 
ATOM     10  C   UNL     1       7.275   4.247  12.162  0.00  0.00    +0.000 A 
ATOM     11  C   UNL     1       7.775   5.143  13.095  0.00  0.00    +0.000 A 
ATOM     12  C   UNL     1       7.145   5.325  14.326  0.00  0.00    +0.000 A 
BRANCH  11  13
ATOM     13  O   UNL     1       8.905   5.868  12.856  0.00  0.00    +0.000 OA
ATOM     14  H   UNL     1       9.352   5.506  12.071  0.00  0.00    +0.000 HD
ENDBRANCH  11  13
ENDBRANCH   4   7
BRANCH   1  15
ATOM     15  C   UNL     1       3.757   4.968  19.974  0.00  0.00    +0.000 C 
BRANCH  15  17
ATOM     16  C   UNL     1       1.282   4.408  20.314  0.00  0.00    +0.000 C 
ATOM     17  C   UNL     1       2.284   5.266  20.053  0.00  0.00    +0.000 C 
BRANCH  17  18
ATOM     18  C   UNL     1       1.909   6.672  19.798  0.00  0.00    +0.000 A 
ATOM     19  C   UNL     1       2.129   7.254  18.542  0.00  0.00    +0.000 A 
ATOM     20  C   UNL     1       1.852   8.611  18.333  0.00  0.00    +0.000 A 
ATOM     21  C   UNL     1       1.356   9.387  19.380  0.00  0.00    +0.000 A 
ATOM     22  I   UNL     1       1.016  11.416  19.093  0.00  0.00    +0.000 I 
ATOM     23  C   UNL     1       1.113   8.814  20.627  0.00  0.00    +0.000 A 
ATOM     24  C   UNL     1       1.391   7.459  20.837  0.00  0.00    +0.000 A 
ENDBRANCH  17  18
ENDBRANCH  15  17
ENDBRANCH   1  15
TORSDOF 5
ENDMDL
