MODEL 1
REMARK VINA RESULT:      -7.4      0.000      0.000
REMARK  Name = 
REMARK  22 active torsions:
REMARK  status: ('A' for Active; 'I' for Inactive)
REMARK    1  A    between atoms: C_1  and  C_2
REMARK    2  A    between atoms: C_2  and  C_3
REMARK    3  A    between atoms: C_3  and  C_25
REMARK    4  A    between atoms: C_4  and  C_5
REMARK    5  A    between atoms: C_5  and  C_6
REMARK    6  A    between atoms: C_5  and  C_7
REMARK    7  A    between atoms: C_7  and  C_8
REMARK    8  A    between atoms: C_9  and  C_10
REMARK    9  A    between atoms: C_10  and  C_11
REMARK   10  A    between atoms: C_12  and  C_13
REMARK   11  A    between atoms: C_13  and  C_14
REMARK   12  A    between atoms: C_13  and  C_15
REMARK   13  A    between atoms: C_15  and  C_17
REMARK   14  A    between atoms: C_17  and  C_18
REMARK   15  A    between atoms: C_17  and  C_19
REMARK   16  A    between atoms: C_19  and  O_20
REMARK   17  A    between atoms: C_19  and  C_21
REMARK   18  A    between atoms: C_21  and  C_22
REMARK   19  A    between atoms: C_21  and  C_23
REMARK   20  A    between atoms: C_23  and  C_24
REMARK   21  A    between atoms: C_26  and  C_27
REMARK   22  A    between atoms: C_33  and  C_34
REMARK                            x       y       z     vdW  Elec       q    Type
REMARK                         _______ _______ _______ _____ _____    ______ ____
ROOT
ATOM      1  C   UNL     1       1.727   8.975  18.867  0.00  0.00    +0.000 C 
ATOM      2  C   UNL     1       1.890   7.768  18.300  0.00  0.00    +0.000 C 
ENDROOT
BRANCH   2   3
ATOM      3  C   UNL     1       2.311   6.585  19.028  0.00  0.00    +0.000 C 
ATOM      4  C   UNL     1       1.887   6.454  20.472  0.00  0.00    +0.000 C 
ATOM      5  C   UNL     1       3.002   5.636  18.366  0.00  0.00    +0.000 C 
BRANCH   5   6
ATOM      6  C   UNL     1       3.256   4.239  18.883  0.00  0.00    +0.000 C 
ATOM      7  C   UNL     1       2.183   3.324  18.294  0.00  0.00    +0.000 C 
BRANCH   6   8
ATOM      8  C   UNL     1       4.655   3.719  18.521  0.00  0.00    +0.000 C 
ATOM      9  O   UNL     1       5.180   2.812  19.178  0.00  0.00    +0.000 OA
BRANCH   8  10
ATOM     10  C   UNL     1       5.447   4.398  17.386  0.00  0.00    +0.000 C 
ATOM     11  C   UNL     1       5.750   3.475  16.197  0.00  0.00    +0.000 C 
BRANCH  10  12
ATOM     12  C   UNL     1       6.765   5.019  17.916  0.00  0.00    +0.000 C 
BRANCH  12  13
ATOM     13  O   UNL     1       6.712   5.047  19.348  0.00  0.00    +0.000 OA
ATOM     14  H   UNL     1       6.199   5.836  19.608  0.00  0.00    +0.000 HD
ENDBRANCH  12  13
BRANCH  12  15
ATOM     15  C   UNL     1       7.190   6.416  17.366  0.00  0.00    +0.000 C 
ATOM     16  C   UNL     1       5.944   7.202  16.917  0.00  0.00    +0.000 C 
BRANCH  15  17
ATOM     17  C   UNL     1       8.011   7.219  18.399  0.00  0.00    +0.000 C 
ATOM     18  C   UNL     1       8.226   8.685  18.042  0.00  0.00    +0.000 C 
ENDBRANCH  15  17
ENDBRANCH  12  15
ENDBRANCH  10  12
ENDBRANCH   8  10
ENDBRANCH   6   8
ENDBRANCH   5   6
ENDBRANCH   2   3
BRANCH   1  19
ATOM     19  C   UNL     1       1.309  10.208  18.121  0.00  0.00    +0.000 C 
BRANCH  19  20
ATOM     20  C   UNL     1       0.952  11.362  19.089  0.00  0.00    +0.000 C 
ATOM     21  C   UNL     1       1.823  12.591  18.773  0.00  0.00    +0.000 C 
BRANCH  20  23
ATOM     22  C   UNL     1      -1.448  12.117  19.849  0.00  0.00    +0.000 C 
ATOM     23  C   UNL     1      -0.525  11.684  18.960  0.00  0.00    +0.000 C 
BRANCH  22  25
ATOM     24  C   UNL     1      -0.838  11.456  22.362  0.00  0.00    +0.000 C 
ATOM     25  C   UNL     1      -1.339  12.453  21.335  0.00  0.00    +0.000 C 
ENDBRANCH  22  25
BRANCH  22  26
ATOM     26  C   UNL     1      -2.856  12.254  19.440  0.00  0.00    +0.000 C 
ATOM     27  C   UNL     1      -3.910  12.616  20.192  0.00  0.00    +0.000 C 
BRANCH  27  28
ATOM     28  C   UNL     1      -5.327  12.611  19.661  0.00  0.00    +0.000 C 
ATOM     29  O   UNL     1      -6.180  12.182  20.744  0.00  0.00    +0.000 OA
ATOM     30  C   UNL     1      -6.993  11.111  20.716  0.00  0.00    +0.000 C 
ATOM     31  O   UNL     1      -7.725  10.823  21.652  0.00  0.00    +0.000 OA
ATOM     32  C   UNL     1      -6.969  10.268  19.511  0.00  0.00    +0.000 C 
ATOM     33  C   UNL     1      -6.264  10.586  18.430  0.00  0.00    +0.000 C 
ATOM     34  C   UNL     1      -5.424  11.818  18.336  0.00  0.00    +0.000 C 
ATOM     35  C   UNL     1      -5.962  12.711  17.211  0.00  0.00    +0.000 C 
ENDBRANCH  27  28
ENDBRANCH  22  26
ENDBRANCH  20  23
ENDBRANCH  19  20
ENDBRANCH   1  19
TORSDOF 14
ENDMDL
MODEL 2
REMARK VINA RESULT:      -7.3      1.946      3.853
REMARK  Name = 
REMARK  22 active torsions:
REMARK  status: ('A' for Active; 'I' for Inactive)
REMARK    1  A    between atoms: C_1  and  C_2
REMARK    2  A    between atoms: C_2  and  C_3
REMARK    3  A    between atoms: C_3  and  C_25
REMARK    4  A    between atoms: C_4  and  C_5
REMARK    5  A    between atoms: C_5  and  C_6
REMARK    6  A    between atoms: C_5  and  C_7
REMARK    7  A    between atoms: C_7  and  C_8
REMARK    8  A    between atoms: C_9  and  C_10
REMARK    9  A    between atoms: C_10  and  C_11
REMARK   10  A    between atoms: C_12  and  C_13
REMARK   11  A    between atoms: C_13  and  C_14
REMARK   12  A    between atoms: C_13  and  C_15
REMARK   13  A    between atoms: C_15  and  C_17
REMARK   14  A    between atoms: C_17  and  C_18
REMARK   15  A    between atoms: C_17  and  C_19
REMARK   16  A    between atoms: C_19  and  O_20
REMARK   17  A    between atoms: C_19  and  C_21
REMARK   18  A    between atoms: C_21  and  C_22
REMARK   19  A    between atoms: C_21  and  C_23
REMARK   20  A    between atoms: C_23  and  C_24
REMARK   21  A    between atoms: C_26  and  C_27
REMARK   22  A    between atoms: C_33  and  C_34
REMARK                            x       y       z     vdW  Elec       q    Type
REMARK                         _______ _______ _______ _____ _____    ______ ____
ROOT
ATOM      1  C   UNL     1       2.106   8.174  17.903  0.00  0.00    +0.000 C 
ATOM      2  C   UNL     1       3.398   8.188  17.538  0.00  0.00    +0.000 C 
ENDROOT
BRANCH   2   3
ATOM      3  C   UNL     1       4.192   6.990  17.338  0.00  0.00    +0.000 C 
ATOM      4  C   UNL     1       4.770   6.744  15.964  0.00  0.00    +0.000 C 
ATOM      5  C   UNL     1       4.428   6.191  18.398  0.00  0.00    +0.000 C 
BRANCH   5   6
ATOM      6  C   UNL     1       5.458   5.086  18.430  0.00  0.00    +0.000 C 
ATOM      7  C   UNL     1       6.637   5.576  19.269  0.00  0.00    +0.000 C 
BRANCH   6   8
ATOM      8  C   UNL     1       4.903   3.776  19.008  0.00  0.00    +0.000 C 
ATOM      9  O   UNL     1       5.138   3.455  20.179  0.00  0.00    +0.000 OA
BRANCH   8  10
ATOM     10  C   UNL     1       4.123   2.812  18.092  0.00  0.00    +0.000 C 
ATOM     11  C   UNL     1       4.164   3.193  16.605  0.00  0.00    +0.000 C 
BRANCH  10  12
ATOM     12  C   UNL     1       2.650   2.666  18.555  0.00  0.00    +0.000 C 
BRANCH  12  13
ATOM     13  O   UNL     1       1.934   1.916  17.566  0.00  0.00    +0.000 OA
ATOM     14  H   UNL     1       1.170   1.500  18.008  0.00  0.00    +0.000 HD
ENDBRANCH  12  13
BRANCH  12  15
ATOM     15  C   UNL     1       1.865   3.964  18.919  0.00  0.00    +0.000 C 
ATOM     16  C   UNL     1       1.145   4.507  17.670  0.00  0.00    +0.000 C 
BRANCH  15  17
ATOM     17  C   UNL     1       0.870   3.733  20.077  0.00  0.00    +0.000 C 
ATOM     18  C   UNL     1       1.369   2.796  21.171  0.00  0.00    +0.000 C 
ENDBRANCH  15  17
ENDBRANCH  12  15
ENDBRANCH  10  12
ENDBRANCH   8  10
ENDBRANCH   6   8
ENDBRANCH   5   6
ENDBRANCH   2   3
BRANCH   1  19
ATOM     19  C   UNL     1       1.279   9.407  18.129  0.00  0.00    +0.000 C 
BRANCH  19  20
ATOM     20  C   UNL     1       0.344   9.247  19.351  0.00  0.00    +0.000 C 
ATOM     21  C   UNL     1       1.127   9.540  20.644  0.00  0.00    +0.000 C 
BRANCH  20  23
ATOM     22  C   UNL     1      -1.707  10.404  18.184  0.00  0.00    +0.000 C 
ATOM     23  C   UNL     1      -0.842  10.181  19.200  0.00  0.00    +0.000 C 
BRANCH  22  25
ATOM     24  C   UNL     1      -2.724  10.341  15.717  0.00  0.00    +0.000 C 
ATOM     25  C   UNL     1      -1.813   9.782  16.794  0.00  0.00    +0.000 C 
ENDBRANCH  22  25
BRANCH  22  26
ATOM     26  C   UNL     1      -2.721  11.465  18.303  0.00  0.00    +0.000 C 
ATOM     27  C   UNL     1      -3.832  11.473  19.059  0.00  0.00    +0.000 C 
BRANCH  27  28
ATOM     28  C   UNL     1      -4.847  12.594  19.001  0.00  0.00    +0.000 C 
ATOM     29  O   UNL     1      -5.003  13.090  20.347  0.00  0.00    +0.000 OA
ATOM     30  C   UNL     1      -6.157  13.126  21.035  0.00  0.00    +0.000 C 
ATOM     31  O   UNL     1      -6.233  13.600  22.161  0.00  0.00    +0.000 OA
ATOM     32  C   UNL     1      -7.352  12.556  20.392  0.00  0.00    +0.000 C 
ATOM     33  C   UNL     1      -7.346  12.115  19.139  0.00  0.00    +0.000 C 
ATOM     34  C   UNL     1      -6.133  12.145  18.267  0.00  0.00    +0.000 C 
ATOM     35  C   UNL     1      -6.405  13.045  17.055  0.00  0.00    +0.000 C 
ENDBRANCH  27  28
ENDBRANCH  22  26
ENDBRANCH  20  23
ENDBRANCH  19  20
ENDBRANCH   1  19
TORSDOF 14
ENDMDL
MODEL 3
REMARK VINA RESULT:      -7.0      1.721      2.512
REMARK  Name = 
REMARK  22 active torsions:
REMARK  status: ('A' for Active; 'I' for Inactive)
REMARK    1  A    between atoms: C_1  and  C_2
REMARK    2  A    between atoms: C_2  and  C_3
REMARK    3  A    between atoms: C_3  and  C_25
REMARK    4  A    between atoms: C_4  and  C_5
REMARK    5  A    between atoms: C_5  and  C_6
REMARK    6  A    between atoms: C_5  and  C_7
REMARK    7  A    between atoms: C_7  and  C_8
REMARK    8  A    between atoms: C_9  and  C_10
REMARK    9  A    between atoms: C_10  and  C_11
REMARK   10  A    between atoms: C_12  and  C_13
REMARK   11  A    between atoms: C_13  and  C_14
REMARK   12  A    between atoms: C_13  and  C_15
REMARK   13  A    between atoms: C_15  and  C_17
REMARK   14  A    between atoms: C_17  and  C_18
REMARK   15  A    between atoms: C_17  and  C_19
REMARK   16  A    between atoms: C_19  and  O_20
REMARK   17  A    between atoms: C_19  and  C_21
REMARK   18  A    between atoms: C_21  and  C_22
REMARK   19  A    between atoms: C_21  and  C_23
REMARK   20  A    between atoms: C_23  and  C_24
REMARK   21  A    between atoms: C_26  and  C_27
REMARK   22  A    between atoms: C_33  and  C_34
REMARK                            x       y       z     vdW  Elec       q    Type
REMARK                         _______ _______ _______ _____ _____    ______ ____
ROOT
ATOM      1  C   UNL     1       1.060   8.516  21.299  0.00  0.00    +0.000 C 
ATOM      2  C   UNL     1       0.739   7.275  20.896  0.00  0.00    +0.000 C 
ENDROOT
BRANCH   2   3
ATOM      3  C   UNL     1       1.715   6.284  20.482  0.00  0.00    +0.000 C 
ATOM      4  C   UNL     1       2.946   6.765  19.751  0.00  0.00    +0.000 C 
ATOM      5  C   UNL     1       1.508   4.997  20.824  0.00  0.00    +0.000 C 
BRANCH   5   6
ATOM      6  C   UNL     1       2.548   3.904  20.732  0.00  0.00    +0.000 C 
ATOM      7  C   UNL     1       2.278   2.910  21.860  0.00  0.00    +0.000 C 
BRANCH   6   8
ATOM      8  C   UNL     1       2.532   3.186  19.375  0.00  0.00    +0.000 C 
ATOM      9  O   UNL     1       2.411   1.956  19.315  0.00  0.00    +0.000 OA
BRANCH   8  10
ATOM     10  C   UNL     1       2.760   3.995  18.083  0.00  0.00    +0.000 C 
ATOM     11  C   UNL     1       1.552   4.011  17.135  0.00  0.00    +0.000 C 
BRANCH  10  12
ATOM     12  C   UNL     1       4.017   3.496  17.324  0.00  0.00    +0.000 C 
BRANCH  12  13
ATOM     13  O   UNL     1       5.037   3.192  18.282  0.00  0.00    +0.000 OA
ATOM     14  H   UNL     1       5.785   2.792  17.800  0.00  0.00    +0.000 HD
ENDBRANCH  12  13
BRANCH  12  15
ATOM     15  C   UNL     1       4.594   4.400  16.191  0.00  0.00    +0.000 C 
ATOM     16  C   UNL     1       4.862   5.815  16.738  0.00  0.00    +0.000 C 
BRANCH  15  17
ATOM     17  C   UNL     1       5.870   3.797  15.563  0.00  0.00    +0.000 C 
ATOM     18  C   UNL     1       7.128   4.638  15.740  0.00  0.00    +0.000 C 
ENDBRANCH  15  17
ENDBRANCH  12  15
ENDBRANCH  10  12
ENDBRANCH   8  10
ENDBRANCH   6   8
ENDBRANCH   5   6
ENDBRANCH   2   3
BRANCH   1  19
ATOM     19  C   UNL     1       0.058   9.554  21.714  0.00  0.00    +0.000 C 
BRANCH  19  20
ATOM     20  C   UNL     1       0.145  10.814  20.820  0.00  0.00    +0.000 C 
ATOM     21  C   UNL     1       1.060  10.532  19.615  0.00  0.00    +0.000 C 
BRANCH  20  23
ATOM     22  C   UNL     1      -1.812  12.403  20.076  0.00  0.00    +0.000 C 
ATOM     23  C   UNL     1      -1.250  11.209  20.374  0.00  0.00    +0.000 C 
BRANCH  22  25
ATOM     24  C   UNL     1      -0.942  14.581  21.351  0.00  0.00    +0.000 C 
ATOM     25  C   UNL     1      -1.236  13.817  20.074  0.00  0.00    +0.000 C 
ENDBRANCH  22  25
BRANCH  22  26
ATOM     26  C   UNL     1      -3.247  12.480  19.756  0.00  0.00    +0.000 C 
ATOM     27  C   UNL     1      -4.277  12.680  20.596  0.00  0.00    +0.000 C 
BRANCH  27  28
ATOM     28  C   UNL     1      -5.719  12.630  20.140  0.00  0.00    +0.000 C 
ATOM     29  O   UNL     1      -6.363  11.583  20.897  0.00  0.00    +0.000 OA
ATOM     30  C   UNL     1      -6.973  10.506  20.372  0.00  0.00    +0.000 C 
ATOM     31  O   UNL     1      -7.539   9.672  21.066  0.00  0.00    +0.000 OA
ATOM     32  C   UNL     1      -6.927  10.341  18.910  0.00  0.00    +0.000 C 
ATOM     33  C   UNL     1      -6.408  11.261  18.104  0.00  0.00    +0.000 C 
ATOM     34  C   UNL     1      -5.814  12.539  18.598  0.00  0.00    +0.000 C 
ATOM     35  C   UNL     1      -6.618  13.719  18.037  0.00  0.00    +0.000 C 
ENDBRANCH  27  28
ENDBRANCH  22  26
ENDBRANCH  20  23
ENDBRANCH  19  20
ENDBRANCH   1  19
TORSDOF 14
ENDMDL
MODEL 4
REMARK VINA RESULT:      -6.9      1.739     11.163
REMARK  Name = 
REMARK  22 active torsions:
REMARK  status: ('A' for Active; 'I' for Inactive)
REMARK    1  A    between atoms: C_1  and  C_2
REMARK    2  A    between atoms: C_2  and  C_3
REMARK    3  A    between atoms: C_3  and  C_25
REMARK    4  A    between atoms: C_4  and  C_5
REMARK    5  A    between atoms: C_5  and  C_6
REMARK    6  A    between atoms: C_5  and  C_7
REMARK    7  A    between atoms: C_7  and  C_8
REMARK    8  A    between atoms: C_9  and  C_10
REMARK    9  A    between atoms: C_10  and  C_11
REMARK   10  A    between atoms: C_12  and  C_13
REMARK   11  A    between atoms: C_13  and  C_14
REMARK   12  A    between atoms: C_13  and  C_15
REMARK   13  A    between atoms: C_15  and  C_17
REMARK   14  A    between atoms: C_17  and  C_18
REMARK   15  A    between atoms: C_17  and  C_19
REMARK   16  A    between atoms: C_19  and  O_20
REMARK   17  A    between atoms: C_19  and  C_21
REMARK   18  A    between atoms: C_21  and  C_22
REMARK   19  A    between atoms: C_21  and  C_23
REMARK   20  A    between atoms: C_23  and  C_24
REMARK   21  A    between atoms: C_26  and  C_27
REMARK   22  A    between atoms: C_33  and  C_34
REMARK                            x       y       z     vdW  Elec       q    Type
REMARK                         _______ _______ _______ _____ _____    ______ ____
ROOT
ATOM      1  C   UNL     1       0.195  10.722  21.845  0.00  0.00    +0.000 C 
ATOM      2  C   UNL     1      -0.732  10.981  22.782  0.00  0.00    +0.000 C 
ENDROOT
BRANCH   2   3
ATOM      3  C   UNL     1      -1.642  12.110  22.726  0.00  0.00    +0.000 C 
ATOM      4  C   UNL     1      -1.224  13.392  23.406  0.00  0.00    +0.000 C 
ATOM      5  C   UNL     1      -2.783  11.980  22.019  0.00  0.00    +0.000 C 
BRANCH   5   6
ATOM      6  C   UNL     1      -3.683  13.127  21.620  0.00  0.00    +0.000 C 
ATOM      7  C   UNL     1      -2.842  14.116  20.814  0.00  0.00    +0.000 C 
BRANCH   6   8
ATOM      8  C   UNL     1      -4.897  12.669  20.800  0.00  0.00    +0.000 C 
ATOM      9  O   UNL     1      -5.774  11.964  21.313  0.00  0.00    +0.000 OA
BRANCH   8  10
ATOM     10  C   UNL     1      -4.974  13.015  19.300  0.00  0.00    +0.000 C 
ATOM     11  C   UNL     1      -6.273  13.722  18.889  0.00  0.00    +0.000 C 
BRANCH  10  12
ATOM     12  C   UNL     1      -4.763  11.753  18.422  0.00  0.00    +0.000 C 
BRANCH  12  13
ATOM     13  O   UNL     1      -5.787  10.803  18.739  0.00  0.00    +0.000 OA
ATOM     14  H   UNL     1      -6.593  11.064  18.253  0.00  0.00    +0.000 HD
ENDBRANCH  12  13
BRANCH  12  15
ATOM     15  C   UNL     1      -3.363  11.067  18.452  0.00  0.00    +0.000 C 
ATOM     16  C   UNL     1      -3.445   9.683  17.780  0.00  0.00    +0.000 C 
BRANCH  15  17
ATOM     17  C   UNL     1      -2.276  11.941  17.790  0.00  0.00    +0.000 C 
ATOM     18  C   UNL     1      -0.997  12.096  18.605  0.00  0.00    +0.000 C 
ENDBRANCH  15  17
ENDBRANCH  12  15
ENDBRANCH  10  12
ENDBRANCH   8  10
ENDBRANCH   6   8
ENDBRANCH   5   6
ENDBRANCH   2   3
BRANCH   1  19
ATOM     19  C   UNL     1       1.153   9.568  21.901  0.00  0.00    +0.000 C 
BRANCH  19  20
ATOM     20  C   UNL     1       0.624   8.353  21.101  0.00  0.00    +0.000 C 
ATOM     21  C   UNL     1      -0.435   8.822  20.087  0.00  0.00    +0.000 C 
BRANCH  20  23
ATOM     22  C   UNL     1       2.170   6.372  20.330  0.00  0.00    +0.000 C 
ATOM     23  C   UNL     1       1.786   7.667  20.408  0.00  0.00    +0.000 C 
BRANCH  22  25
ATOM     24  C   UNL     1       0.933   4.022  20.054  0.00  0.00    +0.000 C 
ATOM     25  C   UNL     1       1.560   5.102  20.917  0.00  0.00    +0.000 C 
ENDBRANCH  22  25
BRANCH  22  26
ATOM     26  C   UNL     1       3.424   6.017  19.645  0.00  0.00    +0.000 C 
ATOM     27  C   UNL     1       3.614   5.756  18.340  0.00  0.00    +0.000 C 
BRANCH  27  28
ATOM     28  C   UNL     1       4.947   5.297  17.789  0.00  0.00    +0.000 C 
ATOM     29  O   UNL     1       5.793   5.008  18.921  0.00  0.00    +0.000 OA
ATOM     30  C   UNL     1       6.979   5.590  19.174  0.00  0.00    +0.000 C 
ATOM     31  O   UNL     1       7.672   5.271  20.131  0.00  0.00    +0.000 OA
ATOM     32  C   UNL     1       7.425   6.655  18.262  0.00  0.00    +0.000 C 
ATOM     33  C   UNL     1       6.758   6.975  17.159  0.00  0.00    +0.000 C 
ATOM     34  C   UNL     1       5.492   6.299  16.743  0.00  0.00    +0.000 C 
ATOM     35  C   UNL     1       5.712   5.603  15.393  0.00  0.00    +0.000 C 
ENDBRANCH  27  28
ENDBRANCH  22  26
ENDBRANCH  20  23
ENDBRANCH  19  20
ENDBRANCH   1  19
TORSDOF 14
ENDMDL
MODEL 5
REMARK VINA RESULT:      -6.9      3.402      5.286
REMARK  Name = 
REMARK  22 active torsions:
REMARK  status: ('A' for Active; 'I' for Inactive)
REMARK    1  A    between atoms: C_1  and  C_2
REMARK    2  A    between atoms: C_2  and  C_3
REMARK    3  A    between atoms: C_3  and  C_25
REMARK    4  A    between atoms: C_4  and  C_5
REMARK    5  A    between atoms: C_5  and  C_6
REMARK    6  A    between atoms: C_5  and  C_7
REMARK    7  A    between atoms: C_7  and  C_8
REMARK    8  A    between atoms: C_9  and  C_10
REMARK    9  A    between atoms: C_10  and  C_11
REMARK   10  A    between atoms: C_12  and  C_13
REMARK   11  A    between atoms: C_13  and  C_14
REMARK   12  A    between atoms: C_13  and  C_15
REMARK   13  A    between atoms: C_15  and  C_17
REMARK   14  A    between atoms: C_17  and  C_18
REMARK   15  A    between atoms: C_17  and  C_19
REMARK   16  A    between atoms: C_19  and  O_20
REMARK   17  A    between atoms: C_19  and  C_21
REMARK   18  A    between atoms: C_21  and  C_22
REMARK   19  A    between atoms: C_21  and  C_23
REMARK   20  A    between atoms: C_23  and  C_24
REMARK   21  A    between atoms: C_26  and  C_27
REMARK   22  A    between atoms: C_33  and  C_34
REMARK                            x       y       z     vdW  Elec       q    Type
REMARK                         _______ _______ _______ _____ _____    ______ ____
ROOT
ATOM      1  C   UNL     1       1.587   8.098  18.127  0.00  0.00    +0.000 C 
ATOM      2  C   UNL     1       2.900   7.814  18.150  0.00  0.00    +0.000 C 
ENDROOT
BRANCH   2   3
ATOM      3  C   UNL     1       3.432   6.477  18.336  0.00  0.00    +0.000 C 
ATOM      4  C   UNL     1       3.286   5.839  19.697  0.00  0.00    +0.000 C 
ATOM      5  C   UNL     1       3.973   5.847  17.273  0.00  0.00    +0.000 C 
BRANCH   5   6
ATOM      6  C   UNL     1       4.299   4.372  17.221  0.00  0.00    +0.000 C 
ATOM      7  C   UNL     1       3.035   3.634  16.786  0.00  0.00    +0.000 C 
BRANCH   6   8
ATOM      8  C   UNL     1       5.456   4.056  16.263  0.00  0.00    +0.000 C 
ATOM      9  O   UNL     1       5.668   2.895  15.893  0.00  0.00    +0.000 OA
BRANCH   8  10
ATOM     10  C   UNL     1       6.417   5.183  15.834  0.00  0.00    +0.000 C 
ATOM     11  C   UNL     1       7.056   4.966  14.455  0.00  0.00    +0.000 C 
BRANCH  10  12
ATOM     12  C   UNL     1       7.524   5.411  16.895  0.00  0.00    +0.000 C 
BRANCH  12  13
ATOM     13  O   UNL     1       8.013   4.134  17.324  0.00  0.00    +0.000 OA
ATOM     14  H   UNL     1       8.987   4.156  17.264  0.00  0.00    +0.000 HD
ENDBRANCH  12  13
BRANCH  12  15
ATOM     15  C   UNL     1       7.182   6.299  18.131  0.00  0.00    +0.000 C 
ATOM     16  C   UNL     1       7.067   5.419  19.391  0.00  0.00    +0.000 C 
BRANCH  15  17
ATOM     17  C   UNL     1       8.215   7.428  18.336  0.00  0.00    +0.000 C 
ATOM     18  C   UNL     1       7.861   8.748  17.660  0.00  0.00    +0.000 C 
ENDBRANCH  15  17
ENDBRANCH  12  15
ENDBRANCH  10  12
ENDBRANCH   8  10
ENDBRANCH   6   8
ENDBRANCH   5   6
ENDBRANCH   2   3
BRANCH   1  19
ATOM     19  C   UNL     1       1.025   9.479  17.952  0.00  0.00    +0.000 C 
BRANCH  19  20
ATOM     20  C   UNL     1       0.172   9.902  19.172  0.00  0.00    +0.000 C 
ATOM     21  C   UNL     1       0.846   9.418  20.468  0.00  0.00    +0.000 C 
BRANCH  20  23
ATOM     22  C   UNL     1      -0.982  12.219  18.715  0.00  0.00    +0.000 C 
ATOM     23  C   UNL     1       0.004  11.409  19.166  0.00  0.00    +0.000 C 
BRANCH  22  25
ATOM     24  C   UNL     1      -2.411  11.102  16.757  0.00  0.00    +0.000 C 
ATOM     25  C   UNL     1      -2.315  11.905  18.040  0.00  0.00    +0.000 C 
ENDBRANCH  22  25
BRANCH  22  26
ATOM     26  C   UNL     1      -0.814  13.681  18.767  0.00  0.00    +0.000 C 
ATOM     27  C   UNL     1       0.143  14.386  19.394  0.00  0.00    +0.000 C 
BRANCH  27  28
ATOM     28  C   UNL     1       0.132  15.898  19.451  0.00  0.00    +0.000 C 
ATOM     29  O   UNL     1       0.935  16.367  18.347  0.00  0.00    +0.000 OA
ATOM     30  C   UNL     1       2.025  17.146  18.454  0.00  0.00    +0.000 C 
ATOM     31  O   UNL     1       2.641  17.547  17.475  0.00  0.00    +0.000 OA
ATOM     32  C   UNL     1       2.481  17.501  19.807  0.00  0.00    +0.000 C 
ATOM     33  C   UNL     1       1.799  17.172  20.899  0.00  0.00    +0.000 C 
ATOM     34  C   UNL     1       0.517  16.406  20.862  0.00  0.00    +0.000 C 
ATOM     35  C   UNL     1      -0.606  17.272  21.448  0.00  0.00    +0.000 C 
ENDBRANCH  27  28
ENDBRANCH  22  26
ENDBRANCH  20  23
ENDBRANCH  19  20
ENDBRANCH   1  19
TORSDOF 14
ENDMDL
MODEL 6
REMARK VINA RESULT:      -6.8      2.395     10.917
REMARK  Name = 
REMARK  22 active torsions:
REMARK  status: ('A' for Active; 'I' for Inactive)
REMARK    1  A    between atoms: C_1  and  C_2
REMARK    2  A    between atoms: C_2  and  C_3
REMARK    3  A    between atoms: C_3  and  C_25
REMARK    4  A    between atoms: C_4  and  C_5
REMARK    5  A    between atoms: C_5  and  C_6
REMARK    6  A    between atoms: C_5  and  C_7
REMARK    7  A    between atoms: C_7  and  C_8
REMARK    8  A    between atoms: C_9  and  C_10
REMARK    9  A    between atoms: C_10  and  C_11
REMARK   10  A    between atoms: C_12  and  C_13
REMARK   11  A    between atoms: C_13  and  C_14
REMARK   12  A    between atoms: C_13  and  C_15
REMARK   13  A    between atoms: C_15  and  C_17
REMARK   14  A    between atoms: C_17  and  C_18
REMARK   15  A    between atoms: C_17  and  C_19
REMARK   16  A    between atoms: C_19  and  O_20
REMARK   17  A    between atoms: C_19  and  C_21
REMARK   18  A    between atoms: C_21  and  C_22
REMARK   19  A    between atoms: C_21  and  C_23
REMARK   20  A    between atoms: C_23  and  C_24
REMARK   21  A    between atoms: C_26  and  C_27
REMARK   22  A    between atoms: C_33  and  C_34
REMARK                            x       y       z     vdW  Elec       q    Type
REMARK                         _______ _______ _______ _____ _____    ______ ____
ROOT
ATOM      1  C   UNL     1      -1.347  11.815  18.230  0.00  0.00    +0.000 C 
ATOM      2  C   UNL     1      -2.054  11.041  17.391  0.00  0.00    +0.000 C 
ENDROOT
BRANCH   2   3
ATOM      3  C   UNL     1      -3.458  11.252  17.088  0.00  0.00    +0.000 C 
ATOM      4  C   UNL     1      -3.952  10.863  15.714  0.00  0.00    +0.000 C 
ATOM      5  C   UNL     1      -4.262  11.722  18.062  0.00  0.00    +0.000 C 
BRANCH   5   6
ATOM      6  C   UNL     1      -5.772  11.720  18.007  0.00  0.00    +0.000 C 
ATOM      7  C   UNL     1      -6.256  10.398  18.600  0.00  0.00    +0.000 C 
BRANCH   6   8
ATOM      8  C   UNL     1      -6.393  12.902  18.765  0.00  0.00    +0.000 C 
ATOM      9  O   UNL     1      -6.480  14.016  18.234  0.00  0.00    +0.000 OA
BRANCH   8  10
ATOM     10  C   UNL     1      -6.826  12.719  20.233  0.00  0.00    +0.000 C 
ATOM     11  C   UNL     1      -7.917  13.700  20.688  0.00  0.00    +0.000 C 
BRANCH  10  12
ATOM     12  C   UNL     1      -5.610  12.806  21.192  0.00  0.00    +0.000 C 
BRANCH  12  13
ATOM     13  O   UNL     1      -5.971  12.205  22.441  0.00  0.00    +0.000 OA
ATOM     14  H   UNL     1      -6.944  12.236  22.512  0.00  0.00    +0.000 HD
ENDBRANCH  12  13
BRANCH  12  15
ATOM     15  C   UNL     1      -4.968  14.207  21.434  0.00  0.00    +0.000 C 
ATOM     16  C   UNL     1      -5.083  14.584  22.923  0.00  0.00    +0.000 C 
BRANCH  15  17
ATOM     17  C   UNL     1      -3.498  14.260  20.960  0.00  0.00    +0.000 C 
ATOM     18  C   UNL     1      -2.483  14.547  22.060  0.00  0.00    +0.000 C 
ENDBRANCH  15  17
ENDBRANCH  12  15
ENDBRANCH  10  12
ENDBRANCH   8  10
ENDBRANCH   6   8
ENDBRANCH   5   6
ENDBRANCH   2   3
BRANCH   1  19
ATOM     19  C   UNL     1       0.100  11.597  18.564  0.00  0.00    +0.000 C 
BRANCH  19  20
ATOM     20  C   UNL     1       0.287  11.212  20.051  0.00  0.00    +0.000 C 
ATOM     21  C   UNL     1      -1.040  11.405  20.807  0.00  0.00    +0.000 C 
BRANCH  20  23
ATOM     22  C   UNL     1       0.534   8.785  21.030  0.00  0.00    +0.000 C 
ATOM     23  C   UNL     1       0.767   9.775  20.138  0.00  0.00    +0.000 C 
BRANCH  22  25
ATOM     24  C   UNL     1       0.064   9.488  23.562  0.00  0.00    +0.000 C 
ATOM     25  C   UNL     1      -0.320   8.747  22.295  0.00  0.00    +0.000 C 
ENDBRANCH  22  25
BRANCH  22  26
ATOM     26  C   UNL     1       1.232   7.496  20.896  0.00  0.00    +0.000 C 
ATOM     27  C   UNL     1       2.202   7.161  20.027  0.00  0.00    +0.000 C 
BRANCH  27  28
ATOM     28  C   UNL     1       2.759   5.757  19.931  0.00  0.00    +0.000 C 
ATOM     29  O   UNL     1       3.595   5.716  18.756  0.00  0.00    +0.000 OA
ATOM     30  C   UNL     1       3.430   4.886  17.712  0.00  0.00    +0.000 C 
ATOM     31  O   UNL     1       4.200   4.870  16.761  0.00  0.00    +0.000 OA
ATOM     32  C   UNL     1       2.264   3.989  17.732  0.00  0.00    +0.000 C 
ATOM     33  C   UNL     1       1.450   3.899  18.778  0.00  0.00    +0.000 C 
ATOM     34  C   UNL     1       1.630   4.702  20.025  0.00  0.00    +0.000 C 
ATOM     35  C   UNL     1       1.875   3.754  21.205  0.00  0.00    +0.000 C 
ENDBRANCH  27  28
ENDBRANCH  22  26
ENDBRANCH  20  23
ENDBRANCH  19  20
ENDBRANCH   1  19
TORSDOF 14
ENDMDL
MODEL 7
REMARK VINA RESULT:      -6.8      1.023      1.460
REMARK  Name = 
REMARK  22 active torsions:
REMARK  status: ('A' for Active; 'I' for Inactive)
REMARK    1  A    between atoms: C_1  and  C_2
REMARK    2  A    between atoms: C_2  and  C_3
REMARK    3  A    between atoms: C_3  and  C_25
REMARK    4  A    between atoms: C_4  and  C_5
REMARK    5  A    between atoms: C_5  and  C_6
REMARK    6  A    between atoms: C_5  and  C_7
REMARK    7  A    between atoms: C_7  and  C_8
REMARK    8  A    between atoms: C_9  and  C_10
REMARK    9  A    between atoms: C_10  and  C_11
REMARK   10  A    between atoms: C_12  and  C_13
REMARK   11  A    between atoms: C_13  and  C_14
REMARK   12  A    between atoms: C_13  and  C_15
REMARK   13  A    between atoms: C_15  and  C_17
REMARK   14  A    between atoms: C_17  and  C_18
REMARK   15  A    between atoms: C_17  and  C_19
REMARK   16  A    between atoms: C_19  and  O_20
REMARK   17  A    between atoms: C_19  and  C_21
REMARK   18  A    between atoms: C_21  and  C_22
REMARK   19  A    between atoms: C_21  and  C_23
REMARK   20  A    between atoms: C_23  and  C_24
REMARK   21  A    between atoms: C_26  and  C_27
REMARK   22  A    between atoms: C_33  and  C_34
REMARK                            x       y       z     vdW  Elec       q    Type
REMARK                         _______ _______ _______ _____ _____    ______ ____
ROOT
ATOM      1  C   UNL     1       1.554   7.654  20.605  0.00  0.00    +0.000 C 
ATOM      2  C   UNL     1       1.102   6.395  20.723  0.00  0.00    +0.000 C 
ENDROOT
BRANCH   2   3
ATOM      3  C   UNL     1       1.916   5.219  20.471  0.00  0.00    +0.000 C 
ATOM      4  C   UNL     1       2.399   4.425  21.661  0.00  0.00    +0.000 C 
ATOM      5  C   UNL     1       2.147   4.859  19.192  0.00  0.00    +0.000 C 
BRANCH   5   6
ATOM      6  C   UNL     1       2.713   3.526  18.763  0.00  0.00    +0.000 C 
ATOM      7  C   UNL     1       2.112   3.184  17.401  0.00  0.00    +0.000 C 
BRANCH   6   8
ATOM      8  C   UNL     1       4.246   3.533  18.681  0.00  0.00    +0.000 C 
ATOM      9  O   UNL     1       4.919   2.775  19.390  0.00  0.00    +0.000 OA
BRANCH   8  10
ATOM     10  C   UNL     1       4.953   4.560  17.775  0.00  0.00    +0.000 C 
ATOM     11  C   UNL     1       4.773   4.296  16.274  0.00  0.00    +0.000 C 
BRANCH  10  12
ATOM     12  C   UNL     1       6.464   4.659  18.112  0.00  0.00    +0.000 C 
BRANCH  12  13
ATOM     13  O   UNL     1       6.599   5.054  19.483  0.00  0.00    +0.000 OA
ATOM     14  H   UNL     1       6.644   6.029  19.506  0.00  0.00    +0.000 HD
ENDBRANCH  12  13
BRANCH  12  15
ATOM     15  C   UNL     1       7.360   5.556  17.203  0.00  0.00    +0.000 C 
ATOM     16  C   UNL     1       7.468   4.933  15.799  0.00  0.00    +0.000 C 
BRANCH  15  17
ATOM     17  C   UNL     1       6.838   7.007  17.128  0.00  0.00    +0.000 C 
ATOM     18  C   UNL     1       7.760   8.050  17.749  0.00  0.00    +0.000 C 
ENDBRANCH  15  17
ENDBRANCH  12  15
ENDBRANCH  10  12
ENDBRANCH   8  10
ENDBRANCH   6   8
ENDBRANCH   5   6
ENDBRANCH   2   3
BRANCH   1  19
ATOM     19  C   UNL     1       0.717   8.877  20.847  0.00  0.00    +0.000 C 
BRANCH  19  20
ATOM     20  C   UNL     1       0.846   9.890  19.685  0.00  0.00    +0.000 C 
ATOM     21  C   UNL     1       1.467   9.197  18.459  0.00  0.00    +0.000 C 
BRANCH  20  23
ATOM     22  C   UNL     1      -1.171  11.574  19.771  0.00  0.00    +0.000 C 
ATOM     23  C   UNL     1      -0.524  10.458  19.362  0.00  0.00    +0.000 C 
BRANCH  22  25
ATOM     24  C   UNL     1      -0.507  12.464  22.198  0.00  0.00    +0.000 C 
ATOM     25  C   UNL     1      -0.751  12.694  20.719  0.00  0.00    +0.000 C 
ENDBRANCH  22  25
BRANCH  22  26
ATOM     26  C   UNL     1      -2.561  11.813  19.347  0.00  0.00    +0.000 C 
ATOM     27  C   UNL     1      -3.519  12.503  19.990  0.00  0.00    +0.000 C 
BRANCH  27  28
ATOM     28  C   UNL     1      -4.943  12.580  19.485  0.00  0.00    +0.000 C 
ATOM     29  O   UNL     1      -5.805  12.418  20.631  0.00  0.00    +0.000 OA
ATOM     30  C   UNL     1      -6.732  11.455  20.778  0.00  0.00    +0.000 C 
ATOM     31  O   UNL     1      -7.463  11.396  21.758  0.00  0.00    +0.000 OA
ATOM     32  C   UNL     1      -6.837  10.442  19.717  0.00  0.00    +0.000 C 
ATOM     33  C   UNL     1      -6.134  10.512  18.591  0.00  0.00    +0.000 C 
ATOM     34  C   UNL     1      -5.167  11.612  18.298  0.00  0.00    +0.000 C 
ATOM     35  C   UNL     1      -5.637  12.380  17.057  0.00  0.00    +0.000 C 
ENDBRANCH  27  28
ENDBRANCH  22  26
ENDBRANCH  20  23
ENDBRANCH  19  20
ENDBRANCH   1  19
TORSDOF 14
ENDMDL
MODEL 8
REMARK VINA RESULT:      -6.8      3.284      4.899
REMARK  Name = 
REMARK  22 active torsions:
REMARK  status: ('A' for Active; 'I' for Inactive)
REMARK    1  A    between atoms: C_1  and  C_2
REMARK    2  A    between atoms: C_2  and  C_3
REMARK    3  A    between atoms: C_3  and  C_25
REMARK    4  A    between atoms: C_4  and  C_5
REMARK    5  A    between atoms: C_5  and  C_6
REMARK    6  A    between atoms: C_5  and  C_7
REMARK    7  A    between atoms: C_7  and  C_8
REMARK    8  A    between atoms: C_9  and  C_10
REMARK    9  A    between atoms: C_10  and  C_11
REMARK   10  A    between atoms: C_12  and  C_13
REMARK   11  A    between atoms: C_13  and  C_14
REMARK   12  A    between atoms: C_13  and  C_15
REMARK   13  A    between atoms: C_15  and  C_17
REMARK   14  A    between atoms: C_17  and  C_18
REMARK   15  A    between atoms: C_17  and  C_19
REMARK   16  A    between atoms: C_19  and  O_20
REMARK   17  A    between atoms: C_19  and  C_21
REMARK   18  A    between atoms: C_21  and  C_22
REMARK   19  A    between atoms: C_21  and  C_23
REMARK   20  A    between atoms: C_23  and  C_24
REMARK   21  A    between atoms: C_26  and  C_27
REMARK   22  A    between atoms: C_33  and  C_34
REMARK                            x       y       z     vdW  Elec       q    Type
REMARK                         _______ _______ _______ _____ _____    ______ ____
ROOT
ATOM      1  C   UNL     1       1.096   8.202  20.621  0.00  0.00    +0.000 C 
ATOM      2  C   UNL     1       2.179   7.559  20.155  0.00  0.00    +0.000 C 
ENDROOT
BRANCH   2   3
ATOM      3  C   UNL     1       2.236   6.124  19.944  0.00  0.00    +0.000 C 
ATOM      4  C   UNL     1       1.732   5.225  21.049  0.00  0.00    +0.000 C 
ATOM      5  C   UNL     1       2.675   5.666  18.754  0.00  0.00    +0.000 C 
BRANCH   5   6
ATOM      6  C   UNL     1       2.523   4.242  18.272  0.00  0.00    +0.000 C 
ATOM      7  C   UNL     1       1.319   4.198  17.332  0.00  0.00    +0.000 C 
BRANCH   6   8
ATOM      8  C   UNL     1       3.777   3.725  17.553  0.00  0.00    +0.000 C 
ATOM      9  O   UNL     1       3.991   2.510  17.454  0.00  0.00    +0.000 OA
BRANCH   8  10
ATOM     10  C   UNL     1       4.823   4.730  17.032  0.00  0.00    +0.000 C 
ATOM     11  C   UNL     1       5.134   4.587  15.535  0.00  0.00    +0.000 C 
BRANCH  10  12
ATOM     12  C   UNL     1       6.138   4.647  17.851  0.00  0.00    +0.000 C 
BRANCH  12  13
ATOM     13  O   UNL     1       5.943   3.725  18.930  0.00  0.00    +0.000 OA
ATOM     14  H   UNL     1       5.032   3.844  19.259  0.00  0.00    +0.000 HD
ENDBRANCH  12  13
BRANCH  12  15
ATOM     15  C   UNL     1       6.754   5.977  18.384  0.00  0.00    +0.000 C 
ATOM     16  C   UNL     1       7.808   5.669  19.464  0.00  0.00    +0.000 C 
BRANCH  15  17
ATOM     17  C   UNL     1       7.356   6.832  17.247  0.00  0.00    +0.000 C 
ATOM     18  C   UNL     1       7.820   8.221  17.669  0.00  0.00    +0.000 C 
ENDBRANCH  15  17
ENDBRANCH  12  15
ENDBRANCH  10  12
ENDBRANCH   8  10
ENDBRANCH   6   8
ENDBRANCH   5   6
ENDBRANCH   2   3
BRANCH   1  19
ATOM     19  C   UNL     1       1.030   9.683  20.858  0.00  0.00    +0.000 C 
BRANCH  19  20
ATOM     20  C   UNL     1       0.525  10.436  19.605  0.00  0.00    +0.000 C 
ATOM     21  C   UNL     1      -0.851   9.888  19.190  0.00  0.00    +0.000 C 
BRANCH  20  23
ATOM     22  C   UNL     1      -0.107  12.626  20.914  0.00  0.00    +0.000 C 
ATOM     23  C   UNL     1       0.459  11.922  19.907  0.00  0.00    +0.000 C 
BRANCH  22  25
ATOM     24  C   UNL     1      -2.388  12.411  22.284  0.00  0.00    +0.000 C 
ATOM     25  C   UNL     1      -0.896  12.177  22.141  0.00  0.00    +0.000 C 
ENDBRANCH  22  25
BRANCH  22  26
ATOM     26  C   UNL     1      -0.083  14.098  20.885  0.00  0.00    +0.000 C 
ATOM     27  C   UNL     1      -0.768  14.925  20.076  0.00  0.00    +0.000 C 
BRANCH  27  28
ATOM     28  C   UNL     1      -0.564  16.425  20.086  0.00  0.00    +0.000 C 
ATOM     29  O   UNL     1      -0.941  16.909  18.779  0.00  0.00    +0.000 OA
ATOM     30  C   UNL     1      -0.139  17.587  17.940  0.00  0.00    +0.000 C 
ATOM     31  O   UNL     1      -0.530  18.009  16.860  0.00  0.00    +0.000 OA
ATOM     32  C   UNL     1       1.257  17.801  18.354  0.00  0.00    +0.000 C 
ATOM     33  C   UNL     1       1.708  17.447  19.552  0.00  0.00    +0.000 C 
ATOM     34  C   UNL     1       0.853  16.792  20.587  0.00  0.00    +0.000 C 
ATOM     35  C   UNL     1       0.770  17.699  21.822  0.00  0.00    +0.000 C 
ENDBRANCH  27  28
ENDBRANCH  22  26
ENDBRANCH  20  23
ENDBRANCH  19  20
ENDBRANCH   1  19
TORSDOF 14
ENDMDL
MODEL 9
REMARK VINA RESULT:      -6.7      3.987      6.663
REMARK  Name = 
REMARK  22 active torsions:
REMARK  status: ('A' for Active; 'I' for Inactive)
REMARK    1  A    between atoms: C_1  and  C_2
REMARK    2  A    between atoms: C_2  and  C_3
REMARK    3  A    between atoms: C_3  and  C_25
REMARK    4  A    between atoms: C_4  and  C_5
REMARK    5  A    between atoms: C_5  and  C_6
REMARK    6  A    between atoms: C_5  and  C_7
REMARK    7  A    between atoms: C_7  and  C_8
REMARK    8  A    between atoms: C_9  and  C_10
REMARK    9  A    between atoms: C_10  and  C_11
REMARK   10  A    between atoms: C_12  and  C_13
REMARK   11  A    between atoms: C_13  and  C_14
REMARK   12  A    between atoms: C_13  and  C_15
REMARK   13  A    between atoms: C_15  and  C_17
REMARK   14  A    between atoms: C_17  and  C_18
REMARK   15  A    between atoms: C_17  and  C_19
REMARK   16  A    between atoms: C_19  and  O_20
REMARK   17  A    between atoms: C_19  and  C_21
REMARK   18  A    between atoms: C_21  and  C_22
REMARK   19  A    between atoms: C_21  and  C_23
REMARK   20  A    between atoms: C_23  and  C_24
REMARK   21  A    between atoms: C_26  and  C_27
REMARK   22  A    between atoms: C_33  and  C_34
REMARK                            x       y       z     vdW  Elec       q    Type
REMARK                         _______ _______ _______ _____ _____    ______ ____
ROOT
ATOM      1  C   UNL     1       1.269   9.123  18.418  0.00  0.00    +0.000 C 
ATOM      2  C   UNL     1       2.203   8.306  17.907  0.00  0.00    +0.000 C 
ENDROOT
BRANCH   2   3
ATOM      3  C   UNL     1       2.617   7.063  18.533  0.00  0.00    +0.000 C 
ATOM      4  C   UNL     1       2.156   6.795  19.947  0.00  0.00    +0.000 C 
ATOM      5  C   UNL     1       3.335   6.184  17.805  0.00  0.00    +0.000 C 
BRANCH   5   6
ATOM      6  C   UNL     1       3.589   4.747  18.197  0.00  0.00    +0.000 C 
ATOM      7  C   UNL     1       2.562   3.880  17.470  0.00  0.00    +0.000 C 
BRANCH   6   8
ATOM      8  C   UNL     1       5.012   4.284  17.856  0.00  0.00    +0.000 C 
ATOM      9  O   UNL     1       5.656   3.587  18.650  0.00  0.00    +0.000 OA
BRANCH   8  10
ATOM     10  C   UNL     1       5.678   4.771  16.554  0.00  0.00    +0.000 C 
ATOM     11  C   UNL     1       5.866   3.670  15.500  0.00  0.00    +0.000 C 
BRANCH  10  12
ATOM     12  C   UNL     1       7.038   5.458  16.842  0.00  0.00    +0.000 C 
BRANCH  12  13
ATOM     13  O   UNL     1       8.011   4.443  17.120  0.00  0.00    +0.000 OA
ATOM     14  H   UNL     1       8.883   4.878  17.176  0.00  0.00    +0.000 HD
ENDBRANCH  12  13
BRANCH  12  15
ATOM     15  C   UNL     1       7.082   6.562  17.943  0.00  0.00    +0.000 C 
ATOM     16  C   UNL     1       8.041   6.137  19.071  0.00  0.00    +0.000 C 
BRANCH  15  17
ATOM     17  C   UNL     1       7.479   7.939  17.367  0.00  0.00    +0.000 C 
ATOM     18  C   UNL     1       8.426   8.749  18.243  0.00  0.00    +0.000 C 
ENDBRANCH  15  17
ENDBRANCH  12  15
ENDBRANCH  10  12
ENDBRANCH   8  10
ENDBRANCH   6   8
ENDBRANCH   5   6
ENDBRANCH   2   3
BRANCH   1  19
ATOM     19  C   UNL     1       0.845  10.419  17.788  0.00  0.00    +0.000 C 
BRANCH  19  20
ATOM     20  C   UNL     1       0.152  11.347  18.813  0.00  0.00    +0.000 C 
ATOM     21  C   UNL     1      -0.937  10.564  19.568  0.00  0.00    +0.000 C 
BRANCH  20  23
ATOM     22  C   UNL     1       1.389  13.138  20.287  0.00  0.00    +0.000 C 
ATOM     23  C   UNL     1       1.192  11.905  19.767  0.00  0.00    +0.000 C 
BRANCH  22  25
ATOM     24  C   UNL     1       0.094  14.904  18.761  0.00  0.00    +0.000 C 
ATOM     25  C   UNL     1       0.618  14.444  20.108  0.00  0.00    +0.000 C 
ENDBRANCH  22  25
BRANCH  22  26
ATOM     26  C   UNL     1       2.567  13.400  21.131  0.00  0.00    +0.000 C 
ATOM     27  C   UNL     1       3.539  14.309  20.942  0.00  0.00    +0.000 C 
BRANCH  27  28
ATOM     28  C   UNL     1       4.755  14.397  21.839  0.00  0.00    +0.000 C 
ATOM     29  O   UNL     1       4.274  14.666  23.173  0.00  0.00    +0.000 OA
ATOM     30  C   UNL     1       4.610  15.732  23.921  0.00  0.00    +0.000 C 
ATOM     31  O   UNL     1       4.201  15.882  25.064  0.00  0.00    +0.000 OA
ATOM     32  C   UNL     1       5.487  16.743  23.312  0.00  0.00    +0.000 C 
ATOM     33  C   UNL     1       6.034  16.584  22.111  0.00  0.00    +0.000 C 
ATOM     34  C   UNL     1       5.805  15.376  21.262  0.00  0.00    +0.000 C 
ATOM     35  C   UNL     1       7.142  14.660  21.032  0.00  0.00    +0.000 C 
ENDBRANCH  27  28
ENDBRANCH  22  26
ENDBRANCH  20  23
ENDBRANCH  19  20
ENDBRANCH   1  19
TORSDOF 14
ENDMDL
