MODEL 1
REMARK VINA RESULT:      -7.8      0.000      0.000
REMARK  Name = 
REMARK  7 active torsions:
REMARK  status: ('A' for Active; 'I' for Inactive)
REMARK    1  A    between atoms: C_1  and  C_2
REMARK    2  A    between atoms: C_7  and  C_8
REMARK    3  A    between atoms: C_8  and  N_9
REMARK    4  A    between atoms: C_10  and  C_12
REMARK    5  A    between atoms: C_12  and  C_13
REMARK    6  A    between atoms: C_12  and  O_14
REMARK    7  A    between atoms: O_14  and  C_15
REMARK                            x       y       z     vdW  Elec       q    Type
REMARK                         _______ _______ _______ _____ _____    ______ ____
ROOT
ATOM      1  N   UNL     1       5.180   5.592  18.356  0.00  0.00    +0.000 N 
ATOM      2  C   UNL     1       6.489   5.489  17.927  0.00  0.00    +0.000 C 
ATOM      3  O   UNL     1       7.303   4.733  18.453  0.00  0.00    +0.000 OA
ATOM      4  H   UNL     1       4.527   6.161  17.835  0.00  0.00    +0.000 HD
ENDROOT
BRANCH   2   5
ATOM      5  C   UNL     1       6.849   6.429  16.746  0.00  0.00    +0.000 C 
ATOM      6  C   UNL     1       7.642   7.619  17.289  0.00  0.00    +0.000 C 
BRANCH   5   7
ATOM      7  O   UNL     1       7.609   5.675  15.796  0.00  0.00    +0.000 OA
BRANCH   7   8
ATOM      8  C   UNL     1       6.967   4.939  14.833  0.00  0.00    +0.000 A 
ATOM      9  C   UNL     1       5.822   4.167  15.051  0.00  0.00    +0.000 A 
ATOM     10  C   UNL     1       5.216   3.471  13.999  0.00  0.00    +0.000 A 
ATOM     11  C   UNL     1       5.757   3.529  12.719  0.00  0.00    +0.000 A 
ATOM     12 CL   UNL     1       5.013   2.655  11.439  0.00  0.00    +0.000 Cl
ATOM     13  C   UNL     1       6.895   4.289  12.475  0.00  0.00    +0.000 A 
ATOM     14  C   UNL     1       7.492   4.995  13.526  0.00  0.00    +0.000 A 
ATOM     15 CL   UNL     1       8.905   5.926  13.166  0.00  0.00    +0.000 Cl
ENDBRANCH   7   8
ENDBRANCH   5   7
ENDBRANCH   2   5
BRANCH   1  16
ATOM     16  C   UNL     1       4.667   4.854  19.497  0.00  0.00    +0.000 C 
BRANCH  16  23
ATOM     17  C   UNL     1       1.912   5.281  20.778  0.00  0.00    +0.000 C 
ATOM     18  C   UNL     1       2.176   4.229  19.735  0.00  0.00    +0.000 A 
ATOM     19  C   UNL     1       1.111   3.386  19.364  0.00  0.00    +0.000 A 
ATOM     20  C   UNL     1       1.289   2.368  18.429  0.00  0.00    +0.000 A 
ATOM     21  C   UNL     1       2.536   2.174  17.849  0.00  0.00    +0.000 A 
ATOM     22  C   UNL     1       3.602   2.999  18.203  0.00  0.00    +0.000 A 
ATOM     23  C   UNL     1       3.444   4.039  19.140  0.00  0.00    +0.000 A 
ENDBRANCH  16  23
ENDBRANCH   1  16
TORSDOF 5
ENDMDL
MODEL 2
REMARK VINA RESULT:      -7.6      0.787      1.233
REMARK  Name = 
REMARK  7 active torsions:
REMARK  status: ('A' for Active; 'I' for Inactive)
REMARK    1  A    between atoms: C_1  and  C_2
REMARK    2  A    between atoms: C_7  and  C_8
REMARK    3  A    between atoms: C_8  and  N_9
REMARK    4  A    between atoms: C_10  and  C_12
REMARK    5  A    between atoms: C_12  and  C_13
REMARK    6  A    between atoms: C_12  and  O_14
REMARK    7  A    between atoms: O_14  and  C_15
REMARK                            x       y       z     vdW  Elec       q    Type
REMARK                         _______ _______ _______ _____ _____    ______ ____
ROOT
ATOM      1  N   UNL     1       5.209   5.739  18.391  0.00  0.00    +0.000 N 
ATOM      2  C   UNL     1       6.499   5.559  17.930  0.00  0.00    +0.000 C 
ATOM      3  O   UNL     1       7.282   4.761  18.442  0.00  0.00    +0.000 OA
ATOM      4  H   UNL     1       4.577   6.341  17.882  0.00  0.00    +0.000 HD
ENDROOT
BRANCH   2   5
ATOM      5  C   UNL     1       6.882   6.469  16.734  0.00  0.00    +0.000 C 
ATOM      6  C   UNL     1       7.691   7.656  17.258  0.00  0.00    +0.000 C 
BRANCH   5   7
ATOM      7  O   UNL     1       7.635   5.684  15.804  0.00  0.00    +0.000 OA
BRANCH   7   8
ATOM      8  C   UNL     1       6.988   4.951  14.842  0.00  0.00    +0.000 A 
ATOM      9  C   UNL     1       5.840   4.184  15.063  0.00  0.00    +0.000 A 
ATOM     10  C   UNL     1       5.229   3.491  14.012  0.00  0.00    +0.000 A 
ATOM     11  C   UNL     1       5.767   3.547  12.731  0.00  0.00    +0.000 A 
ATOM     12 CL   UNL     1       5.016   2.676  11.452  0.00  0.00    +0.000 Cl
ATOM     13  C   UNL     1       6.908   4.302  12.484  0.00  0.00    +0.000 A 
ATOM     14  C   UNL     1       7.510   5.005  13.534  0.00  0.00    +0.000 A 
ATOM     15 CL   UNL     1       8.927   5.930  13.170  0.00  0.00    +0.000 Cl
ENDBRANCH   7   8
ENDBRANCH   5   7
ENDBRANCH   2   5
BRANCH   1  16
ATOM     16  C   UNL     1       4.684   5.038  19.550  0.00  0.00    +0.000 C 
BRANCH  16  23
ATOM     17  C   UNL     1       4.496   2.067  20.290  0.00  0.00    +0.000 C 
ATOM     18  C   UNL     1       3.420   2.791  19.526  0.00  0.00    +0.000 A 
ATOM     19  C   UNL     1       2.296   2.051  19.109  0.00  0.00    +0.000 A 
ATOM     20  C   UNL     1       1.276   2.647  18.370  0.00  0.00    +0.000 A 
ATOM     21  C   UNL     1       1.361   3.992  18.035  0.00  0.00    +0.000 A 
ATOM     22  C   UNL     1       2.464   4.741  18.440  0.00  0.00    +0.000 A 
ATOM     23  C   UNL     1       3.504   4.162  19.194  0.00  0.00    +0.000 A 
ENDBRANCH  16  23
ENDBRANCH   1  16
TORSDOF 5
ENDMDL
MODEL 3
REMARK VINA RESULT:      -7.3      6.437      8.459
REMARK  Name = 
REMARK  7 active torsions:
REMARK  status: ('A' for Active; 'I' for Inactive)
REMARK    1  A    between atoms: C_1  and  C_2
REMARK    2  A    between atoms: C_7  and  C_8
REMARK    3  A    between atoms: C_8  and  N_9
REMARK    4  A    between atoms: C_10  and  C_12
REMARK    5  A    between atoms: C_12  and  C_13
REMARK    6  A    between atoms: C_12  and  O_14
REMARK    7  A    between atoms: O_14  and  C_15
REMARK                            x       y       z     vdW  Elec       q    Type
REMARK                         _______ _______ _______ _____ _____    ______ ____
ROOT
ATOM      1  N   UNL     1       2.048   7.006  20.443  0.00  0.00    +0.000 N 
ATOM      2  C   UNL     1       1.703   8.157  19.760  0.00  0.00    +0.000 C 
ATOM      3  O   UNL     1       2.166   8.439  18.657  0.00  0.00    +0.000 OA
ATOM      4  H   UNL     1       1.574   6.776  21.305  0.00  0.00    +0.000 HD
ENDROOT
BRANCH   2   5
ATOM      5  C   UNL     1       0.706   9.073  20.518  0.00  0.00    +0.000 C 
ATOM      6  C   UNL     1       1.223   9.292  21.940  0.00  0.00    +0.000 C 
BRANCH   5   7
ATOM      7  O   UNL     1       0.601  10.305  19.796  0.00  0.00    +0.000 OA
BRANCH   7   8
ATOM      8  C   UNL     1      -0.542  10.596  19.098  0.00  0.00    +0.000 A 
ATOM      9  C   UNL     1      -0.888  10.033  17.866  0.00  0.00    +0.000 A 
ATOM     10  C   UNL     1      -2.094  10.369  17.239  0.00  0.00    +0.000 A 
ATOM     11  C   UNL     1      -2.960  11.281  17.831  0.00  0.00    +0.000 A 
ATOM     12 CL   UNL     1      -4.430  11.698  17.041  0.00  0.00    +0.000 Cl
ATOM     13  C   UNL     1      -2.639  11.856  19.056  0.00  0.00    +0.000 A 
ATOM     14  C   UNL     1      -1.440  11.509  19.688  0.00  0.00    +0.000 A 
ATOM     15 CL   UNL     1      -1.092  12.253  21.211  0.00  0.00    +0.000 Cl
ENDBRANCH   7   8
ENDBRANCH   5   7
ENDBRANCH   2   5
BRANCH   1  16
ATOM     16  C   UNL     1       3.026   6.057  19.938  0.00  0.00    +0.000 C 
BRANCH  16  23
ATOM     17  C   UNL     1       3.740   4.626  17.320  0.00  0.00    +0.000 C 
ATOM     18  C   UNL     1       2.701   4.110  18.279  0.00  0.00    +0.000 A 
ATOM     19  C   UNL     1       2.009   2.934  17.931  0.00  0.00    +0.000 A 
ATOM     20  C   UNL     1       1.012   2.415  18.753  0.00  0.00    +0.000 A 
ATOM     21  C   UNL     1       0.687   3.063  19.938  0.00  0.00    +0.000 A 
ATOM     22  C   UNL     1       1.363   4.227  20.301  0.00  0.00    +0.000 A 
ATOM     23  C   UNL     1       2.380   4.766  19.489  0.00  0.00    +0.000 A 
ENDBRANCH  16  23
ENDBRANCH   1  16
TORSDOF 5
ENDMDL
MODEL 4
REMARK VINA RESULT:      -7.2      3.123      5.257
REMARK  Name = 
REMARK  7 active torsions:
REMARK  status: ('A' for Active; 'I' for Inactive)
REMARK    1  A    between atoms: C_1  and  C_2
REMARK    2  A    between atoms: C_7  and  C_8
REMARK    3  A    between atoms: C_8  and  N_9
REMARK    4  A    between atoms: C_10  and  C_12
REMARK    5  A    between atoms: C_12  and  C_13
REMARK    6  A    between atoms: C_12  and  O_14
REMARK    7  A    between atoms: O_14  and  C_15
REMARK                            x       y       z     vdW  Elec       q    Type
REMARK                         _______ _______ _______ _____ _____    ______ ____
ROOT
ATOM      1  N   UNL     1       3.066   4.939  19.968  0.00  0.00    +0.000 N 
ATOM      2  C   UNL     1       2.818   3.933  19.055  0.00  0.00    +0.000 C 
ATOM      3  O   UNL     1       1.716   3.760  18.540  0.00  0.00    +0.000 OA
ATOM      4  H   UNL     1       4.009   5.095  20.295  0.00  0.00    +0.000 HD
ENDROOT
BRANCH   2   5
ATOM      5  C   UNL     1       4.041   3.025  18.759  0.00  0.00    +0.000 C 
ATOM      6  C   UNL     1       3.539   1.625  18.401  0.00  0.00    +0.000 C 
BRANCH   5   7
ATOM      7  O   UNL     1       4.780   3.614  17.685  0.00  0.00    +0.000 OA
BRANCH   7   8
ATOM      8  C   UNL     1       5.661   4.634  17.937  0.00  0.00    +0.000 A 
ATOM      9  C   UNL     1       6.412   4.768  19.109  0.00  0.00    +0.000 A 
ATOM     10  C   UNL     1       7.311   5.828  19.266  0.00  0.00    +0.000 A 
ATOM     11  C   UNL     1       7.460   6.774  18.258  0.00  0.00    +0.000 A 
ATOM     12 CL   UNL     1       8.556   8.082  18.472  0.00  0.00    +0.000 Cl
ATOM     13  C   UNL     1       6.726   6.665  17.083  0.00  0.00    +0.000 A 
ATOM     14  C   UNL     1       5.837   5.597  16.922  0.00  0.00    +0.000 A 
ATOM     15 CL   UNL     1       4.950   5.508  15.439  0.00  0.00    +0.000 Cl
ENDBRANCH   7   8
ENDBRANCH   5   7
ENDBRANCH   2   5
BRANCH   1  16
ATOM     16  C   UNL     1       2.033   5.847  20.436  0.00  0.00    +0.000 C 
BRANCH  16  23
ATOM     17  C   UNL     1       0.612   8.392  21.392  0.00  0.00    +0.000 C 
ATOM     18  C   UNL     1       1.362   8.313  20.091  0.00  0.00    +0.000 A 
ATOM     19  C   UNL     1       1.376   9.456  19.267  0.00  0.00    +0.000 A 
ATOM     20  C   UNL     1       2.022   9.446  18.033  0.00  0.00    +0.000 A 
ATOM     21  C   UNL     1       2.665   8.295  17.599  0.00  0.00    +0.000 A 
ATOM     22  C   UNL     1       2.664   7.155  18.401  0.00  0.00    +0.000 A 
ATOM     23  C   UNL     1       2.023   7.143  19.655  0.00  0.00    +0.000 A 
ENDBRANCH  16  23
ENDBRANCH   1  16
TORSDOF 5
ENDMDL
MODEL 5
REMARK VINA RESULT:      -7.2      3.618      5.877
REMARK  Name = 
REMARK  7 active torsions:
REMARK  status: ('A' for Active; 'I' for Inactive)
REMARK    1  A    between atoms: C_1  and  C_2
REMARK    2  A    between atoms: C_7  and  C_8
REMARK    3  A    between atoms: C_8  and  N_9
REMARK    4  A    between atoms: C_10  and  C_12
REMARK    5  A    between atoms: C_12  and  C_13
REMARK    6  A    between atoms: C_12  and  O_14
REMARK    7  A    between atoms: O_14  and  C_15
REMARK                            x       y       z     vdW  Elec       q    Type
REMARK                         _______ _______ _______ _____ _____    ______ ____
ROOT
ATOM      1  N   UNL     1       2.158   5.821  21.199  0.00  0.00    +0.000 N 
ATOM      2  C   UNL     1       1.714   4.578  20.787  0.00  0.00    +0.000 C 
ATOM      3  O   UNL     1       0.598   4.399  20.305  0.00  0.00    +0.000 OA
ATOM      4  H   UNL     1       3.115   5.932  21.505  0.00  0.00    +0.000 HD
ENDROOT
BRANCH   2   5
ATOM      5  C   UNL     1       2.732   3.430  21.012  0.00  0.00    +0.000 C 
ATOM      6  C   UNL     1       2.025   2.279  21.729  0.00  0.00    +0.000 C 
BRANCH   5   7
ATOM      7  O   UNL     1       3.236   3.029  19.735  0.00  0.00    +0.000 OA
BRANCH   7   8
ATOM      8  C   UNL     1       4.067   3.863  19.031  0.00  0.00    +0.000 A 
ATOM      9  C   UNL     1       5.183   4.513  19.566  0.00  0.00    +0.000 A 
ATOM     10  C   UNL     1       5.993   5.324  18.763  0.00  0.00    +0.000 A 
ATOM     11  C   UNL     1       5.687   5.506  17.419  0.00  0.00    +0.000 A 
ATOM     12 CL   UNL     1       6.680   6.520  16.448  0.00  0.00    +0.000 Cl
ATOM     13  C   UNL     1       4.582   4.871  16.862  0.00  0.00    +0.000 A 
ATOM     14  C   UNL     1       3.782   4.049  17.663  0.00  0.00    +0.000 A 
ATOM     15 CL   UNL     1       2.421   3.283  16.918  0.00  0.00    +0.000 Cl
ENDBRANCH   7   8
ENDBRANCH   5   7
ENDBRANCH   2   5
BRANCH   1  16
ATOM     16  C   UNL     1       1.326   7.010  21.144  0.00  0.00    +0.000 C 
BRANCH  16  23
ATOM     17  C   UNL     1       0.105   9.783  20.668  0.00  0.00    +0.000 C 
ATOM     18  C   UNL     1       1.077   9.143  19.715  0.00  0.00    +0.000 A 
ATOM     19  C   UNL     1       1.408   9.844  18.539  0.00  0.00    +0.000 A 
ATOM     20  C   UNL     1       2.276   9.299  17.596  0.00  0.00    +0.000 A 
ATOM     21  C   UNL     1       2.829   8.043  17.810  0.00  0.00    +0.000 A 
ATOM     22  C   UNL     1       2.516   7.335  18.969  0.00  0.00    +0.000 A 
ATOM     23  C   UNL     1       1.646   7.869  19.940  0.00  0.00    +0.000 A 
ENDBRANCH  16  23
ENDBRANCH   1  16
TORSDOF 5
ENDMDL
MODEL 6
REMARK VINA RESULT:      -7.0      6.843      8.942
REMARK  Name = 
REMARK  7 active torsions:
REMARK  status: ('A' for Active; 'I' for Inactive)
REMARK    1  A    between atoms: C_1  and  C_2
REMARK    2  A    between atoms: C_7  and  C_8
REMARK    3  A    between atoms: C_8  and  N_9
REMARK    4  A    between atoms: C_10  and  C_12
REMARK    5  A    between atoms: C_12  and  C_13
REMARK    6  A    between atoms: C_12  and  O_14
REMARK    7  A    between atoms: O_14  and  C_15
REMARK                            x       y       z     vdW  Elec       q    Type
REMARK                         _______ _______ _______ _____ _____    ______ ____
ROOT
ATOM      1  N   UNL     1       1.105   8.176  20.828  0.00  0.00    +0.000 N 
ATOM      2  C   UNL     1       0.919   9.152  21.788  0.00  0.00    +0.000 C 
ATOM      3  O   UNL     1       1.738   9.373  22.678  0.00  0.00    +0.000 OA
ATOM      4  H   UNL     1       0.445   8.093  20.067  0.00  0.00    +0.000 HD
ENDROOT
BRANCH   2   5
ATOM      5  C   UNL     1      -0.422   9.922  21.665  0.00  0.00    +0.000 C 
ATOM      6  C   UNL     1      -0.774  10.520  23.027  0.00  0.00    +0.000 C 
BRANCH   5   7
ATOM      7  O   UNL     1      -0.260  10.935  20.667  0.00  0.00    +0.000 OA
BRANCH   7   8
ATOM      8  C   UNL     1      -1.007  10.893  19.518  0.00  0.00    +0.000 A 
ATOM      9  C   UNL     1      -0.733  10.072  18.419  0.00  0.00    +0.000 A 
ATOM     10  C   UNL     1      -1.570  10.073  17.298  0.00  0.00    +0.000 A 
ATOM     11  C   UNL     1      -2.683  10.905  17.257  0.00  0.00    +0.000 A 
ATOM     12 CL   UNL     1      -3.693  10.910  15.865  0.00  0.00    +0.000 Cl
ATOM     13  C   UNL     1      -2.979  11.731  18.336  0.00  0.00    +0.000 A 
ATOM     14  C   UNL     1      -2.148  11.718  19.462  0.00  0.00    +0.000 A 
ATOM     15 CL   UNL     1      -2.563  12.765  20.776  0.00  0.00    +0.000 Cl
ENDBRANCH   7   8
ENDBRANCH   5   7
ENDBRANCH   2   5
BRANCH   1  16
ATOM     16  C   UNL     1       2.259   7.295  20.817  0.00  0.00    +0.000 C 
BRANCH  16  23
ATOM     17  C   UNL     1       3.028   7.056  17.857  0.00  0.00    +0.000 C 
ATOM     18  C   UNL     1       2.361   5.945  18.622  0.00  0.00    +0.000 A 
ATOM     19  C   UNL     1       2.050   4.760  17.928  0.00  0.00    +0.000 A 
ATOM     20  C   UNL     1       1.403   3.702  18.562  0.00  0.00    +0.000 A 
ATOM     21  C   UNL     1       1.054   3.809  19.902  0.00  0.00    +0.000 A 
ATOM     22  C   UNL     1       1.355   4.974  20.607  0.00  0.00    +0.000 A 
ATOM     23  C   UNL     1       2.015   6.054  19.988  0.00  0.00    +0.000 A 
ENDBRANCH  16  23
ENDBRANCH   1  16
TORSDOF 5
ENDMDL
MODEL 7
REMARK VINA RESULT:      -7.0      4.334      7.747
REMARK  Name = 
REMARK  7 active torsions:
REMARK  status: ('A' for Active; 'I' for Inactive)
REMARK    1  A    between atoms: C_1  and  C_2
REMARK    2  A    between atoms: C_7  and  C_8
REMARK    3  A    between atoms: C_8  and  N_9
REMARK    4  A    between atoms: C_10  and  C_12
REMARK    5  A    between atoms: C_12  and  C_13
REMARK    6  A    between atoms: C_12  and  O_14
REMARK    7  A    between atoms: O_14  and  C_15
REMARK                            x       y       z     vdW  Elec       q    Type
REMARK                         _______ _______ _______ _____ _____    ______ ____
ROOT
ATOM      1  N   UNL     1       3.759   4.640  19.045  0.00  0.00    +0.000 N 
ATOM      2  C   UNL     1       2.411   4.556  18.756  0.00  0.00    +0.000 C 
ATOM      3  O   UNL     1       1.987   4.176  17.667  0.00  0.00    +0.000 OA
ATOM      4  H   UNL     1       4.055   4.873  19.983  0.00  0.00    +0.000 HD
ENDROOT
BRANCH   2   5
ATOM      5  C   UNL     1       1.482   5.011  19.912  0.00  0.00    +0.000 C 
ATOM      6  C   UNL     1       1.330   3.856  20.904  0.00  0.00    +0.000 C 
BRANCH   5   7
ATOM      7  O   UNL     1       2.070   6.162  20.526  0.00  0.00    +0.000 OA
BRANCH   7   8
ATOM      8  C   UNL     1       1.388   7.352  20.548  0.00  0.00    +0.000 A 
ATOM      9  C   UNL     1       0.468   7.724  21.532  0.00  0.00    +0.000 A 
ATOM     10  C   UNL     1      -0.159   8.975  21.489  0.00  0.00    +0.000 A 
ATOM     11  C   UNL     1       0.118   9.861  20.454  0.00  0.00    +0.000 A 
ATOM     12 CL   UNL     1      -0.673  11.387  20.404  0.00  0.00    +0.000 Cl
ATOM     13  C   UNL     1       1.029   9.515  19.463  0.00  0.00    +0.000 A 
ATOM     14  C   UNL     1       1.665   8.270  19.514  0.00  0.00    +0.000 A 
ATOM     15 CL   UNL     1       2.791   7.892  18.256  0.00  0.00    +0.000 Cl
ENDBRANCH   7   8
ENDBRANCH   5   7
ENDBRANCH   2   5
BRANCH   1  16
ATOM     16  C   UNL     1       4.792   4.334  18.070  0.00  0.00    +0.000 C 
BRANCH  16  23
ATOM     17  C   UNL     1       5.062   6.516  15.932  0.00  0.00    +0.000 C 
ATOM     18  C   UNL     1       6.024   6.371  17.079  0.00  0.00    +0.000 A 
ATOM     19  C   UNL     1       7.113   7.262  17.144  0.00  0.00    +0.000 A 
ATOM     20  C   UNL     1       8.062   7.167  18.160  0.00  0.00    +0.000 A 
ATOM     21  C   UNL     1       7.940   6.178  19.128  0.00  0.00    +0.000 A 
ATOM     22  C   UNL     1       6.869   5.288  19.081  0.00  0.00    +0.000 A 
ATOM     23  C   UNL     1       5.893   5.370  18.069  0.00  0.00    +0.000 A 
ENDBRANCH  16  23
ENDBRANCH   1  16
TORSDOF 5
ENDMDL
MODEL 8
REMARK VINA RESULT:      -7.0      6.561      9.113
REMARK  Name = 
REMARK  7 active torsions:
REMARK  status: ('A' for Active; 'I' for Inactive)
REMARK    1  A    between atoms: C_1  and  C_2
REMARK    2  A    between atoms: C_7  and  C_8
REMARK    3  A    between atoms: C_8  and  N_9
REMARK    4  A    between atoms: C_10  and  C_12
REMARK    5  A    between atoms: C_12  and  C_13
REMARK    6  A    between atoms: C_12  and  O_14
REMARK    7  A    between atoms: O_14  and  C_15
REMARK                            x       y       z     vdW  Elec       q    Type
REMARK                         _______ _______ _______ _____ _____    ______ ____
ROOT
ATOM      1  N   UNL     1       2.315   7.613  19.231  0.00  0.00    +0.000 N 
ATOM      2  C   UNL     1       2.109   8.610  18.296  0.00  0.00    +0.000 C 
ATOM      3  O   UNL     1       2.599   8.576  17.169  0.00  0.00    +0.000 OA
ATOM      4  H   UNL     1       1.819   7.644  20.110  0.00  0.00    +0.000 HD
ENDROOT
BRANCH   2   5
ATOM      5  C   UNL     1       1.232   9.786  18.801  0.00  0.00    +0.000 C 
ATOM      6  C   UNL     1      -0.100   9.765  18.050  0.00  0.00    +0.000 C 
BRANCH   5   7
ATOM      7  O   UNL     1       1.048   9.627  20.211  0.00  0.00    +0.000 OA
BRANCH   7   8
ATOM      8  C   UNL     1       0.497  10.642  20.950  0.00  0.00    +0.000 A 
ATOM      9  C   UNL     1       0.686  12.004  20.698  0.00  0.00    +0.000 A 
ATOM     10  C   UNL     1       0.058  12.973  21.490  0.00  0.00    +0.000 A 
ATOM     11  C   UNL     1      -0.756  12.589  22.550  0.00  0.00    +0.000 A 
ATOM     12 CL   UNL     1      -1.507  13.790  23.525  0.00  0.00    +0.000 Cl
ATOM     13  C   UNL     1      -0.961  11.241  22.821  0.00  0.00    +0.000 A 
ATOM     14  C   UNL     1      -0.343  10.274  22.021  0.00  0.00    +0.000 A 
ATOM     15 CL   UNL     1      -0.634   8.612  22.403  0.00  0.00    +0.000 Cl
ENDBRANCH   7   8
ENDBRANCH   5   7
ENDBRANCH   2   5
BRANCH   1  16
ATOM     16  C   UNL     1       3.169   6.465  18.979  0.00  0.00    +0.000 C 
BRANCH  16  23
ATOM     17  C   UNL     1       3.299   4.138  16.985  0.00  0.00    +0.000 C 
ATOM     18  C   UNL     1       2.483   4.089  18.248  0.00  0.00    +0.000 A 
ATOM     19  C   UNL     1       1.722   2.930  18.498  0.00  0.00    +0.000 A 
ATOM     20  C   UNL     1       0.917   2.828  19.630  0.00  0.00    +0.000 A 
ATOM     21  C   UNL     1       0.857   3.881  20.533  0.00  0.00    +0.000 A 
ATOM     22  C   UNL     1       1.604   5.035  20.304  0.00  0.00    +0.000 A 
ATOM     23  C   UNL     1       2.431   5.159  19.170  0.00  0.00    +0.000 A 
ENDBRANCH  16  23
ENDBRANCH   1  16
TORSDOF 5
ENDMDL
MODEL 9
REMARK VINA RESULT:      -7.0      3.834      5.388
REMARK  Name = 
REMARK  7 active torsions:
REMARK  status: ('A' for Active; 'I' for Inactive)
REMARK    1  A    between atoms: C_1  and  C_2
REMARK    2  A    between atoms: C_7  and  C_8
REMARK    3  A    between atoms: C_8  and  N_9
REMARK    4  A    between atoms: C_10  and  C_12
REMARK    5  A    between atoms: C_12  and  C_13
REMARK    6  A    between atoms: C_12  and  O_14
REMARK    7  A    between atoms: O_14  and  C_15
REMARK                            x       y       z     vdW  Elec       q    Type
REMARK                         _______ _______ _______ _____ _____    ______ ____
ROOT
ATOM      1  N   UNL     1       2.193   6.550  20.099  0.00  0.00    +0.000 N 
ATOM      2  C   UNL     1       1.878   5.207  20.026  0.00  0.00    +0.000 C 
ATOM      3  O   UNL     1       1.051   4.678  20.766  0.00  0.00    +0.000 OA
ATOM      4  H   UNL     1       2.813   6.956  19.411  0.00  0.00    +0.000 HD
ENDROOT
BRANCH   2   5
ATOM      5  C   UNL     1       2.677   4.422  18.953  0.00  0.00    +0.000 C 
ATOM      6  C   UNL     1       1.850   4.366  17.668  0.00  0.00    +0.000 C 
BRANCH   5   7
ATOM      7  O   UNL     1       3.924   5.093  18.751  0.00  0.00    +0.000 OA
BRANCH   7   8
ATOM      8  C   UNL     1       4.607   4.935  17.572  0.00  0.00    +0.000 A 
ATOM      9  C   UNL     1       5.172   3.734  17.135  0.00  0.00    +0.000 A 
ATOM     10  C   UNL     1       5.827   3.658  15.900  0.00  0.00    +0.000 A 
ATOM     11  C   UNL     1       5.933   4.787  15.095  0.00  0.00    +0.000 A 
ATOM     12 CL   UNL     1       6.755   4.684  13.587  0.00  0.00    +0.000 Cl
ATOM     13  C   UNL     1       5.379   5.993  15.506  0.00  0.00    +0.000 A 
ATOM     14  C   UNL     1       4.714   6.064  16.735  0.00  0.00    +0.000 A 
ATOM     15 CL   UNL     1       4.043   7.590  17.197  0.00  0.00    +0.000 Cl
ENDBRANCH   7   8
ENDBRANCH   5   7
ENDBRANCH   2   5
BRANCH   1  16
ATOM     16  C   UNL     1       1.612   7.441  21.089  0.00  0.00    +0.000 C 
BRANCH  16  23
ATOM     17  C   UNL     1      -0.368   9.302  22.513  0.00  0.00    +0.000 C 
ATOM     18  C   UNL     1       0.119   9.543  21.110  0.00  0.00    +0.000 A 
ATOM     19  C   UNL     1      -0.391  10.659  20.418  0.00  0.00    +0.000 A 
ATOM     20  C   UNL     1      -0.012  10.926  19.104  0.00  0.00    +0.000 A 
ATOM     21  C   UNL     1       0.884  10.084  18.458  0.00  0.00    +0.000 A 
ATOM     22  C   UNL     1       1.401   8.976  19.128  0.00  0.00    +0.000 A 
ATOM     23  C   UNL     1       1.037   8.689  20.458  0.00  0.00    +0.000 A 
ENDBRANCH  16  23
ENDBRANCH   1  16
TORSDOF 5
ENDMDL
