MODEL 1
REMARK VINA RESULT:      -7.1      0.000      0.000
REMARK  Name = 
REMARK  4 active torsions:
REMARK  status: ('A' for Active; 'I' for Inactive)
REMARK    1  A    between atoms: O_1  and  C_2
REMARK    2  A    between atoms: C_2  and  C_3
REMARK    3  A    between atoms: C_3  and  C_4
REMARK    4  A    between atoms: C_6  and  C_7
REMARK                            x       y       z     vdW  Elec       q    Type
REMARK                         _______ _______ _______ _____ _____    ______ ____
ROOT
ATOM      1  C   UNL     1       4.857   5.112  18.912  0.00  0.00    +0.000 A 
ATOM      2  N   UNL     1       4.806   5.370  17.625  0.00  0.00    +0.000 NA
ATOM      3  C   UNL     1       6.020   4.885  17.188  0.00  0.00    +0.000 A 
ATOM      4  N   UNL     1       6.822   4.438  18.165  0.00  0.00    +0.000 NA
ATOM      5  O   UNL     1       6.048   4.584  19.315  0.00  0.00    +0.000 OA
ENDROOT
BRANCH   3   6
ATOM      6  C   UNL     1       6.366   4.775  15.743  0.00  0.00    +0.000 A 
ATOM      7  C   UNL     1       5.887   3.816  14.868  0.00  0.00    +0.000 A 
ATOM      8  C   UNL     1       6.553   4.018  13.633  0.00  0.00    +0.000 A 
ATOM      9  C   UNL     1       7.389   5.094  13.824  0.00  0.00    +0.000 A 
ATOM     10 BR   UNL     1       8.557   5.786  12.546  0.00  0.00    +0.000 Br
ATOM     11  O   UNL     1       7.265   5.574  15.089  0.00  0.00    +0.000 OA
ENDBRANCH   3   6
BRANCH   1  12
ATOM     12  C   UNL     1       3.792   5.238  19.936  0.00  0.00    +0.000 C 
BRANCH  12  13
ATOM     13  C   UNL     1       2.936   3.973  20.062  0.00  0.00    +0.000 C 
ATOM     14  C   UNL     1       1.753   3.903  19.093  0.00  0.00    +0.000 C 
ATOM     15  C   UNL     1       0.798   2.890  19.728  0.00  0.00    +0.000 C 
ATOM     16  C   UNL     1       1.118   2.881  21.223  0.00  0.00    +0.000 C 
ATOM     17  C   UNL     1       2.232   3.906  21.422  0.00  0.00    +0.000 C 
BRANCH  13  18
ATOM     18  O   UNL     1       3.740   2.796  19.941  0.00  0.00    +0.000 OA
ATOM     19  H   UNL     1       4.402   2.949  19.239  0.00  0.00    +0.000 HD
ENDBRANCH  13  18
ENDBRANCH  12  13
ENDBRANCH   1  12
TORSDOF 4
ENDMDL
MODEL 2
REMARK VINA RESULT:      -6.9      1.647      1.887
REMARK  Name = 
REMARK  4 active torsions:
REMARK  status: ('A' for Active; 'I' for Inactive)
REMARK    1  A    between atoms: O_1  and  C_2
REMARK    2  A    between atoms: C_2  and  C_3
REMARK    3  A    between atoms: C_3  and  C_4
REMARK    4  A    between atoms: C_6  and  C_7
REMARK                            x       y       z     vdW  Elec       q    Type
REMARK                         _______ _______ _______ _____ _____    ______ ____
ROOT
ATOM      1  C   UNL     1       4.867   3.242  19.247  0.00  0.00    +0.000 A 
ATOM      2  N   UNL     1       4.744   3.201  17.940  0.00  0.00    +0.000 NA
ATOM      3  C   UNL     1       5.742   4.058  17.532  0.00  0.00    +0.000 A 
ATOM      4  N   UNL     1       6.388   4.673  18.534  0.00  0.00    +0.000 NA
ATOM      5  O   UNL     1       5.809   4.128  19.679  0.00  0.00    +0.000 OA
ENDROOT
BRANCH   3   6
ATOM      6  C   UNL     1       6.136   4.209  16.103  0.00  0.00    +0.000 A 
ATOM      7  C   UNL     1       6.966   5.191  15.593  0.00  0.00    +0.000 A 
ATOM      8  C   UNL     1       6.983   5.025  14.186  0.00  0.00    +0.000 A 
ATOM      9  C   UNL     1       6.173   3.944  13.922  0.00  0.00    +0.000 A 
ATOM     10 BR   UNL     1       5.777   3.289  12.221  0.00  0.00    +0.000 Br
ATOM     11  O   UNL     1       5.677   3.429  15.076  0.00  0.00    +0.000 OA
ENDBRANCH   3   6
BRANCH   1  12
ATOM     12  C   UNL     1       4.193   2.416  20.278  0.00  0.00    +0.000 C 
BRANCH  12  13
ATOM     13  C   UNL     1       2.825   2.975  20.687  0.00  0.00    +0.000 C 
ATOM     14  C   UNL     1       1.656   2.502  19.820  0.00  0.00    +0.000 C 
ATOM     15  C   UNL     1       0.559   3.541  20.057  0.00  0.00    +0.000 C 
ATOM     16  C   UNL     1       1.270   4.817  20.507  0.00  0.00    +0.000 C 
ATOM     17  C   UNL     1       2.763   4.495  20.496  0.00  0.00    +0.000 C 
BRANCH  13  18
ATOM     18  O   UNL     1       2.553   2.708  22.066  0.00  0.00    +0.000 OA
ATOM     19  H   UNL     1       3.051   3.353  22.606  0.00  0.00    +0.000 HD
ENDBRANCH  13  18
ENDBRANCH  12  13
ENDBRANCH   1  12
TORSDOF 4
ENDMDL
MODEL 3
REMARK VINA RESULT:      -6.9      1.326      1.436
REMARK  Name = 
REMARK  4 active torsions:
REMARK  status: ('A' for Active; 'I' for Inactive)
REMARK    1  A    between atoms: O_1  and  C_2
REMARK    2  A    between atoms: C_2  and  C_3
REMARK    3  A    between atoms: C_3  and  C_4
REMARK    4  A    between atoms: C_6  and  C_7
REMARK                            x       y       z     vdW  Elec       q    Type
REMARK                         _______ _______ _______ _____ _____    ______ ____
ROOT
ATOM      1  C   UNL     1       4.368   5.488  18.569  0.00  0.00    +0.000 A 
ATOM      2  N   UNL     1       4.277   5.300  17.272  0.00  0.00    +0.000 NA
ATOM      3  C   UNL     1       5.600   5.175  16.908  0.00  0.00    +0.000 A 
ATOM      4  N   UNL     1       6.471   5.370  17.908  0.00  0.00    +0.000 NA
ATOM      5  O   UNL     1       5.653   5.576  19.018  0.00  0.00    +0.000 OA
ENDROOT
BRANCH   3   6
ATOM      6  C   UNL     1       6.019   4.757  15.540  0.00  0.00    +0.000 A 
ATOM      7  C   UNL     1       7.209   5.097  14.922  0.00  0.00    +0.000 A 
ATOM      8  C   UNL     1       7.148   4.581  13.603  0.00  0.00    +0.000 A 
ATOM      9  C   UNL     1       5.931   3.948  13.499  0.00  0.00    +0.000 A 
ATOM     10 BR   UNL     1       5.278   3.121  11.960  0.00  0.00    +0.000 Br
ATOM     11  O   UNL     1       5.252   4.027  14.673  0.00  0.00    +0.000 OA
ENDBRANCH   3   6
BRANCH   1  12
ATOM     12  C   UNL     1       3.291   5.533  19.587  0.00  0.00    +0.000 C 
BRANCH  12  13
ATOM     13  C   UNL     1       2.719   4.147  19.907  0.00  0.00    +0.000 C 
ATOM     14  C   UNL     1       1.466   3.774  19.112  0.00  0.00    +0.000 C 
ATOM     15  C   UNL     1       0.809   2.662  19.932  0.00  0.00    +0.000 C 
ATOM     16  C   UNL     1       1.300   2.844  21.369  0.00  0.00    +0.000 C 
ATOM     17  C   UNL     1       2.209   4.071  21.351  0.00  0.00    +0.000 C 
BRANCH  13  18
ATOM     18  O   UNL     1       3.716   3.133  19.755  0.00  0.00    +0.000 OA
ATOM     19  H   UNL     1       3.368   2.450  19.149  0.00  0.00    +0.000 HD
ENDBRANCH  13  18
ENDBRANCH  12  13
ENDBRANCH   1  12
TORSDOF 4
ENDMDL
MODEL 4
REMARK VINA RESULT:      -6.8      1.483      1.762
REMARK  Name = 
REMARK  4 active torsions:
REMARK  status: ('A' for Active; 'I' for Inactive)
REMARK    1  A    between atoms: O_1  and  C_2
REMARK    2  A    between atoms: C_2  and  C_3
REMARK    3  A    between atoms: C_3  and  C_4
REMARK    4  A    between atoms: C_6  and  C_7
REMARK                            x       y       z     vdW  Elec       q    Type
REMARK                         _______ _______ _______ _____ _____    ______ ____
ROOT
ATOM      1  C   UNL     1       4.973   4.844  18.887  0.00  0.00    +0.000 A 
ATOM      2  N   UNL     1       4.845   4.996  17.588  0.00  0.00    +0.000 NA
ATOM      3  C   UNL     1       6.108   4.679  17.138  0.00  0.00    +0.000 A 
ATOM      4  N   UNL     1       6.998   4.438  18.111  0.00  0.00    +0.000 NA
ATOM      5  O   UNL     1       6.243   4.544  19.279  0.00  0.00    +0.000 OA
ENDROOT
BRANCH   3   6
ATOM      6  C   UNL     1       6.428   4.520  15.691  0.00  0.00    +0.000 A 
ATOM      7  C   UNL     1       7.375   5.244  14.989  0.00  0.00    +0.000 A 
ATOM      8  C   UNL     1       7.272   4.846  13.633  0.00  0.00    +0.000 A 
ATOM      9  C   UNL     1       6.277   3.897  13.590  0.00  0.00    +0.000 A 
ATOM     10 BR   UNL     1       5.668   3.050  12.044  0.00  0.00    +0.000 Br
ATOM     11  O   UNL     1       5.778   3.674  14.833  0.00  0.00    +0.000 OA
ENDBRANCH   3   6
BRANCH   1  12
ATOM     12  C   UNL     1       3.929   4.875  19.941  0.00  0.00    +0.000 C 
BRANCH  12  13
ATOM     13  C   UNL     1       2.598   4.275  19.476  0.00  0.00    +0.000 C 
ATOM     14  C   UNL     1       1.521   4.192  20.560  0.00  0.00    +0.000 C 
ATOM     15  C   UNL     1       0.540   3.136  20.045  0.00  0.00    +0.000 C 
ATOM     16  C   UNL     1       1.331   2.254  19.079  0.00  0.00    +0.000 C 
ATOM     17  C   UNL     1       2.756   2.803  19.077  0.00  0.00    +0.000 C 
BRANCH  13  18
ATOM     18  O   UNL     1       2.091   4.973  18.334  0.00  0.00    +0.000 OA
ATOM     19  H   UNL     1       2.783   4.972  17.644  0.00  0.00    +0.000 HD
ENDBRANCH  13  18
ENDBRANCH  12  13
ENDBRANCH   1  12
TORSDOF 4
ENDMDL
MODEL 5
REMARK VINA RESULT:      -6.7      1.937      2.194
REMARK  Name = 
REMARK  4 active torsions:
REMARK  status: ('A' for Active; 'I' for Inactive)
REMARK    1  A    between atoms: O_1  and  C_2
REMARK    2  A    between atoms: C_2  and  C_3
REMARK    3  A    between atoms: C_3  and  C_4
REMARK    4  A    between atoms: C_6  and  C_7
REMARK                            x       y       z     vdW  Elec       q    Type
REMARK                         _______ _______ _______ _____ _____    ______ ____
ROOT
ATOM      1  C   UNL     1       5.637   4.362  17.775  0.00  0.00    +0.000 A 
ATOM      2  N   UNL     1       5.095   4.252  16.584  0.00  0.00    +0.000 NA
ATOM      3  C   UNL     1       6.199   4.305  15.762  0.00  0.00    +0.000 A 
ATOM      4  N   UNL     1       7.355   4.533  16.400  0.00  0.00    +0.000 NA
ATOM      5  O   UNL     1       6.985   4.567  17.744  0.00  0.00    +0.000 OA
ENDROOT
BRANCH   3   6
ATOM      6  C   UNL     1       6.123   4.031  14.299  0.00  0.00    +0.000 A 
ATOM      7  C   UNL     1       7.164   4.167  13.397  0.00  0.00    +0.000 A 
ATOM      8  C   UNL     1       6.628   3.909  12.110  0.00  0.00    +0.000 A 
ATOM      9  C   UNL     1       5.296   3.619  12.305  0.00  0.00    +0.000 A 
ATOM     10 BR   UNL     1       4.070   3.245  10.951  0.00  0.00    +0.000 Br
ATOM     11  O   UNL     1       4.988   3.665  13.627  0.00  0.00    +0.000 OA
ENDBRANCH   3   6
BRANCH   1  12
ATOM     12  C   UNL     1       5.007   4.213  19.110  0.00  0.00    +0.000 C 
BRANCH  12  13
ATOM     13  C   UNL     1       3.737   3.355  19.074  0.00  0.00    +0.000 C 
ATOM     14  C   UNL     1       2.475   4.099  18.629  0.00  0.00    +0.000 C 
ATOM     15  C   UNL     1       1.321   3.245  19.158  0.00  0.00    +0.000 C 
ATOM     16  C   UNL     1       1.884   2.449  20.336  0.00  0.00    +0.000 C 
ATOM     17  C   UNL     1       3.343   2.879  20.477  0.00  0.00    +0.000 C 
BRANCH  13  18
ATOM     18  O   UNL     1       3.928   2.189  18.267  0.00  0.00    +0.000 OA
ATOM     19  H   UNL     1       3.422   2.304  17.439  0.00  0.00    +0.000 HD
ENDBRANCH  13  18
ENDBRANCH  12  13
ENDBRANCH   1  12
TORSDOF 4
ENDMDL
MODEL 6
REMARK VINA RESULT:      -6.7      1.500      1.814
REMARK  Name = 
REMARK  4 active torsions:
REMARK  status: ('A' for Active; 'I' for Inactive)
REMARK    1  A    between atoms: O_1  and  C_2
REMARK    2  A    between atoms: C_2  and  C_3
REMARK    3  A    between atoms: C_3  and  C_4
REMARK    4  A    between atoms: C_6  and  C_7
REMARK                            x       y       z     vdW  Elec       q    Type
REMARK                         _______ _______ _______ _____ _____    ______ ____
ROOT
ATOM      1  C   UNL     1       4.527   5.107  18.958  0.00  0.00    +0.000 A 
ATOM      2  N   UNL     1       4.542   5.277  17.655  0.00  0.00    +0.000 NA
ATOM      3  C   UNL     1       5.780   4.778  17.316  0.00  0.00    +0.000 A 
ATOM      4  N   UNL     1       6.533   4.407  18.361  0.00  0.00    +0.000 NA
ATOM      5  O   UNL     1       5.698   4.621  19.458  0.00  0.00    +0.000 OA
ENDROOT
BRANCH   3   6
ATOM      6  C   UNL     1       6.203   4.574  15.902  0.00  0.00    +0.000 A 
ATOM      7  C   UNL     1       7.276   5.192  15.283  0.00  0.00    +0.000 A 
ATOM      8  C   UNL     1       7.249   4.796  13.923  0.00  0.00    +0.000 A 
ATOM      9  C   UNL     1       6.169   3.952  13.795  0.00  0.00    +0.000 A 
ATOM     10 BR   UNL     1       5.610   3.158  12.203  0.00  0.00    +0.000 Br
ATOM     11  O   UNL     1       5.546   3.792  14.991  0.00  0.00    +0.000 OA
ENDBRANCH   3   6
BRANCH   1  12
ATOM     12  C   UNL     1       3.408   5.290  19.914  0.00  0.00    +0.000 C 
BRANCH  12  13
ATOM     13  C   UNL     1       2.441   4.100  19.932  0.00  0.00    +0.000 C 
ATOM     14  C   UNL     1       3.107   2.734  19.753  0.00  0.00    +0.000 C 
ATOM     15  C   UNL     1       1.975   1.815  19.289  0.00  0.00    +0.000 C 
ATOM     16  C   UNL     1       0.923   2.722  18.652  0.00  0.00    +0.000 C 
ATOM     17  C   UNL     1       1.481   4.141  18.738  0.00  0.00    +0.000 C 
BRANCH  13  18
ATOM     18  O   UNL     1       1.644   4.105  21.120  0.00  0.00    +0.000 OA
ATOM     19  H   UNL     1       1.821   4.936  21.603  0.00  0.00    +0.000 HD
ENDBRANCH  13  18
ENDBRANCH  12  13
ENDBRANCH   1  12
TORSDOF 4
ENDMDL
MODEL 7
REMARK VINA RESULT:      -6.7      0.906      1.120
REMARK  Name = 
REMARK  4 active torsions:
REMARK  status: ('A' for Active; 'I' for Inactive)
REMARK    1  A    between atoms: O_1  and  C_2
REMARK    2  A    between atoms: C_2  and  C_3
REMARK    3  A    between atoms: C_3  and  C_4
REMARK    4  A    between atoms: C_6  and  C_7
REMARK                            x       y       z     vdW  Elec       q    Type
REMARK                         _______ _______ _______ _____ _____    ______ ____
ROOT
ATOM      1  C   UNL     1       4.949   5.135  18.897  0.00  0.00    +0.000 A 
ATOM      2  N   UNL     1       4.875   5.375  17.607  0.00  0.00    +0.000 NA
ATOM      3  C   UNL     1       6.097   4.922  17.162  0.00  0.00    +0.000 A 
ATOM      4  N   UNL     1       6.924   4.513  18.134  0.00  0.00    +0.000 NA
ATOM      5  O   UNL     1       6.160   4.649  19.292  0.00  0.00    +0.000 OA
ENDROOT
BRANCH   3   6
ATOM      6  C   UNL     1       6.430   4.805  15.714  0.00  0.00    +0.000 A 
ATOM      7  C   UNL     1       5.985   3.810  14.861  0.00  0.00    +0.000 A 
ATOM      8  C   UNL     1       6.625   4.022  13.614  0.00  0.00    +0.000 A 
ATOM      9  C   UNL     1       7.412   5.139  13.777  0.00  0.00    +0.000 A 
ATOM     10 BR   UNL     1       8.530   5.863  12.472  0.00  0.00    +0.000 Br
ATOM     11  O   UNL     1       7.281   5.634  15.035  0.00  0.00    +0.000 OA
ENDBRANCH   3   6
BRANCH   1  12
ATOM     12  C   UNL     1       3.892   5.242  19.932  0.00  0.00    +0.000 C 
BRANCH  12  13
ATOM     13  C   UNL     1       2.626   4.456  19.571  0.00  0.00    +0.000 C 
ATOM     14  C   UNL     1       1.543   4.457  20.653  0.00  0.00    +0.000 C 
ATOM     15  C   UNL     1       0.667   3.249  20.319  0.00  0.00    +0.000 C 
ATOM     16  C   UNL     1       1.548   2.293  19.514  0.00  0.00    +0.000 C 
ATOM     17  C   UNL     1       2.919   2.959  19.422  0.00  0.00    +0.000 C 
BRANCH  13  18
ATOM     18  O   UNL     1       2.079   4.908  18.329  0.00  0.00    +0.000 OA
ATOM     19  H   UNL     1       2.712   5.532  17.925  0.00  0.00    +0.000 HD
ENDBRANCH  13  18
ENDBRANCH  12  13
ENDBRANCH   1  12
TORSDOF 4
ENDMDL
MODEL 8
REMARK VINA RESULT:      -6.6      1.599      1.786
REMARK  Name = 
REMARK  4 active torsions:
REMARK  status: ('A' for Active; 'I' for Inactive)
REMARK    1  A    between atoms: O_1  and  C_2
REMARK    2  A    between atoms: C_2  and  C_3
REMARK    3  A    between atoms: C_3  and  C_4
REMARK    4  A    between atoms: C_6  and  C_7
REMARK                            x       y       z     vdW  Elec       q    Type
REMARK                         _______ _______ _______ _____ _____    ______ ____
ROOT
ATOM      1  C   UNL     1       5.577   4.882  18.117  0.00  0.00    +0.000 A 
ATOM      2  N   UNL     1       5.289   4.936  16.837  0.00  0.00    +0.000 NA
ATOM      3  C   UNL     1       6.498   4.619  16.258  0.00  0.00    +0.000 A 
ATOM      4  N   UNL     1       7.507   4.471  17.128  0.00  0.00    +0.000 NA
ATOM      5  O   UNL     1       6.895   4.642  18.369  0.00  0.00    +0.000 OA
ENDROOT
BRANCH   3   6
ATOM      6  C   UNL     1       6.645   4.364  14.797  0.00  0.00    +0.000 A 
ATOM      7  C   UNL     1       7.418   5.106  13.922  0.00  0.00    +0.000 A 
ATOM      8  C   UNL     1       7.184   4.584  12.625  0.00  0.00    +0.000 A 
ATOM      9  C   UNL     1       6.293   3.549  12.787  0.00  0.00    +0.000 A 
ATOM     10 BR   UNL     1       5.581   2.518  11.406  0.00  0.00    +0.000 Br
ATOM     11  O   UNL     1       5.981   3.391  14.100  0.00  0.00    +0.000 OA
ENDBRANCH   3   6
BRANCH   1  12
ATOM     12  C   UNL     1       4.669   4.963  19.287  0.00  0.00    +0.000 C 
BRANCH  12  13
ATOM     13  C   UNL     1       3.908   3.656  19.539  0.00  0.00    +0.000 C 
ATOM     14  C   UNL     1       2.887   3.293  18.459  0.00  0.00    +0.000 C 
ATOM     15  C   UNL     1       1.935   2.312  19.147  0.00  0.00    +0.000 C 
ATOM     16  C   UNL     1       2.035   2.600  20.645  0.00  0.00    +0.000 C 
ATOM     17  C   UNL     1       3.023   3.756  20.787  0.00  0.00    +0.000 C 
BRANCH  13  18
ATOM     18  O   UNL     1       4.813   2.568  19.745  0.00  0.00    +0.000 OA
ATOM     19  H   UNL     1       4.414   1.958  20.396  0.00  0.00    +0.000 HD
ENDBRANCH  13  18
ENDBRANCH  12  13
ENDBRANCH   1  12
TORSDOF 4
ENDMDL
MODEL 9
REMARK VINA RESULT:      -6.6      1.827      2.153
REMARK  Name = 
REMARK  4 active torsions:
REMARK  status: ('A' for Active; 'I' for Inactive)
REMARK    1  A    between atoms: O_1  and  C_2
REMARK    2  A    between atoms: C_2  and  C_3
REMARK    3  A    between atoms: C_3  and  C_4
REMARK    4  A    between atoms: C_6  and  C_7
REMARK                            x       y       z     vdW  Elec       q    Type
REMARK                         _______ _______ _______ _____ _____    ______ ____
ROOT
ATOM      1  C   UNL     1       5.643   5.164  17.978  0.00  0.00    +0.000 A 
ATOM      2  N   UNL     1       5.246   5.188  16.726  0.00  0.00    +0.000 NA
ATOM      3  C   UNL     1       6.356   4.713  16.064  0.00  0.00    +0.000 A 
ATOM      4  N   UNL     1       7.420   4.497  16.852  0.00  0.00    +0.000 NA
ATOM      5  O   UNL     1       6.946   4.793  18.129  0.00  0.00    +0.000 OA
ENDROOT
BRANCH   3   6
ATOM      6  C   UNL     1       6.342   4.373  14.613  0.00  0.00    +0.000 A 
ATOM      7  C   UNL     1       7.341   4.672  13.704  0.00  0.00    +0.000 A 
ATOM      8  C   UNL     1       6.870   4.265  12.430  0.00  0.00    +0.000 A 
ATOM      9  C   UNL     1       5.619   3.733  12.639  0.00  0.00    +0.000 A 
ATOM     10 BR   UNL     1       4.494   3.078  11.305  0.00  0.00    +0.000 Br
ATOM     11  O   UNL     1       5.301   3.770  13.960  0.00  0.00    +0.000 OA
ENDBRANCH   3   6
BRANCH   1  12
ATOM     12  C   UNL     1       4.859   5.401  19.215  0.00  0.00    +0.000 C 
BRANCH  12  13
ATOM     13  C   UNL     1       3.554   4.597  19.253  0.00  0.00    +0.000 C 
ATOM     14  C   UNL     1       2.635   4.927  20.432  0.00  0.00    +0.000 C 
ATOM     15  C   UNL     1       1.721   3.707  20.557  0.00  0.00    +0.000 C 
ATOM     16  C   UNL     1       2.478   2.539  19.926  0.00  0.00    +0.000 C 
ATOM     17  C   UNL     1       3.823   3.104  19.473  0.00  0.00    +0.000 C 
BRANCH  13  18
ATOM     18  O   UNL     1       2.837   4.723  18.022  0.00  0.00    +0.000 OA
ATOM     19  H   UNL     1       2.727   3.831  17.640  0.00  0.00    +0.000 HD
ENDBRANCH  13  18
ENDBRANCH  12  13
ENDBRANCH   1  12
TORSDOF 4
ENDMDL
