MODEL 1
REMARK VINA RESULT:      -9.2      0.000      0.000
REMARK  Name = 
REMARK  8 active torsions:
REMARK  status: ('A' for Active; 'I' for Inactive)
REMARK    1  A    between atoms: C_1  and  C_2
REMARK    2  A    between atoms: C_6  and  N_7
REMARK    3  A    between atoms: N_7  and  S_8
REMARK    4  A    between atoms: S_8  and  C_11
REMARK    5  A    between atoms: C_14  and  C_15
REMARK    6  A    between atoms: C_19  and  C_20
REMARK    7  A    between atoms: C_22  and  C_23
REMARK    8  A    between atoms: C_27  and  C_28
REMARK                            x       y       z     vdW  Elec       q    Type
REMARK                         _______ _______ _______ _____ _____    ______ ____
ROOT
ATOM      1  C   UNL     1       1.589   7.885  20.395  0.00  0.00    +0.000 A 
ATOM      2  C   UNL     1       1.652   6.545  20.790  0.00  0.00    +0.000 A 
ATOM      3  C   UNL     1       2.256   5.601  19.946  0.00  0.00    +0.000 A 
ATOM      4  C   UNL     1       2.755   5.981  18.690  0.00  0.00    +0.000 A 
ATOM      5  C   UNL     1       2.591   7.308  18.277  0.00  0.00    +0.000 A 
ATOM      6  C   UNL     1       2.053   8.269  19.136  0.00  0.00    +0.000 A 
ENDROOT
BRANCH   4   7
ATOM      7  C   UNL     1       3.317   4.929  17.788  0.00  0.00    +0.000 C 
ATOM      8  O   UNL     1       2.530   4.088  17.357  0.00  0.00    +0.000 OA
ATOM      9  N   UNL     1       4.664   4.925  17.431  0.00  0.00    +0.000 N 
ATOM     10  C   UNL     1       5.106   4.082  16.314  0.00  0.00    +0.000 C 
ATOM     11  C   UNL     1       5.783   4.971  15.252  0.00  0.00    +0.000 C 
ATOM     12  C   UNL     1       6.304   4.153  14.082  0.00  0.00    +0.000 C 
ATOM     13  O   UNL     1       6.893   5.695  15.833  0.00  0.00    +0.000 OA
ATOM     14  C   UNL     1       6.442   6.543  16.910  0.00  0.00    +0.000 C 
ATOM     15  C   UNL     1       7.633   7.309  17.463  0.00  0.00    +0.000 C 
ATOM     16  C   UNL     1       5.770   5.697  18.011  0.00  0.00    +0.000 C 
ENDBRANCH   4   7
BRANCH   1  17
ATOM     17  S   UNL     1       0.786   9.089  21.431  0.00  0.00    +0.000 S 
ATOM     18  O   UNL     1       1.643   9.370  22.560  0.00  0.00    +0.000 OA
ATOM     19  O   UNL     1      -0.576   8.640  21.623  0.00  0.00    +0.000 OA
BRANCH  17  20
ATOM     20  N   UNL     1       0.676  10.439  20.428  0.00  0.00    +0.000 N 
ATOM     21  H   UNL     1       1.270  10.338  19.606  0.00  0.00    +0.000 HD
BRANCH  20  27
ATOM     22  C   UNL     1      -3.420  11.498  17.702  0.00  0.00    +0.000 C 
ATOM     23  C   UNL     1      -2.563  11.620  18.936  0.00  0.00    +0.000 A 
ATOM     24  C   UNL     1      -2.990  12.468  19.969  0.00  0.00    +0.000 A 
ATOM     25  C   UNL     1      -2.233  12.612  21.129  0.00  0.00    +0.000 A 
ATOM     26  C   UNL     1      -1.036  11.916  21.267  0.00  0.00    +0.000 A 
ATOM     27  C   UNL     1      -0.584  11.079  20.244  0.00  0.00    +0.000 A 
ATOM     28  C   UNL     1      -1.343  10.911  19.068  0.00  0.00    +0.000 A 
ATOM     29  C   UNL     1      -0.891  10.016  17.942  0.00  0.00    +0.000 C 
ENDBRANCH  20  27
ENDBRANCH  17  20
ENDBRANCH   1  17
TORSDOF 4
ENDMDL
MODEL 2
REMARK VINA RESULT:      -9.1      0.446      1.486
REMARK  Name = 
REMARK  8 active torsions:
REMARK  status: ('A' for Active; 'I' for Inactive)
REMARK    1  A    between atoms: C_1  and  C_2
REMARK    2  A    between atoms: C_6  and  N_7
REMARK    3  A    between atoms: N_7  and  S_8
REMARK    4  A    between atoms: S_8  and  C_11
REMARK    5  A    between atoms: C_14  and  C_15
REMARK    6  A    between atoms: C_19  and  C_20
REMARK    7  A    between atoms: C_22  and  C_23
REMARK    8  A    between atoms: C_27  and  C_28
REMARK                            x       y       z     vdW  Elec       q    Type
REMARK                         _______ _______ _______ _____ _____    ______ ____
ROOT
ATOM      1  C   UNL     1       1.573   7.892  20.418  0.00  0.00    +0.000 A 
ATOM      2  C   UNL     1       1.614   6.548  20.800  0.00  0.00    +0.000 A 
ATOM      3  C   UNL     1       2.210   5.603  19.950  0.00  0.00    +0.000 A 
ATOM      4  C   UNL     1       2.723   5.987  18.702  0.00  0.00    +0.000 A 
ATOM      5  C   UNL     1       2.581   7.321  18.301  0.00  0.00    +0.000 A 
ATOM      6  C   UNL     1       2.052   8.281  19.166  0.00  0.00    +0.000 A 
ENDROOT
BRANCH   4   7
ATOM      7  C   UNL     1       3.274   4.936  17.793  0.00  0.00    +0.000 C 
ATOM      8  O   UNL     1       2.480   4.104  17.358  0.00  0.00    +0.000 OA
ATOM      9  N   UNL     1       4.621   4.924  17.434  0.00  0.00    +0.000 N 
ATOM     10  C   UNL     1       5.055   4.083  16.312  0.00  0.00    +0.000 C 
ATOM     11  C   UNL     1       5.738   4.973  15.255  0.00  0.00    +0.000 C 
ATOM     12  C   UNL     1       6.252   4.157  14.079  0.00  0.00    +0.000 C 
ATOM     13  O   UNL     1       6.854   5.684  15.839  0.00  0.00    +0.000 OA
ATOM     14  C   UNL     1       6.412   6.530  16.921  0.00  0.00    +0.000 C 
ATOM     15  C   UNL     1       7.610   7.283  17.477  0.00  0.00    +0.000 C 
ATOM     16  C   UNL     1       5.734   5.683  18.018  0.00  0.00    +0.000 C 
ENDBRANCH   4   7
BRANCH   1  17
ATOM     17  S   UNL     1       0.781   9.098  21.461  0.00  0.00    +0.000 S 
ATOM     18  O   UNL     1       1.599   9.300  22.635  0.00  0.00    +0.000 OA
ATOM     19  O   UNL     1      -0.608   8.709  21.576  0.00  0.00    +0.000 OA
BRANCH  17  20
ATOM     20  N   UNL     1       0.779  10.485  20.503  0.00  0.00    +0.000 N 
ATOM     21  H   UNL     1       1.616  10.534  19.923  0.00  0.00    +0.000 HD
BRANCH  20  27
ATOM     22  C   UNL     1      -3.462  13.192  20.607  0.00  0.00    +0.000 C 
ATOM     23  C   UNL     1      -2.506  12.223  19.960  0.00  0.00    +0.000 A 
ATOM     24  C   UNL     1      -2.851  11.669  18.717  0.00  0.00    +0.000 A 
ATOM     25  C   UNL     1      -1.999  10.772  18.079  0.00  0.00    +0.000 A 
ATOM     26  C   UNL     1      -0.796  10.411  18.678  0.00  0.00    +0.000 A 
ATOM     27  C   UNL     1      -0.441  10.938  19.922  0.00  0.00    +0.000 A 
ATOM     28  C   UNL     1      -1.284  11.858  20.578  0.00  0.00    +0.000 A 
ATOM     29  C   UNL     1      -0.936  12.451  21.919  0.00  0.00    +0.000 C 
ENDBRANCH  20  27
ENDBRANCH  17  20
ENDBRANCH   1  17
TORSDOF 4
ENDMDL
MODEL 3
REMARK VINA RESULT:      -9.1      1.030      1.854
REMARK  Name = 
REMARK  8 active torsions:
REMARK  status: ('A' for Active; 'I' for Inactive)
REMARK    1  A    between atoms: C_1  and  C_2
REMARK    2  A    between atoms: C_6  and  N_7
REMARK    3  A    between atoms: N_7  and  S_8
REMARK    4  A    between atoms: S_8  and  C_11
REMARK    5  A    between atoms: C_14  and  C_15
REMARK    6  A    between atoms: C_19  and  C_20
REMARK    7  A    between atoms: C_22  and  C_23
REMARK    8  A    between atoms: C_27  and  C_28
REMARK                            x       y       z     vdW  Elec       q    Type
REMARK                         _______ _______ _______ _____ _____    ______ ____
ROOT
ATOM      1  C   UNL     1       1.418   8.877  19.747  0.00  0.00    +0.000 A 
ATOM      2  C   UNL     1       1.590   7.668  20.428  0.00  0.00    +0.000 A 
ATOM      3  C   UNL     1       2.272   6.612  19.805  0.00  0.00    +0.000 A 
ATOM      4  C   UNL     1       2.743   6.743  18.490  0.00  0.00    +0.000 A 
ATOM      5  C   UNL     1       2.471   7.927  17.795  0.00  0.00    +0.000 A 
ATOM      6  C   UNL     1       1.854   9.008  18.428  0.00  0.00    +0.000 A 
ENDROOT
BRANCH   4   7
ATOM      7  C   UNL     1       3.391   5.566  17.834  0.00  0.00    +0.000 C 
ATOM      8  O   UNL     1       2.650   4.657  17.463  0.00  0.00    +0.000 OA
ATOM      9  N   UNL     1       4.769   5.520  17.629  0.00  0.00    +0.000 N 
ATOM     10  C   UNL     1       5.324   4.512  16.717  0.00  0.00    +0.000 C 
ATOM     11  C   UNL     1       6.116   5.226  15.604  0.00  0.00    +0.000 C 
ATOM     12  C   UNL     1       6.756   4.237  14.644  0.00  0.00    +0.000 C 
ATOM     13  O   UNL     1       7.162   6.047  16.176  0.00  0.00    +0.000 OA
ATOM     14  C   UNL     1       6.603   7.052  17.047  0.00  0.00    +0.000 C 
ATOM     15  C   UNL     1       7.733   7.911  17.594  0.00  0.00    +0.000 C 
ATOM     16  C   UNL     1       5.811   6.387  18.193  0.00  0.00    +0.000 C 
ENDBRANCH   4   7
BRANCH   1  17
ATOM     17  S   UNL     1       0.515  10.212  20.503  0.00  0.00    +0.000 S 
ATOM     18  O   UNL     1       1.418  10.956  21.352  0.00  0.00    +0.000 OA
ATOM     19  O   UNL     1      -0.710   9.650  21.028  0.00  0.00    +0.000 OA
BRANCH  17  20
ATOM     20  N   UNL     1       0.049  11.149  19.182  0.00  0.00    +0.000 N 
ATOM     21  H   UNL     1       0.813  11.257  18.517  0.00  0.00    +0.000 HD
BRANCH  20  27
ATOM     22  C   UNL     1      -4.846  12.311  19.024  0.00  0.00    +0.000 C 
ATOM     23  C   UNL     1      -3.637  11.537  18.565  0.00  0.00    +0.000 A 
ATOM     24  C   UNL     1      -3.804  10.556  17.576  0.00  0.00    +0.000 A 
ATOM     25  C   UNL     1      -2.716   9.816  17.119  0.00  0.00    +0.000 A 
ATOM     26  C   UNL     1      -1.449  10.044  17.649  0.00  0.00    +0.000 A 
ATOM     27  C   UNL     1      -1.264  11.005  18.645  0.00  0.00    +0.000 A 
ATOM     28  C   UNL     1      -2.350  11.773  19.112  0.00  0.00    +0.000 A 
ATOM     29  C   UNL     1      -2.192  12.820  20.185  0.00  0.00    +0.000 C 
ENDBRANCH  20  27
ENDBRANCH  17  20
ENDBRANCH   1  17
TORSDOF 4
ENDMDL
MODEL 4
REMARK VINA RESULT:      -8.8      0.965      1.103
REMARK  Name = 
REMARK  8 active torsions:
REMARK  status: ('A' for Active; 'I' for Inactive)
REMARK    1  A    between atoms: C_1  and  C_2
REMARK    2  A    between atoms: C_6  and  N_7
REMARK    3  A    between atoms: N_7  and  S_8
REMARK    4  A    between atoms: S_8  and  C_11
REMARK    5  A    between atoms: C_14  and  C_15
REMARK    6  A    between atoms: C_19  and  C_20
REMARK    7  A    between atoms: C_22  and  C_23
REMARK    8  A    between atoms: C_27  and  C_28
REMARK                            x       y       z     vdW  Elec       q    Type
REMARK                         _______ _______ _______ _____ _____    ______ ____
ROOT
ATOM      1  C   UNL     1       1.358   8.952  19.875  0.00  0.00    +0.000 A 
ATOM      2  C   UNL     1       1.613   7.774  20.585  0.00  0.00    +0.000 A 
ATOM      3  C   UNL     1       2.241   6.698  19.939  0.00  0.00    +0.000 A 
ATOM      4  C   UNL     1       2.573   6.777  18.578  0.00  0.00    +0.000 A 
ATOM      5  C   UNL     1       2.218   7.928  17.867  0.00  0.00    +0.000 A 
ATOM      6  C   UNL     1       1.655   9.030  18.514  0.00  0.00    +0.000 A 
ENDROOT
BRANCH   4   7
ATOM      7  C   UNL     1       3.166   5.578  17.909  0.00  0.00    +0.000 C 
ATOM      8  O   UNL     1       2.387   4.691  17.565  0.00  0.00    +0.000 OA
ATOM      9  N   UNL     1       4.535   5.490  17.662  0.00  0.00    +0.000 N 
ATOM     10  C   UNL     1       5.030   4.462  16.738  0.00  0.00    +0.000 C 
ATOM     11  C   UNL     1       5.809   5.148  15.598  0.00  0.00    +0.000 C 
ATOM     12  C   UNL     1       6.389   4.136  14.624  0.00  0.00    +0.000 C 
ATOM     13  O   UNL     1       6.896   5.939  16.134  0.00  0.00    +0.000 OA
ATOM     14  C   UNL     1       6.395   6.965  17.017  0.00  0.00    +0.000 C 
ATOM     15  C   UNL     1       7.566   7.791  17.524  0.00  0.00    +0.000 C 
ATOM     16  C   UNL     1       5.619   6.328  18.189  0.00  0.00    +0.000 C 
ENDBRANCH   4   7
BRANCH   1  17
ATOM     17  S   UNL     1       0.521  10.311  20.664  0.00  0.00    +0.000 S 
ATOM     18  O   UNL     1       1.497  11.098  21.383  0.00  0.00    +0.000 OA
ATOM     19  O   UNL     1      -0.636   9.762  21.336  0.00  0.00    +0.000 OA
BRANCH  17  20
ATOM     20  N   UNL     1      -0.091  11.186  19.360  0.00  0.00    +0.000 N 
ATOM     21  H   UNL     1       0.336  10.892  18.484  0.00  0.00    +0.000 HD
BRANCH  20  27
ATOM     22  C   UNL     1      -4.668  10.986  17.276  0.00  0.00    +0.000 C 
ATOM     23  C   UNL     1      -3.692  11.456  18.324  0.00  0.00    +0.000 A 
ATOM     24  C   UNL     1      -4.146  12.337  19.318  0.00  0.00    +0.000 A 
ATOM     25  C   UNL     1      -3.283  12.797  20.308  0.00  0.00    +0.000 A 
ATOM     26  C   UNL     1      -1.953  12.386  20.315  0.00  0.00    +0.000 A 
ATOM     27  C   UNL     1      -1.476  11.523  19.326  0.00  0.00    +0.000 A 
ATOM     28  C   UNL     1      -2.338  11.037  18.321  0.00  0.00    +0.000 A 
ATOM     29  C   UNL     1      -1.863  10.102  17.238  0.00  0.00    +0.000 C 
ENDBRANCH  20  27
ENDBRANCH  17  20
ENDBRANCH   1  17
TORSDOF 4
ENDMDL
MODEL 5
REMARK VINA RESULT:      -8.7      1.617      2.274
REMARK  Name = 
REMARK  8 active torsions:
REMARK  status: ('A' for Active; 'I' for Inactive)
REMARK    1  A    between atoms: C_1  and  C_2
REMARK    2  A    between atoms: C_6  and  N_7
REMARK    3  A    between atoms: N_7  and  S_8
REMARK    4  A    between atoms: S_8  and  C_11
REMARK    5  A    between atoms: C_14  and  C_15
REMARK    6  A    between atoms: C_19  and  C_20
REMARK    7  A    between atoms: C_22  and  C_23
REMARK    8  A    between atoms: C_27  and  C_28
REMARK                            x       y       z     vdW  Elec       q    Type
REMARK                         _______ _______ _______ _____ _____    ______ ____
ROOT
ATOM      1  C   UNL     1       1.536   7.733  20.479  0.00  0.00    +0.000 A 
ATOM      2  C   UNL     1       1.663   6.382  20.815  0.00  0.00    +0.000 A 
ATOM      3  C   UNL     1       2.337   5.511  19.944  0.00  0.00    +0.000 A 
ATOM      4  C   UNL     1       2.843   5.975  18.721  0.00  0.00    +0.000 A 
ATOM      5  C   UNL     1       2.616   7.309  18.364  0.00  0.00    +0.000 A 
ATOM      6  C   UNL     1       2.008   8.199  19.251  0.00  0.00    +0.000 A 
ENDROOT
BRANCH   4   7
ATOM      7  C   UNL     1       3.482   4.998  17.786  0.00  0.00    +0.000 C 
ATOM      8  O   UNL     1       2.746   4.153  17.277  0.00  0.00    +0.000 OA
ATOM      9  N   UNL     1       4.841   5.065  17.487  0.00  0.00    +0.000 N 
ATOM     10  C   UNL     1       5.361   4.302  16.345  0.00  0.00    +0.000 C 
ATOM     11  C   UNL     1       6.044   5.275  15.363  0.00  0.00    +0.000 C 
ATOM     12  C   UNL     1       6.644   4.545  14.173  0.00  0.00    +0.000 C 
ATOM     13  O   UNL     1       7.100   6.006  16.030  0.00  0.00    +0.000 OA
ATOM     14  C   UNL     1       6.574   6.774  17.131  0.00  0.00    +0.000 C 
ATOM     15  C   UNL     1       7.710   7.552  17.776  0.00  0.00    +0.000 C 
ATOM     16  C   UNL     1       5.892   5.843  18.155  0.00  0.00    +0.000 C 
ENDBRANCH   4   7
BRANCH   1  17
ATOM     17  S   UNL     1       0.645   8.844  21.548  0.00  0.00    +0.000 S 
ATOM     18  O   UNL     1       1.563   9.374  22.530  0.00  0.00    +0.000 OA
ATOM     19  O   UNL     1      -0.566   8.161  21.950  0.00  0.00    +0.000 OA
BRANCH  17  20
ATOM     20  N   UNL     1       0.144  10.062  20.496  0.00  0.00    +0.000 N 
ATOM     21  H   UNL     1      -0.776   9.861  20.109  0.00  0.00    +0.000 HD
BRANCH  20  27
ATOM     22  C   UNL     1      -0.770  14.363  22.943  0.00  0.00    +0.000 C 
ATOM     23  C   UNL     1       0.000  13.517  21.962  0.00  0.00    +0.000 A 
ATOM     24  C   UNL     1       1.051  14.110  21.245  0.00  0.00    +0.000 A 
ATOM     25  C   UNL     1       1.792  13.368  20.328  0.00  0.00    +0.000 A 
ATOM     26  C   UNL     1       1.488  12.027  20.113  0.00  0.00    +0.000 A 
ATOM     27  C   UNL     1       0.436  11.422  20.804  0.00  0.00    +0.000 A 
ATOM     28  C   UNL     1      -0.318  12.153  21.745  0.00  0.00    +0.000 A 
ATOM     29  C   UNL     1      -1.459  11.537  22.513  0.00  0.00    +0.000 C 
ENDBRANCH  20  27
ENDBRANCH  17  20
ENDBRANCH   1  17
TORSDOF 4
ENDMDL
MODEL 6
REMARK VINA RESULT:      -8.6      1.534      1.930
REMARK  Name = 
REMARK  8 active torsions:
REMARK  status: ('A' for Active; 'I' for Inactive)
REMARK    1  A    between atoms: C_1  and  C_2
REMARK    2  A    between atoms: C_6  and  N_7
REMARK    3  A    between atoms: N_7  and  S_8
REMARK    4  A    between atoms: S_8  and  C_11
REMARK    5  A    between atoms: C_14  and  C_15
REMARK    6  A    between atoms: C_19  and  C_20
REMARK    7  A    between atoms: C_22  and  C_23
REMARK    8  A    between atoms: C_27  and  C_28
REMARK                            x       y       z     vdW  Elec       q    Type
REMARK                         _______ _______ _______ _____ _____    ______ ____
ROOT
ATOM      1  C   UNL     1       1.487   7.733  20.454  0.00  0.00    +0.000 A 
ATOM      2  C   UNL     1       1.593   6.383  20.803  0.00  0.00    +0.000 A 
ATOM      3  C   UNL     1       2.247   5.492  19.938  0.00  0.00    +0.000 A 
ATOM      4  C   UNL     1       2.753   5.935  18.707  0.00  0.00    +0.000 A 
ATOM      5  C   UNL     1       2.546   7.269  18.337  0.00  0.00    +0.000 A 
ATOM      6  C   UNL     1       1.959   8.178  19.219  0.00  0.00    +0.000 A 
ENDROOT
BRANCH   4   7
ATOM      7  C   UNL     1       3.369   4.937  17.778  0.00  0.00    +0.000 C 
ATOM      8  O   UNL     1       2.621   4.086  17.301  0.00  0.00    +0.000 OA
ATOM      9  N   UNL     1       4.722   4.994  17.449  0.00  0.00    +0.000 N 
ATOM     10  C   UNL     1       5.215   4.208  16.312  0.00  0.00    +0.000 C 
ATOM     11  C   UNL     1       5.881   5.159  15.297  0.00  0.00    +0.000 C 
ATOM     12  C   UNL     1       6.454   4.403  14.109  0.00  0.00    +0.000 C 
ATOM     13  O   UNL     1       6.953   5.899  15.927  0.00  0.00    +0.000 OA
ATOM     14  C   UNL     1       6.451   6.691  17.024  0.00  0.00    +0.000 C 
ATOM     15  C   UNL     1       7.604   7.477  17.629  0.00  0.00    +0.000 C 
ATOM     16  C   UNL     1       5.788   5.781  18.080  0.00  0.00    +0.000 C 
ENDBRANCH   4   7
BRANCH   1  17
ATOM     17  S   UNL     1       0.621   8.869  21.517  0.00  0.00    +0.000 S 
ATOM     18  O   UNL     1       1.569   9.447  22.443  0.00  0.00    +0.000 OA
ATOM     19  O   UNL     1      -0.563   8.186  21.991  0.00  0.00    +0.000 OA
BRANCH  17  20
ATOM     20  N   UNL     1       0.062  10.041  20.443  0.00  0.00    +0.000 N 
ATOM     21  H   UNL     1      -0.767   9.721  19.945  0.00  0.00    +0.000 HD
BRANCH  20  27
ATOM     22  C   UNL     1       1.761  14.748  19.903  0.00  0.00    +0.000 C 
ATOM     23  C   UNL     1       0.928  13.694  20.586  0.00  0.00    +0.000 A 
ATOM     24  C   UNL     1       0.174  14.060  21.712  0.00  0.00    +0.000 A 
ATOM     25  C   UNL     1      -0.613  13.122  22.375  0.00  0.00    +0.000 A 
ATOM     26  C   UNL     1      -0.650  11.805  21.925  0.00  0.00    +0.000 A 
ATOM     27  C   UNL     1       0.105  11.416  20.817  0.00  0.00    +0.000 A 
ATOM     28  C   UNL     1       0.898  12.354  20.124  0.00  0.00    +0.000 A 
ATOM     29  C   UNL     1       1.725  11.975  18.923  0.00  0.00    +0.000 C 
ENDBRANCH  20  27
ENDBRANCH  17  20
ENDBRANCH   1  17
TORSDOF 4
ENDMDL
MODEL 7
REMARK VINA RESULT:      -8.4      2.310      2.581
REMARK  Name = 
REMARK  8 active torsions:
REMARK  status: ('A' for Active; 'I' for Inactive)
REMARK    1  A    between atoms: C_1  and  C_2
REMARK    2  A    between atoms: C_6  and  N_7
REMARK    3  A    between atoms: N_7  and  S_8
REMARK    4  A    between atoms: S_8  and  C_11
REMARK    5  A    between atoms: C_14  and  C_15
REMARK    6  A    between atoms: C_19  and  C_20
REMARK    7  A    between atoms: C_22  and  C_23
REMARK    8  A    between atoms: C_27  and  C_28
REMARK                            x       y       z     vdW  Elec       q    Type
REMARK                         _______ _______ _______ _____ _____    ______ ____
ROOT
ATOM      1  C   UNL     1       1.360   9.133  19.721  0.00  0.00    +0.000 A 
ATOM      2  C   UNL     1       1.589   7.981  20.480  0.00  0.00    +0.000 A 
ATOM      3  C   UNL     1       2.197   6.866  19.883  0.00  0.00    +0.000 A 
ATOM      4  C   UNL     1       2.534   6.881  18.521  0.00  0.00    +0.000 A 
ATOM      5  C   UNL     1       2.205   8.009  17.760  0.00  0.00    +0.000 A 
ATOM      6  C   UNL     1       1.663   9.148  18.359  0.00  0.00    +0.000 A 
ENDROOT
BRANCH   4   7
ATOM      7  C   UNL     1       3.104   5.643  17.905  0.00  0.00    +0.000 C 
ATOM      8  O   UNL     1       2.307   4.761  17.590  0.00  0.00    +0.000 OA
ATOM      9  N   UNL     1       4.473   5.514  17.672  0.00  0.00    +0.000 N 
ATOM     10  C   UNL     1       4.951   4.440  16.794  0.00  0.00    +0.000 C 
ATOM     11  C   UNL     1       5.754   5.062  15.634  0.00  0.00    +0.000 C 
ATOM     12  C   UNL     1       6.318   3.998  14.706  0.00  0.00    +0.000 C 
ATOM     13  O   UNL     1       6.854   5.849  16.147  0.00  0.00    +0.000 OA
ATOM     14  C   UNL     1       6.371   6.919  16.984  0.00  0.00    +0.000 C 
ATOM     15  C   UNL     1       7.556   7.739  17.468  0.00  0.00    +0.000 C 
ATOM     16  C   UNL     1       5.571   6.348  18.174  0.00  0.00    +0.000 C 
ENDBRANCH   4   7
BRANCH   1  17
ATOM     17  S   UNL     1       0.549  10.541  20.449  0.00  0.00    +0.000 S 
ATOM     18  O   UNL     1       1.512  11.265  21.247  0.00  0.00    +0.000 OA
ATOM     19  O   UNL     1      -0.690  10.063  21.024  0.00  0.00    +0.000 OA
BRANCH  17  20
ATOM     20  N   UNL     1       0.097  11.453  19.106  0.00  0.00    +0.000 N 
ATOM     21  H   UNL     1      -0.750  11.084  18.676  0.00  0.00    +0.000 HD
BRANCH  20  27
ATOM     22  C   UNL     1       2.733  15.669  18.326  0.00  0.00    +0.000 C 
ATOM     23  C   UNL     1       1.509  14.920  18.785  0.00  0.00    +0.000 A 
ATOM     24  C   UNL     1       0.445  15.648  19.340  0.00  0.00    +0.000 A 
ATOM     25  C   UNL     1      -0.708  15.000  19.777  0.00  0.00    +0.000 A 
ATOM     26  C   UNL     1      -0.809  13.616  19.670  0.00  0.00    +0.000 A 
ATOM     27  C   UNL     1       0.245  12.871  19.135  0.00  0.00    +0.000 A 
ATOM     28  C   UNL     1       1.415  13.509  18.676  0.00  0.00    +0.000 A 
ATOM     29  C   UNL     1       2.572  12.741  18.092  0.00  0.00    +0.000 C 
ENDBRANCH  20  27
ENDBRANCH  17  20
ENDBRANCH   1  17
TORSDOF 4
ENDMDL
MODEL 8
REMARK VINA RESULT:      -8.4      2.539      3.044
REMARK  Name = 
REMARK  8 active torsions:
REMARK  status: ('A' for Active; 'I' for Inactive)
REMARK    1  A    between atoms: C_1  and  C_2
REMARK    2  A    between atoms: C_6  and  N_7
REMARK    3  A    between atoms: N_7  and  S_8
REMARK    4  A    between atoms: S_8  and  C_11
REMARK    5  A    between atoms: C_14  and  C_15
REMARK    6  A    between atoms: C_19  and  C_20
REMARK    7  A    between atoms: C_22  and  C_23
REMARK    8  A    between atoms: C_27  and  C_28
REMARK                            x       y       z     vdW  Elec       q    Type
REMARK                         _______ _______ _______ _____ _____    ______ ____
ROOT
ATOM      1  C   UNL     1       1.353   9.296  19.591  0.00  0.00    +0.000 A 
ATOM      2  C   UNL     1       1.561   8.169  20.393  0.00  0.00    +0.000 A 
ATOM      3  C   UNL     1       2.163   7.027  19.842  0.00  0.00    +0.000 A 
ATOM      4  C   UNL     1       2.516   6.990  18.485  0.00  0.00    +0.000 A 
ATOM      5  C   UNL     1       2.207   8.094  17.681  0.00  0.00    +0.000 A 
ATOM      6  C   UNL     1       1.671   9.259  18.233  0.00  0.00    +0.000 A 
ENDROOT
BRANCH   4   7
ATOM      7  C   UNL     1       3.079   5.726  17.919  0.00  0.00    +0.000 C 
ATOM      8  O   UNL     1       2.277   4.839  17.632  0.00  0.00    +0.000 OA
ATOM      9  N   UNL     1       4.448   5.577  17.701  0.00  0.00    +0.000 N 
ATOM     10  C   UNL     1       4.923   4.466  16.868  0.00  0.00    +0.000 C 
ATOM     11  C   UNL     1       5.739   5.037  15.691  0.00  0.00    +0.000 C 
ATOM     12  C   UNL     1       6.300   3.935  14.807  0.00  0.00    +0.000 C 
ATOM     13  O   UNL     1       6.843   5.834  16.182  0.00  0.00    +0.000 OA
ATOM     14  C   UNL     1       6.363   6.939  16.975  0.00  0.00    +0.000 C 
ATOM     15  C   UNL     1       7.553   7.766  17.437  0.00  0.00    +0.000 C 
ATOM     16  C   UNL     1       5.551   6.419  18.180  0.00  0.00    +0.000 C 
ENDBRANCH   4   7
BRANCH   1  17
ATOM     17  S   UNL     1       0.549  10.736  20.259  0.00  0.00    +0.000 S 
ATOM     18  O   UNL     1       1.432  11.349  21.226  0.00  0.00    +0.000 OA
ATOM     19  O   UNL     1      -0.795  10.341  20.621  0.00  0.00    +0.000 OA
BRANCH  17  20
ATOM     20  N   UNL     1       0.376  11.733  18.911  0.00  0.00    +0.000 N 
ATOM     21  H   UNL     1      -0.591  11.757  18.592  0.00  0.00    +0.000 HD
BRANCH  20  27
ATOM     22  C   UNL     1       0.826  16.712  19.490  0.00  0.00    +0.000 C 
ATOM     23  C   UNL     1       1.349  15.357  19.087  0.00  0.00    +0.000 A 
ATOM     24  C   UNL     1       2.638  15.270  18.539  0.00  0.00    +0.000 A 
ATOM     25  C   UNL     1       3.165  14.040  18.153  0.00  0.00    +0.000 A 
ATOM     26  C   UNL     1       2.407  12.882  18.305  0.00  0.00    +0.000 A 
ATOM     27  C   UNL     1       1.116  12.948  18.834  0.00  0.00    +0.000 A 
ATOM     28  C   UNL     1       0.570  14.183  19.242  0.00  0.00    +0.000 A 
ATOM     29  C   UNL     1      -0.818  14.296  19.818  0.00  0.00    +0.000 C 
ENDBRANCH  20  27
ENDBRANCH  17  20
ENDBRANCH   1  17
TORSDOF 4
ENDMDL
MODEL 9
REMARK VINA RESULT:      -8.3      1.488      2.500
REMARK  Name = 
REMARK  8 active torsions:
REMARK  status: ('A' for Active; 'I' for Inactive)
REMARK    1  A    between atoms: C_1  and  C_2
REMARK    2  A    between atoms: C_6  and  N_7
REMARK    3  A    between atoms: N_7  and  S_8
REMARK    4  A    between atoms: S_8  and  C_11
REMARK    5  A    between atoms: C_14  and  C_15
REMARK    6  A    between atoms: C_19  and  C_20
REMARK    7  A    between atoms: C_22  and  C_23
REMARK    8  A    between atoms: C_27  and  C_28
REMARK                            x       y       z     vdW  Elec       q    Type
REMARK                         _______ _______ _______ _____ _____    ______ ____
ROOT
ATOM      1  C   UNL     1       1.409   9.552  19.220  0.00  0.00    +0.000 A 
ATOM      2  C   UNL     1       1.922   9.416  17.926  0.00  0.00    +0.000 A 
ATOM      3  C   UNL     1       2.442   8.181  17.512  0.00  0.00    +0.000 A 
ATOM      4  C   UNL     1       2.494   7.094  18.398  0.00  0.00    +0.000 A 
ATOM      5  C   UNL     1       2.066   7.284  19.717  0.00  0.00    +0.000 A 
ATOM      6  C   UNL     1       1.484   8.488  20.120  0.00  0.00    +0.000 A 
ENDROOT
BRANCH   4   7
ATOM      7  C   UNL     1       3.132   5.821  17.943  0.00  0.00    +0.000 C 
ATOM      8  O   UNL     1       2.378   4.882  17.688  0.00  0.00    +0.000 OA
ATOM      9  N   UNL     1       4.513   5.717  17.787  0.00  0.00    +0.000 N 
ATOM     10  C   UNL     1       5.066   4.575  17.051  0.00  0.00    +0.000 C 
ATOM     11  C   UNL     1       5.905   5.100  15.869  0.00  0.00    +0.000 C 
ATOM     12  C   UNL     1       6.546   3.967  15.084  0.00  0.00    +0.000 C 
ATOM     13  O   UNL     1       6.955   5.975  16.344  0.00  0.00    +0.000 OA
ATOM     14  C   UNL     1       6.398   7.110  17.041  0.00  0.00    +0.000 C 
ATOM     15  C   UNL     1       7.533   8.017  17.488  0.00  0.00    +0.000 C 
ATOM     16  C   UNL     1       5.560   6.637  18.248  0.00  0.00    +0.000 C 
ENDBRANCH   4   7
BRANCH   1  17
ATOM     17  S   UNL     1       0.787  11.123  19.779  0.00  0.00    +0.000 S 
ATOM     18  O   UNL     1       0.987  12.097  18.729  0.00  0.00    +0.000 OA
ATOM     19  O   UNL     1       1.316  11.339  21.107  0.00  0.00    +0.000 OA
BRANCH  17  20
ATOM     20  N   UNL     1      -0.858  10.825  19.994  0.00  0.00    +0.000 N 
ATOM     21  H   UNL     1      -1.208  11.278  20.836  0.00  0.00    +0.000 HD
BRANCH  20  27
ATOM     22  C   UNL     1      -5.047  12.198  17.565  0.00  0.00    +0.000 C 
ATOM     23  C   UNL     1      -3.751  11.435  17.677  0.00  0.00    +0.000 A 
ATOM     24  C   UNL     1      -3.378  10.587  16.623  0.00  0.00    +0.000 A 
ATOM     25  C   UNL     1      -2.190   9.863  16.680  0.00  0.00    +0.000 A 
ATOM     26  C   UNL     1      -1.363   9.974  17.795  0.00  0.00    +0.000 A 
ATOM     27  C   UNL     1      -1.723  10.800  18.861  0.00  0.00    +0.000 A 
ATOM     28  C   UNL     1      -2.916  11.550  18.817  0.00  0.00    +0.000 A 
ATOM     29  C   UNL     1      -3.339  12.454  19.946  0.00  0.00    +0.000 C 
ENDBRANCH  20  27
ENDBRANCH  17  20
ENDBRANCH   1  17
TORSDOF 4
ENDMDL
