MODEL 1
REMARK VINA RESULT:      -7.2      0.000      0.000
REMARK  Name = 
REMARK  3 active torsions:
REMARK  status: ('A' for Active; 'I' for Inactive)
REMARK    1  A    between atoms: N_2  and  C_4
REMARK    2  A    between atoms: N_10  and  C_11
REMARK    3  A    between atoms: C_11  and  C_12
REMARK                            x       y       z     vdW  Elec       q    Type
REMARK                         _______ _______ _______ _____ _____    ______ ____
ROOT
ATOM      1  C   UNL     1       7.199   4.367  15.448  0.00  0.00    +0.000 C 
ATOM      2  C   UNL     1       6.782   4.478  16.720  0.00  0.00    +0.000 C 
ATOM      3  N   UNL     1       7.763   4.386  17.713  0.00  0.00    +0.000 N 
ATOM      4  C   UNL     1       7.727   5.383  18.793  0.00  0.00    +0.000 C 
ATOM      5  C   UNL     1       6.318   5.505  19.360  0.00  0.00    +0.000 C 
ATOM      6  C   UNL     1       5.323   5.737  18.230  0.00  0.00    +0.000 C 
ATOM      7  N   UNL     1       5.499   4.713  17.196  0.00  0.00    +0.000 N 
ATOM      8  H   UNL     1       7.647   3.470  18.153  0.00  0.00    +0.000 HD
ENDROOT
BRANCH   1  10
ATOM      9  O   UNL     1       5.914   5.801  14.261  0.00  0.00    +0.000 OA
ATOM     10  N   UNL     1       6.365   4.649  14.313  0.00  0.00    +0.000 N 
ATOM     11  O   UNL     1       6.105   3.755  13.497  0.00  0.00    +0.000 OA
ENDBRANCH   1  10
BRANCH   7  12
ATOM     12  C   UNL     1       4.313   3.929  16.822  0.00  0.00    +0.000 C 
BRANCH  12  13
ATOM     13  C   UNL     1       3.483   3.599  18.039  0.00  0.00    +0.000 A 
ATOM     14  C   UNL     1       2.215   4.153  18.246  0.00  0.00    +0.000 A 
ATOM     15  C   UNL     1       1.507   3.846  19.407  0.00  0.00    +0.000 A 
ATOM     16  C   UNL     1       2.098   2.991  20.321  0.00  0.00    +0.000 A 
ATOM     17 CL   UNL     1       1.306   2.587  21.787  0.00  0.00    +0.000 Cl
ATOM     18  N   UNL     1       3.310   2.426  20.159  0.00  0.00    +0.000 NA
ATOM     19  C   UNL     1       3.974   2.743  19.023  0.00  0.00    +0.000 A 
ENDBRANCH  12  13
ENDBRANCH   7  12
TORSDOF 3
ENDMDL
MODEL 2
REMARK VINA RESULT:      -7.1      1.519      1.960
REMARK  Name = 
REMARK  3 active torsions:
REMARK  status: ('A' for Active; 'I' for Inactive)
REMARK    1  A    between atoms: N_2  and  C_4
REMARK    2  A    between atoms: N_10  and  C_11
REMARK    3  A    between atoms: C_11  and  C_12
REMARK                            x       y       z     vdW  Elec       q    Type
REMARK                         _______ _______ _______ _____ _____    ______ ____
ROOT
ATOM      1  C   UNL     1       6.882   3.984  15.574  0.00  0.00    +0.000 C 
ATOM      2  C   UNL     1       6.827   4.693  16.714  0.00  0.00    +0.000 C 
ATOM      3  N   UNL     1       7.430   4.122  17.839  0.00  0.00    +0.000 N 
ATOM      4  C   UNL     1       8.290   4.988  18.658  0.00  0.00    +0.000 C 
ATOM      5  C   UNL     1       7.586   6.304  18.966  0.00  0.00    +0.000 C 
ATOM      6  C   UNL     1       7.074   6.931  17.675  0.00  0.00    +0.000 C 
ATOM      7  N   UNL     1       6.280   5.952  16.927  0.00  0.00    +0.000 N 
ATOM      8  H   UNL     1       6.670   3.802  18.446  0.00  0.00    +0.000 HD
ENDROOT
BRANCH   1  10
ATOM      9  O   UNL     1       5.431   4.101  13.843  0.00  0.00    +0.000 OA
ATOM     10  N   UNL     1       6.508   4.513  14.292  0.00  0.00    +0.000 N 
ATOM     11  O   UNL     1       7.268   5.288  13.695  0.00  0.00    +0.000 OA
ENDBRANCH   1  10
BRANCH   7  12
ATOM     12  C   UNL     1       4.912   6.342  16.558  0.00  0.00    +0.000 C 
BRANCH  12  13
ATOM     13  C   UNL     1       3.903   5.692  17.474  0.00  0.00    +0.000 A 
ATOM     14  C   UNL     1       3.376   4.422  17.218  0.00  0.00    +0.000 A 
ATOM     15  C   UNL     1       2.416   3.885  18.074  0.00  0.00    +0.000 A 
ATOM     16  C   UNL     1       2.019   4.644  19.161  0.00  0.00    +0.000 A 
ATOM     17 CL   UNL     1       0.821   4.069  20.245  0.00  0.00    +0.000 Cl
ATOM     18  N   UNL     1       2.505   5.866  19.453  0.00  0.00    +0.000 NA
ATOM     19  C   UNL     1       3.435   6.361  18.604  0.00  0.00    +0.000 A 
ENDBRANCH  12  13
ENDBRANCH   7  12
TORSDOF 3
ENDMDL
MODEL 3
REMARK VINA RESULT:      -7.0      1.566      1.908
REMARK  Name = 
REMARK  3 active torsions:
REMARK  status: ('A' for Active; 'I' for Inactive)
REMARK    1  A    between atoms: N_2  and  C_4
REMARK    2  A    between atoms: N_10  and  C_11
REMARK    3  A    between atoms: C_11  and  C_12
REMARK                            x       y       z     vdW  Elec       q    Type
REMARK                         _______ _______ _______ _____ _____    ______ ____
ROOT
ATOM      1  C   UNL     1       6.825   3.959  15.528  0.00  0.00    +0.000 C 
ATOM      2  C   UNL     1       6.786   4.703  16.646  0.00  0.00    +0.000 C 
ATOM      3  N   UNL     1       7.357   4.144  17.794  0.00  0.00    +0.000 N 
ATOM      4  C   UNL     1       8.242   5.002  18.595  0.00  0.00    +0.000 C 
ATOM      5  C   UNL     1       7.583   6.351  18.858  0.00  0.00    +0.000 C 
ATOM      6  C   UNL     1       7.106   6.958  17.544  0.00  0.00    +0.000 C 
ATOM      7  N   UNL     1       6.283   5.986  16.818  0.00  0.00    +0.000 N 
ATOM      8  H   UNL     1       6.581   3.870  18.402  0.00  0.00    +0.000 HD
ENDROOT
BRANCH   1  10
ATOM      9  O   UNL     1       7.294   5.257  13.737  0.00  0.00    +0.000 OA
ATOM     10  N   UNL     1       6.482   4.463  14.228  0.00  0.00    +0.000 N 
ATOM     11  O   UNL     1       5.412   4.134  13.698  0.00  0.00    +0.000 OA
ENDBRANCH   1  10
BRANCH   7  12
ATOM     12  C   UNL     1       4.934   6.414  16.424  0.00  0.00    +0.000 C 
BRANCH  12  13
ATOM     13  C   UNL     1       3.908   5.949  17.429  0.00  0.00    +0.000 A 
ATOM     14  C   UNL     1       3.368   6.809  18.392  0.00  0.00    +0.000 A 
ATOM     15  C   UNL     1       2.455   6.318  19.323  0.00  0.00    +0.000 A 
ATOM     16  C   UNL     1       2.114   4.979  19.255  0.00  0.00    +0.000 A 
ATOM     17 CL   UNL     1       1.021   4.291  20.382  0.00  0.00    +0.000 Cl
ATOM     18  N   UNL     1       2.600   4.117  18.341  0.00  0.00    +0.000 NA
ATOM     19  C   UNL     1       3.485   4.622  17.450  0.00  0.00    +0.000 A 
ENDBRANCH  12  13
ENDBRANCH   7  12
TORSDOF 3
ENDMDL
MODEL 4
REMARK VINA RESULT:      -7.0      3.946      5.993
REMARK  Name = 
REMARK  3 active torsions:
REMARK  status: ('A' for Active; 'I' for Inactive)
REMARK    1  A    between atoms: N_2  and  C_4
REMARK    2  A    between atoms: N_10  and  C_11
REMARK    3  A    between atoms: C_11  and  C_12
REMARK                            x       y       z     vdW  Elec       q    Type
REMARK                         _______ _______ _______ _____ _____    ______ ____
ROOT
ATOM      1  C   UNL     1       3.340   2.122  19.377  0.00  0.00    +0.000 C 
ATOM      2  C   UNL     1       3.262   3.278  18.698  0.00  0.00    +0.000 C 
ATOM      3  N   UNL     1       2.219   3.394  17.773  0.00  0.00    +0.000 N 
ATOM      4  C   UNL     1       1.444   4.643  17.781  0.00  0.00    +0.000 C 
ATOM      5  C   UNL     1       2.375   5.849  17.779  0.00  0.00    +0.000 C 
ATOM      6  C   UNL     1       3.399   5.714  18.899  0.00  0.00    +0.000 C 
ATOM      7  N   UNL     1       4.060   4.408  18.812  0.00  0.00    +0.000 N 
ATOM      8  H   UNL     1       2.643   3.315  16.845  0.00  0.00    +0.000 HD
ENDROOT
BRANCH   1  10
ATOM      9  O   UNL     1       5.302   1.404  20.245  0.00  0.00    +0.000 OA
ATOM     10  N   UNL     1       4.208   1.922  20.504  0.00  0.00    +0.000 N 
ATOM     11  O   UNL     1       3.823   2.218  21.643  0.00  0.00    +0.000 OA
ENDBRANCH   1  10
BRANCH   7  12
ATOM     12  C   UNL     1       5.528   4.405  18.739  0.00  0.00    +0.000 C 
BRANCH  12  13
ATOM     13  C   UNL     1       5.994   4.583  17.314  0.00  0.00    +0.000 A 
ATOM     14  C   UNL     1       5.430   3.866  16.253  0.00  0.00    +0.000 A 
ATOM     15  C   UNL     1       5.925   4.037  14.961  0.00  0.00    +0.000 A 
ATOM     16  C   UNL     1       6.972   4.924  14.780  0.00  0.00    +0.000 A 
ATOM     17 CL   UNL     1       7.657   5.170  13.228  0.00  0.00    +0.000 Cl
ATOM     18  N   UNL     1       7.539   5.643  15.768  0.00  0.00    +0.000 NA
ATOM     19  C   UNL     1       7.037   5.455  17.011  0.00  0.00    +0.000 A 
ENDBRANCH  12  13
ENDBRANCH   7  12
TORSDOF 3
ENDMDL
MODEL 5
REMARK VINA RESULT:      -6.9      2.305      2.645
REMARK  Name = 
REMARK  3 active torsions:
REMARK  status: ('A' for Active; 'I' for Inactive)
REMARK    1  A    between atoms: N_2  and  C_4
REMARK    2  A    between atoms: N_10  and  C_11
REMARK    3  A    between atoms: C_11  and  C_12
REMARK                            x       y       z     vdW  Elec       q    Type
REMARK                         _______ _______ _______ _____ _____    ______ ____
ROOT
ATOM      1  C   UNL     1       6.608   3.924  15.568  0.00  0.00    +0.000 C 
ATOM      2  C   UNL     1       6.661   4.731  16.640  0.00  0.00    +0.000 C 
ATOM      3  N   UNL     1       7.117   4.162  17.834  0.00  0.00    +0.000 N 
ATOM      4  C   UNL     1       8.106   4.923  18.611  0.00  0.00    +0.000 C 
ATOM      5  C   UNL     1       7.657   6.370  18.777  0.00  0.00    +0.000 C 
ATOM      6  C   UNL     1       7.305   6.962  17.418  0.00  0.00    +0.000 C 
ATOM      7  N   UNL     1       6.358   6.084  16.725  0.00  0.00    +0.000 N 
ATOM      8  H   UNL     1       6.296   4.046  18.434  0.00  0.00    +0.000 HD
ENDROOT
BRANCH   1  10
ATOM      9  O   UNL     1       7.236   5.157  13.779  0.00  0.00    +0.000 OA
ATOM     10  N   UNL     1       6.373   4.395  14.232  0.00  0.00    +0.000 N 
ATOM     11  O   UNL     1       5.337   4.072  13.634  0.00  0.00    +0.000 OA
ENDBRANCH   1  10
BRANCH   7  12
ATOM     12  C   UNL     1       5.098   6.688  16.268  0.00  0.00    +0.000 C 
BRANCH  12  13
ATOM     13  C   UNL     1       4.105   6.779  17.402  0.00  0.00    +0.000 A 
ATOM     14  C   UNL     1       3.232   7.864  17.539  0.00  0.00    +0.000 A 
ATOM     15  C   UNL     1       2.363   7.920  18.627  0.00  0.00    +0.000 A 
ATOM     16  C   UNL     1       2.400   6.882  19.541  0.00  0.00    +0.000 A 
ATOM     17 CL   UNL     1       1.385   6.889  20.922  0.00  0.00    +0.000 Cl
ATOM     18  N   UNL     1       3.215   5.813  19.445  0.00  0.00    +0.000 NA
ATOM     19  C   UNL     1       4.048   5.787  18.378  0.00  0.00    +0.000 A 
ENDBRANCH  12  13
ENDBRANCH   7  12
TORSDOF 3
ENDMDL
MODEL 6
REMARK VINA RESULT:      -6.9      0.662      1.146
REMARK  Name = 
REMARK  3 active torsions:
REMARK  status: ('A' for Active; 'I' for Inactive)
REMARK    1  A    between atoms: N_2  and  C_4
REMARK    2  A    between atoms: N_10  and  C_11
REMARK    3  A    between atoms: C_11  and  C_12
REMARK                            x       y       z     vdW  Elec       q    Type
REMARK                         _______ _______ _______ _____ _____    ______ ____
ROOT
ATOM      1  C   UNL     1       7.141   4.343  15.448  0.00  0.00    +0.000 C 
ATOM      2  C   UNL     1       6.800   4.489  16.739  0.00  0.00    +0.000 C 
ATOM      3  N   UNL     1       7.824   4.335  17.680  0.00  0.00    +0.000 N 
ATOM      4  C   UNL     1       7.913   5.338  18.751  0.00  0.00    +0.000 C 
ATOM      5  C   UNL     1       6.548   5.560  19.391  0.00  0.00    +0.000 C 
ATOM      6  C   UNL     1       5.513   5.853  18.312  0.00  0.00    +0.000 C 
ATOM      7  N   UNL     1       5.563   4.814  17.280  0.00  0.00    +0.000 N 
ATOM      8  H   UNL     1       7.669   3.431  18.134  0.00  0.00    +0.000 HD
ENDROOT
BRANCH   1  10
ATOM      9  O   UNL     1       5.879   5.850  14.329  0.00  0.00    +0.000 OA
ATOM     10  N   UNL     1       6.269   4.676  14.356  0.00  0.00    +0.000 N 
ATOM     11  O   UNL     1       5.922   3.801  13.551  0.00  0.00    +0.000 OA
ENDBRANCH   1  10
BRANCH   7  12
ATOM     12  C   UNL     1       4.309   4.112  16.975  0.00  0.00    +0.000 C 
BRANCH  12  13
ATOM     13  C   UNL     1       3.594   3.716  18.245  0.00  0.00    +0.000 A 
ATOM     14  C   UNL     1       4.152   2.820  19.163  0.00  0.00    +0.000 A 
ATOM     15  C   UNL     1       3.433   2.456  20.300  0.00  0.00    +0.000 A 
ATOM     16  C   UNL     1       2.175   3.006  20.475  0.00  0.00    +0.000 A 
ATOM     17 CL   UNL     1       1.213   2.586  21.831  0.00  0.00    +0.000 Cl
ATOM     18  N   UNL     1       1.601   3.878  19.624  0.00  0.00    +0.000 NA
ATOM     19  C   UNL     1       2.324   4.213  18.530  0.00  0.00    +0.000 A 
ENDBRANCH  12  13
ENDBRANCH   7  12
TORSDOF 3
ENDMDL
MODEL 7
REMARK VINA RESULT:      -6.8      2.382      2.890
REMARK  Name = 
REMARK  3 active torsions:
REMARK  status: ('A' for Active; 'I' for Inactive)
REMARK    1  A    between atoms: N_2  and  C_4
REMARK    2  A    between atoms: N_10  and  C_11
REMARK    3  A    between atoms: C_11  and  C_12
REMARK                            x       y       z     vdW  Elec       q    Type
REMARK                         _______ _______ _______ _____ _____    ______ ____
ROOT
ATOM      1  C   UNL     1       6.845   4.020  15.495  0.00  0.00    +0.000 C 
ATOM      2  C   UNL     1       6.787   4.755  16.618  0.00  0.00    +0.000 C 
ATOM      3  N   UNL     1       7.336   4.185  17.771  0.00  0.00    +0.000 N 
ATOM      4  C   UNL     1       8.209   5.034  18.595  0.00  0.00    +0.000 C 
ATOM      5  C   UNL     1       7.550   6.383  18.857  0.00  0.00    +0.000 C 
ATOM      6  C   UNL     1       7.098   7.002  17.540  0.00  0.00    +0.000 C 
ATOM      7  N   UNL     1       6.286   6.039  16.791  0.00  0.00    +0.000 N 
ATOM      8  H   UNL     1       6.549   3.909  18.363  0.00  0.00    +0.000 HD
ENDROOT
BRANCH   1  10
ATOM      9  O   UNL     1       5.481   4.101  13.692  0.00  0.00    +0.000 OA
ATOM     10  N   UNL     1       6.526   4.536  14.193  0.00  0.00    +0.000 N 
ATOM     11  O   UNL     1       7.301   5.322  13.631  0.00  0.00    +0.000 OA
ENDBRANCH   1  10
BRANCH   7  12
ATOM     12  C   UNL     1       4.945   6.474  16.376  0.00  0.00    +0.000 C 
BRANCH  12  13
ATOM     13  C   UNL     1       4.045   6.657  17.575  0.00  0.00    +0.000 A 
ATOM     14  C   UNL     1       3.956   5.698  18.590  0.00  0.00    +0.000 A 
ATOM     15  C   UNL     1       3.080   5.898  19.655  0.00  0.00    +0.000 A 
ATOM     16  C   UNL     1       2.321   7.055  19.664  0.00  0.00    +0.000 A 
ATOM     17 CL   UNL     1       1.198   7.361  20.922  0.00  0.00    +0.000 Cl
ATOM     18  N   UNL     1       2.380   8.010  18.715  0.00  0.00    +0.000 NA
ATOM     19  C   UNL     1       3.241   7.788  17.694  0.00  0.00    +0.000 A 
ENDBRANCH  12  13
ENDBRANCH   7  12
TORSDOF 3
ENDMDL
MODEL 8
REMARK VINA RESULT:      -6.7      3.441      4.250
REMARK  Name = 
REMARK  3 active torsions:
REMARK  status: ('A' for Active; 'I' for Inactive)
REMARK    1  A    between atoms: N_2  and  C_4
REMARK    2  A    between atoms: N_10  and  C_11
REMARK    3  A    between atoms: C_11  and  C_12
REMARK                            x       y       z     vdW  Elec       q    Type
REMARK                         _______ _______ _______ _____ _____    ______ ____
ROOT
ATOM      1  C   UNL     1       4.471   2.843  19.619  0.00  0.00    +0.000 C 
ATOM      2  C   UNL     1       4.818   3.890  18.852  0.00  0.00    +0.000 C 
ATOM      3  N   UNL     1       5.964   4.595  19.232  0.00  0.00    +0.000 N 
ATOM      4  C   UNL     1       6.930   4.934  18.177  0.00  0.00    +0.000 C 
ATOM      5  C   UNL     1       6.219   5.557  16.981  0.00  0.00    +0.000 C 
ATOM      6  C   UNL     1       5.066   4.663  16.542  0.00  0.00    +0.000 C 
ATOM      7  N   UNL     1       4.211   4.355  17.693  0.00  0.00    +0.000 N 
ATOM      8  H   UNL     1       5.642   5.480  19.633  0.00  0.00    +0.000 HD
ENDROOT
BRANCH   1  10
ATOM      9  O   UNL     1       3.809   1.037  18.429  0.00  0.00    +0.000 OA
ATOM     10  N   UNL     1       3.459   1.892  19.253  0.00  0.00    +0.000 N 
ATOM     11  O   UNL     1       2.316   1.993  19.719  0.00  0.00    +0.000 OA
ENDBRANCH   1  10
BRANCH   7  12
ATOM     12  C   UNL     1       2.781   4.672  17.568  0.00  0.00    +0.000 C 
BRANCH  12  13
ATOM     13  C   UNL     1       2.390   5.772  18.524  0.00  0.00    +0.000 A 
ATOM     14  C   UNL     1       2.492   7.125  18.182  0.00  0.00    +0.000 A 
ATOM     15  C   UNL     1       2.155   8.102  19.117  0.00  0.00    +0.000 A 
ATOM     16  C   UNL     1       1.728   7.687  20.366  0.00  0.00    +0.000 A 
ATOM     17 CL   UNL     1       1.324   8.826  21.582  0.00  0.00    +0.000 Cl
ATOM     18  N   UNL     1       1.604   6.397  20.736  0.00  0.00    +0.000 NA
ATOM     19  C   UNL     1       1.938   5.471  19.807  0.00  0.00    +0.000 A 
ENDBRANCH  12  13
ENDBRANCH   7  12
TORSDOF 3
ENDMDL
MODEL 9
REMARK VINA RESULT:      -6.7      3.471      4.339
REMARK  Name = 
REMARK  3 active torsions:
REMARK  status: ('A' for Active; 'I' for Inactive)
REMARK    1  A    between atoms: N_2  and  C_4
REMARK    2  A    between atoms: N_10  and  C_11
REMARK    3  A    between atoms: C_11  and  C_12
REMARK                            x       y       z     vdW  Elec       q    Type
REMARK                         _______ _______ _______ _____ _____    ______ ____
ROOT
ATOM      1  C   UNL     1       4.492   2.831  19.578  0.00  0.00    +0.000 C 
ATOM      2  C   UNL     1       4.832   3.896  18.834  0.00  0.00    +0.000 C 
ATOM      3  N   UNL     1       5.993   4.581  19.209  0.00  0.00    +0.000 N 
ATOM      4  C   UNL     1       6.940   4.941  18.144  0.00  0.00    +0.000 C 
ATOM      5  C   UNL     1       6.210   5.604  16.982  0.00  0.00    +0.000 C 
ATOM      6  C   UNL     1       5.039   4.734  16.543  0.00  0.00    +0.000 C 
ATOM      7  N   UNL     1       4.206   4.400  17.702  0.00  0.00    +0.000 N 
ATOM      8  H   UNL     1       5.688   5.456  19.642  0.00  0.00    +0.000 HD
ENDROOT
BRANCH   1  10
ATOM      9  O   UNL     1       3.790   1.062  18.357  0.00  0.00    +0.000 OA
ATOM     10  N   UNL     1       3.463   1.900  19.207  0.00  0.00    +0.000 N 
ATOM     11  O   UNL     1       2.330   2.001  19.695  0.00  0.00    +0.000 OA
ENDBRANCH   1  10
BRANCH   7  12
ATOM     12  C   UNL     1       2.777   4.733  17.616  0.00  0.00    +0.000 C 
BRANCH  12  13
ATOM     13  C   UNL     1       2.410   5.787  18.632  0.00  0.00    +0.000 A 
ATOM     14  C   UNL     1       1.957   5.457  19.915  0.00  0.00    +0.000 A 
ATOM     15  C   UNL     1       1.593   6.468  20.802  0.00  0.00    +0.000 A 
ATOM     16  C   UNL     1       1.694   7.779  20.369  0.00  0.00    +0.000 A 
ATOM     17 CL   UNL     1       1.237   9.079  21.388  0.00  0.00    +0.000 Cl
ATOM     18  N   UNL     1       2.134   8.145  19.149  0.00  0.00    +0.000 NA
ATOM     19  C   UNL     1       2.481   7.140  18.310  0.00  0.00    +0.000 A 
ENDBRANCH  12  13
ENDBRANCH   7  12
TORSDOF 3
ENDMDL
