MODEL 1
REMARK VINA RESULT:      -6.8      0.000      0.000
REMARK  Name = 
REMARK  9 active torsions:
REMARK  status: ('A' for Active; 'I' for Inactive)
REMARK    1  A    between atoms: C_1  and  C_2
REMARK    2  A    between atoms: C_2  and  C_3
REMARK    3  A    between atoms: C_2  and  C_4
REMARK    4  A    between atoms: C_4  and  O_5
REMARK    5  A    between atoms: O_5  and  C_6
REMARK    6  A    between atoms: C_6  and  C_7
REMARK    7  A    between atoms: C_7  and  C_8
REMARK    8  A    between atoms: C_7  and  N_9
REMARK    9  A    between atoms: C_10  and  C_12
REMARK                            x       y       z     vdW  Elec       q    Type
REMARK                         _______ _______ _______ _____ _____    ______ ____
ROOT
ATOM      1  N   UNL     1       2.984   3.573  18.793  0.00  0.00    +0.000 N 
ATOM      2  C   UNL     1       4.325   3.358  18.990  0.00  0.00    +0.000 C 
ATOM      3  O   UNL     1       4.779   2.661  19.891  0.00  0.00    +0.000 OA
ATOM      4  H   UNL     1       2.673   4.140  18.020  0.00  0.00    +0.000 HD
ENDROOT
BRANCH   2   5
ATOM      5  C   UNL     1       5.244   4.048  18.020  0.00  0.00    +0.000 A 
ATOM      6  C   UNL     1       6.381   4.868  18.441  0.00  0.00    +0.000 A 
ATOM      7  C   UNL     1       7.226   5.414  17.551  0.00  0.00    +0.000 A 
ATOM      8  C   UNL     1       7.017   5.201  16.162  0.00  0.00    +0.000 A 
ATOM      9  N   UNL     1       7.667   5.589  15.088  0.00  0.00    +0.000 NA
ATOM     10  N   UNL     1       7.013   5.068  13.992  0.00  0.00    +0.000 NA
ATOM     11  C   UNL     1       5.986   4.371  14.430  0.00  0.00    +0.000 A 
ATOM     12  N   UNL     1       5.936   4.416  15.793  0.00  0.00    +0.000 N 
ATOM     13  C   UNL     1       5.058   3.835  16.702  0.00  0.00    +0.000 A 
ENDBRANCH   2   5
BRANCH   1  14
ATOM     14  C   UNL     1       1.968   2.973  19.660  0.00  0.00    +0.000 C 
ATOM     15  C   UNL     1       0.804   2.429  18.826  0.00  0.00    +0.000 C 
BRANCH  14  16
ATOM     16  C   UNL     1       1.442   3.972  20.712  0.00  0.00    +0.000 C 
BRANCH  16  17
ATOM     17  O   UNL     1       2.230   5.169  20.689  0.00  0.00    +0.000 OA
BRANCH  17  18
ATOM     18  C   UNL     1       1.420   6.342  20.755  0.00  0.00    +0.000 C 
BRANCH  18  20
ATOM     19  C   UNL     1       2.546   7.121  18.650  0.00  0.00    +0.000 C 
ATOM     20  C   UNL     1       2.131   7.515  20.068  0.00  0.00    +0.000 C 
ATOM     21  C   UNL     1       1.251   8.766  20.031  0.00  0.00    +0.000 C 
ENDBRANCH  18  20
ENDBRANCH  17  18
ENDBRANCH  16  17
ENDBRANCH  14  16
ENDBRANCH   1  14
TORSDOF 6
ENDMDL
MODEL 2
REMARK VINA RESULT:      -6.7      2.552      6.337
REMARK  Name = 
REMARK  9 active torsions:
REMARK  status: ('A' for Active; 'I' for Inactive)
REMARK    1  A    between atoms: C_1  and  C_2
REMARK    2  A    between atoms: C_2  and  C_3
REMARK    3  A    between atoms: C_2  and  C_4
REMARK    4  A    between atoms: C_4  and  O_5
REMARK    5  A    between atoms: O_5  and  C_6
REMARK    6  A    between atoms: C_6  and  C_7
REMARK    7  A    between atoms: C_7  and  C_8
REMARK    8  A    between atoms: C_7  and  N_9
REMARK    9  A    between atoms: C_10  and  C_12
REMARK                            x       y       z     vdW  Elec       q    Type
REMARK                         _______ _______ _______ _____ _____    ______ ____
ROOT
ATOM      1  N   UNL     1       4.665   4.026  15.953  0.00  0.00    +0.000 N 
ATOM      2  C   UNL     1       4.081   4.837  16.894  0.00  0.00    +0.000 C 
ATOM      3  O   UNL     1       4.236   6.053  16.937  0.00  0.00    +0.000 OA
ATOM      4  H   UNL     1       4.482   3.035  15.959  0.00  0.00    +0.000 HD
ENDROOT
BRANCH   2   5
ATOM      5  C   UNL     1       3.220   4.139  17.910  0.00  0.00    +0.000 A 
ATOM      6  C   UNL     1       2.338   3.019  17.576  0.00  0.00    +0.000 A 
ATOM      7  C   UNL     1       1.635   2.369  18.518  0.00  0.00    +0.000 A 
ATOM      8  C   UNL     1       1.738   2.774  19.876  0.00  0.00    +0.000 A 
ATOM      9  N   UNL     1       1.192   2.333  20.987  0.00  0.00    +0.000 NA
ATOM     10  N   UNL     1       1.670   3.106  22.024  0.00  0.00    +0.000 NA
ATOM     11  C   UNL     1       2.498   3.993  21.516  0.00  0.00    +0.000 A 
ATOM     12  N   UNL     1       2.584   3.833  20.162  0.00  0.00    +0.000 N 
ATOM     13  C   UNL     1       3.327   4.510  19.201  0.00  0.00    +0.000 A 
ENDBRANCH   2   5
BRANCH   1  14
ATOM     14  C   UNL     1       5.536   4.560  14.904  0.00  0.00    +0.000 C 
ATOM     15  C   UNL     1       5.232   3.887  13.561  0.00  0.00    +0.000 C 
BRANCH  14  16
ATOM     16  C   UNL     1       7.030   4.395  15.252  0.00  0.00    +0.000 C 
BRANCH  16  17
ATOM     17  O   UNL     1       7.440   5.428  16.154  0.00  0.00    +0.000 OA
BRANCH  17  18
ATOM     18  C   UNL     1       7.671   4.926  17.471  0.00  0.00    +0.000 C 
BRANCH  18  20
ATOM     19  C   UNL     1       8.042   5.655  19.844  0.00  0.00    +0.000 C 
ATOM     20  C   UNL     1       7.392   6.021  18.510  0.00  0.00    +0.000 C 
ATOM     21  C   UNL     1       7.890   7.388  18.038  0.00  0.00    +0.000 C 
ENDBRANCH  18  20
ENDBRANCH  17  18
ENDBRANCH  16  17
ENDBRANCH  14  16
ENDBRANCH   1  14
TORSDOF 6
ENDMDL
MODEL 3
REMARK VINA RESULT:      -6.7      3.093      6.102
REMARK  Name = 
REMARK  9 active torsions:
REMARK  status: ('A' for Active; 'I' for Inactive)
REMARK    1  A    between atoms: C_1  and  C_2
REMARK    2  A    between atoms: C_2  and  C_3
REMARK    3  A    between atoms: C_2  and  C_4
REMARK    4  A    between atoms: C_4  and  O_5
REMARK    5  A    between atoms: O_5  and  C_6
REMARK    6  A    between atoms: C_6  and  C_7
REMARK    7  A    between atoms: C_7  and  C_8
REMARK    8  A    between atoms: C_7  and  N_9
REMARK    9  A    between atoms: C_10  and  C_12
REMARK                            x       y       z     vdW  Elec       q    Type
REMARK                         _______ _______ _______ _____ _____    ______ ____
ROOT
ATOM      1  N   UNL     1       3.372   5.316  17.677  0.00  0.00    +0.000 N 
ATOM      2  C   UNL     1       3.463   6.018  18.852  0.00  0.00    +0.000 C 
ATOM      3  O   UNL     1       4.138   5.659  19.811  0.00  0.00    +0.000 OA
ATOM      4  H   UNL     1       2.816   5.676  16.917  0.00  0.00    +0.000 HD
ENDROOT
BRANCH   2   5
ATOM      5  C   UNL     1       2.662   7.289  18.914  0.00  0.00    +0.000 A 
ATOM      6  C   UNL     1       2.475   8.174  17.763  0.00  0.00    +0.000 A 
ATOM      7  C   UNL     1       1.695   9.265  17.830  0.00  0.00    +0.000 A 
ATOM      8  C   UNL     1       1.032   9.581  19.046  0.00  0.00    +0.000 A 
ATOM      9  N   UNL     1       0.219  10.551  19.398  0.00  0.00    +0.000 NA
ATOM     10  N   UNL     1      -0.132  10.346  20.716  0.00  0.00    +0.000 NA
ATOM     11  C   UNL     1       0.473   9.253  21.127  0.00  0.00    +0.000 A 
ATOM     12  N   UNL     1       1.223   8.722  20.117  0.00  0.00    +0.000 N 
ATOM     13  C   UNL     1       2.019   7.583  20.062  0.00  0.00    +0.000 A 
ENDBRANCH   2   5
BRANCH   1  14
ATOM     14  C   UNL     1       4.089   4.056  17.469  0.00  0.00    +0.000 C 
ATOM     15  C   UNL     1       4.859   4.089  16.145  0.00  0.00    +0.000 C 
BRANCH  14  16
ATOM     16  C   UNL     1       3.142   2.839  17.501  0.00  0.00    +0.000 C 
BRANCH  16  17
ATOM     17  O   UNL     1       1.932   3.177  18.187  0.00  0.00    +0.000 OA
BRANCH  17  18
ATOM     18  C   UNL     1       1.531   2.153  19.098  0.00  0.00    +0.000 C 
BRANCH  18  20
ATOM     19  C   UNL     1       2.631   2.688  21.291  0.00  0.00    +0.000 C 
ATOM     20  C   UNL     1       1.324   2.744  20.499  0.00  0.00    +0.000 C 
ATOM     21  C   UNL     1       0.808   4.182  20.435  0.00  0.00    +0.000 C 
ENDBRANCH  18  20
ENDBRANCH  17  18
ENDBRANCH  16  17
ENDBRANCH  14  16
ENDBRANCH   1  14
TORSDOF 6
ENDMDL
MODEL 4
REMARK VINA RESULT:      -6.6      1.084      1.828
REMARK  Name = 
REMARK  9 active torsions:
REMARK  status: ('A' for Active; 'I' for Inactive)
REMARK    1  A    between atoms: C_1  and  C_2
REMARK    2  A    between atoms: C_2  and  C_3
REMARK    3  A    between atoms: C_2  and  C_4
REMARK    4  A    between atoms: C_4  and  O_5
REMARK    5  A    between atoms: O_5  and  C_6
REMARK    6  A    between atoms: C_6  and  C_7
REMARK    7  A    between atoms: C_7  and  C_8
REMARK    8  A    between atoms: C_7  and  N_9
REMARK    9  A    between atoms: C_10  and  C_12
REMARK                            x       y       z     vdW  Elec       q    Type
REMARK                         _______ _______ _______ _____ _____    ______ ____
ROOT
ATOM      1  N   UNL     1       2.853   3.281  19.053  0.00  0.00    +0.000 N 
ATOM      2  C   UNL     1       4.208   3.134  19.216  0.00  0.00    +0.000 C 
ATOM      3  O   UNL     1       4.719   2.405  20.060  0.00  0.00    +0.000 OA
ATOM      4  H   UNL     1       2.496   3.881  18.326  0.00  0.00    +0.000 HD
ENDROOT
BRANCH   2   5
ATOM      5  C   UNL     1       5.067   3.944  18.284  0.00  0.00    +0.000 A 
ATOM      6  C   UNL     1       5.008   3.815  16.827  0.00  0.00    +0.000 A 
ATOM      7  C   UNL     1       5.735   4.602  16.018  0.00  0.00    +0.000 A 
ATOM      8  C   UNL     1       6.592   5.586  16.580  0.00  0.00    +0.000 A 
ATOM      9  N   UNL     1       7.394   6.483  16.053  0.00  0.00    +0.000 NA
ATOM     10  N   UNL     1       7.972   7.188  17.088  0.00  0.00    +0.000 NA
ATOM     11  C   UNL     1       7.501   6.703  18.217  0.00  0.00    +0.000 A 
ATOM     12  N   UNL     1       6.622   5.690  17.962  0.00  0.00    +0.000 N 
ATOM     13  C   UNL     1       5.868   4.889  18.813  0.00  0.00    +0.000 A 
ENDBRANCH   2   5
BRANCH   1  14
ATOM     14  C   UNL     1       1.890   2.563  19.891  0.00  0.00    +0.000 C 
ATOM     15  C   UNL     1       0.652   2.178  19.075  0.00  0.00    +0.000 C 
BRANCH  14  16
ATOM     16  C   UNL     1       1.474   3.385  21.128  0.00  0.00    +0.000 C 
BRANCH  16  17
ATOM     17  O   UNL     1       2.157   4.644  21.133  0.00  0.00    +0.000 OA
BRANCH  17  18
ATOM     18  C   UNL     1       1.352   5.690  20.588  0.00  0.00    +0.000 C 
BRANCH  18  20
ATOM     19  C   UNL     1       2.443   6.749  18.589  0.00  0.00    +0.000 C 
ATOM     20  C   UNL     1       2.242   6.842  20.102  0.00  0.00    +0.000 C 
ATOM     21  C   UNL     1       1.653   8.205  20.472  0.00  0.00    +0.000 C 
ENDBRANCH  18  20
ENDBRANCH  17  18
ENDBRANCH  16  17
ENDBRANCH  14  16
ENDBRANCH   1  14
TORSDOF 6
ENDMDL
MODEL 5
REMARK VINA RESULT:      -6.5      2.328      6.124
REMARK  Name = 
REMARK  9 active torsions:
REMARK  status: ('A' for Active; 'I' for Inactive)
REMARK    1  A    between atoms: C_1  and  C_2
REMARK    2  A    between atoms: C_2  and  C_3
REMARK    3  A    between atoms: C_2  and  C_4
REMARK    4  A    between atoms: C_4  and  O_5
REMARK    5  A    between atoms: O_5  and  C_6
REMARK    6  A    between atoms: C_6  and  C_7
REMARK    7  A    between atoms: C_7  and  C_8
REMARK    8  A    between atoms: C_7  and  N_9
REMARK    9  A    between atoms: C_10  and  C_12
REMARK                            x       y       z     vdW  Elec       q    Type
REMARK                         _______ _______ _______ _____ _____    ______ ____
ROOT
ATOM      1  N   UNL     1       4.896   4.701  15.890  0.00  0.00    +0.000 N 
ATOM      2  C   UNL     1       4.433   5.763  16.626  0.00  0.00    +0.000 C 
ATOM      3  O   UNL     1       4.710   6.933  16.384  0.00  0.00    +0.000 OA
ATOM      4  H   UNL     1       4.615   3.763  16.128  0.00  0.00    +0.000 HD
ENDROOT
BRANCH   2   5
ATOM      5  C   UNL     1       3.548   5.411  17.789  0.00  0.00    +0.000 A 
ATOM      6  C   UNL     1       3.071   6.398  18.759  0.00  0.00    +0.000 A 
ATOM      7  C   UNL     1       2.223   6.066  19.747  0.00  0.00    +0.000 A 
ATOM      8  C   UNL     1       1.775   4.723  19.866  0.00  0.00    +0.000 A 
ATOM      9  N   UNL     1       0.959   4.121  20.701  0.00  0.00    +0.000 NA
ATOM     10  N   UNL     1       0.881   2.795  20.328  0.00  0.00    +0.000 NA
ATOM     11  C   UNL     1       1.647   2.630  19.272  0.00  0.00    +0.000 A 
ATOM     12  N   UNL     1       2.238   3.812  18.930  0.00  0.00    +0.000 N 
ATOM     13  C   UNL     1       3.108   4.141  17.896  0.00  0.00    +0.000 A 
ENDBRANCH   2   5
BRANCH   1  14
ATOM     14  C   UNL     1       5.773   4.885  14.732  0.00  0.00    +0.000 C 
ATOM     15  C   UNL     1       5.334   3.980  13.577  0.00  0.00    +0.000 C 
BRANCH  14  16
ATOM     16  C   UNL     1       7.253   4.620  15.079  0.00  0.00    +0.000 C 
BRANCH  16  17
ATOM     17  O   UNL     1       7.644   5.418  16.202  0.00  0.00    +0.000 OA
BRANCH  17  18
ATOM     18  C   UNL     1       7.745   4.644  17.397  0.00  0.00    +0.000 C 
BRANCH  18  20
ATOM     19  C   UNL     1       7.837   7.028  18.179  0.00  0.00    +0.000 C 
ATOM     20  C   UNL     1       7.777   5.567  18.623  0.00  0.00    +0.000 C 
ATOM     21  C   UNL     1       6.566   5.341  19.531  0.00  0.00    +0.000 C 
ENDBRANCH  18  20
ENDBRANCH  17  18
ENDBRANCH  16  17
ENDBRANCH  14  16
ENDBRANCH   1  14
TORSDOF 6
ENDMDL
MODEL 6
REMARK VINA RESULT:      -6.4      3.326      7.478
REMARK  Name = 
REMARK  9 active torsions:
REMARK  status: ('A' for Active; 'I' for Inactive)
REMARK    1  A    between atoms: C_1  and  C_2
REMARK    2  A    between atoms: C_2  and  C_3
REMARK    3  A    between atoms: C_2  and  C_4
REMARK    4  A    between atoms: C_4  and  O_5
REMARK    5  A    between atoms: O_5  and  C_6
REMARK    6  A    between atoms: C_6  and  C_7
REMARK    7  A    between atoms: C_7  and  C_8
REMARK    8  A    between atoms: C_7  and  N_9
REMARK    9  A    between atoms: C_10  and  C_12
REMARK                            x       y       z     vdW  Elec       q    Type
REMARK                         _______ _______ _______ _____ _____    ______ ____
ROOT
ATOM      1  N   UNL     1       4.586   5.816  16.901  0.00  0.00    +0.000 N 
ATOM      2  C   UNL     1       3.717   5.642  17.949  0.00  0.00    +0.000 C 
ATOM      3  O   UNL     1       3.530   4.566  18.508  0.00  0.00    +0.000 OA
ATOM      4  H   UNL     1       4.712   6.730  16.496  0.00  0.00    +0.000 HD
ENDROOT
BRANCH   2   5
ATOM      5  C   UNL     1       2.974   6.873  18.387  0.00  0.00    +0.000 A 
ATOM      6  C   UNL     1       2.720   8.011  17.503  0.00  0.00    +0.000 A 
ATOM      7  C   UNL     1       1.991   9.067  17.902  0.00  0.00    +0.000 A 
ATOM      8  C   UNL     1       1.452   9.092  19.216  0.00  0.00    +0.000 A 
ATOM      9  N   UNL     1       0.711   9.961  19.865  0.00  0.00    +0.000 NA
ATOM     10  N   UNL     1       0.471   9.450  21.123  0.00  0.00    +0.000 NA
ATOM     11  C   UNL     1       1.068   8.281  21.203  0.00  0.00    +0.000 A 
ATOM     12  N   UNL     1       1.704   7.997  20.029  0.00  0.00    +0.000 N 
ATOM     13  C   UNL     1       2.447   6.893  19.628  0.00  0.00    +0.000 A 
ENDBRANCH   2   5
BRANCH   1  14
ATOM     14  C   UNL     1       5.376   4.708  16.357  0.00  0.00    +0.000 C 
ATOM     15  C   UNL     1       6.692   4.559  17.128  0.00  0.00    +0.000 C 
BRANCH  14  16
ATOM     16  C   UNL     1       5.662   4.885  14.852  0.00  0.00    +0.000 C 
BRANCH  16  17
ATOM     17  O   UNL     1       6.005   3.624  14.266  0.00  0.00    +0.000 OA
BRANCH  17  18
ATOM     18  C   UNL     1       6.323   3.748  12.880  0.00  0.00    +0.000 C 
BRANCH  18  20
ATOM     19  C   UNL     1       4.400   3.190  11.365  0.00  0.00    +0.000 C 
ATOM     20  C   UNL     1       5.634   2.636  12.078  0.00  0.00    +0.000 C 
ATOM     21  C   UNL     1       6.585   1.997  11.065  0.00  0.00    +0.000 C 
ENDBRANCH  18  20
ENDBRANCH  17  18
ENDBRANCH  16  17
ENDBRANCH  14  16
ENDBRANCH   1  14
TORSDOF 6
ENDMDL
MODEL 7
REMARK VINA RESULT:      -6.4      2.192      6.748
REMARK  Name = 
REMARK  9 active torsions:
REMARK  status: ('A' for Active; 'I' for Inactive)
REMARK    1  A    between atoms: C_1  and  C_2
REMARK    2  A    between atoms: C_2  and  C_3
REMARK    3  A    between atoms: C_2  and  C_4
REMARK    4  A    between atoms: C_4  and  O_5
REMARK    5  A    between atoms: O_5  and  C_6
REMARK    6  A    between atoms: C_6  and  C_7
REMARK    7  A    between atoms: C_7  and  C_8
REMARK    8  A    between atoms: C_7  and  N_9
REMARK    9  A    between atoms: C_10  and  C_12
REMARK                            x       y       z     vdW  Elec       q    Type
REMARK                         _______ _______ _______ _____ _____    ______ ____
ROOT
ATOM      1  N   UNL     1       5.865   5.364  17.540  0.00  0.00    +0.000 N 
ATOM      2  C   UNL     1       5.640   5.000  18.843  0.00  0.00    +0.000 C 
ATOM      3  O   UNL     1       6.516   4.957  19.701  0.00  0.00    +0.000 OA
ATOM      4  H   UNL     1       5.098   5.399  16.887  0.00  0.00    +0.000 HD
ENDROOT
BRANCH   2   5
ATOM      5  C   UNL     1       4.221   4.633  19.180  0.00  0.00    +0.000 A 
ATOM      6  C   UNL     1       3.329   5.507  19.945  0.00  0.00    +0.000 A 
ATOM      7  C   UNL     1       2.045   5.184  20.169  0.00  0.00    +0.000 A 
ATOM      8  C   UNL     1       1.529   3.962  19.659  0.00  0.00    +0.000 A 
ATOM      9  N   UNL     1       0.342   3.400  19.709  0.00  0.00    +0.000 NA
ATOM     10  N   UNL     1       0.414   2.208  19.018  0.00  0.00    +0.000 NA
ATOM     11  C   UNL     1       1.642   2.081  18.563  0.00  0.00    +0.000 A 
ATOM     12  N   UNL     1       2.394   3.159  18.933  0.00  0.00    +0.000 N 
ATOM     13  C   UNL     1       3.723   3.483  18.684  0.00  0.00    +0.000 A 
ENDBRANCH   2   5
BRANCH   1  14
ATOM     14  C   UNL     1       7.196   5.741  17.059  0.00  0.00    +0.000 C 
ATOM     15  C   UNL     1       7.424   7.246  17.235  0.00  0.00    +0.000 C 
BRANCH  14  16
ATOM     16  C   UNL     1       7.415   5.341  15.586  0.00  0.00    +0.000 C 
BRANCH  16  17
ATOM     17  O   UNL     1       6.164   4.988  14.983  0.00  0.00    +0.000 OA
BRANCH  17  18
ATOM     18  C   UNL     1       6.260   3.785  14.220  0.00  0.00    +0.000 C 
BRANCH  18  20
ATOM     19  C   UNL     1       7.327   4.346  12.017  0.00  0.00    +0.000 C 
ATOM     20  C   UNL     1       6.004   4.079  12.735  0.00  0.00    +0.000 C 
ATOM     21  C   UNL     1       5.256   2.932  12.053  0.00  0.00    +0.000 C 
ENDBRANCH  18  20
ENDBRANCH  17  18
ENDBRANCH  16  17
ENDBRANCH  14  16
ENDBRANCH   1  14
TORSDOF 6
ENDMDL
MODEL 8
REMARK VINA RESULT:      -6.4      1.032      1.413
REMARK  Name = 
REMARK  9 active torsions:
REMARK  status: ('A' for Active; 'I' for Inactive)
REMARK    1  A    between atoms: C_1  and  C_2
REMARK    2  A    between atoms: C_2  and  C_3
REMARK    3  A    between atoms: C_2  and  C_4
REMARK    4  A    between atoms: C_4  and  O_5
REMARK    5  A    between atoms: O_5  and  C_6
REMARK    6  A    between atoms: C_6  and  C_7
REMARK    7  A    between atoms: C_7  and  C_8
REMARK    8  A    between atoms: C_7  and  N_9
REMARK    9  A    between atoms: C_10  and  C_12
REMARK                            x       y       z     vdW  Elec       q    Type
REMARK                         _______ _______ _______ _____ _____    ______ ____
ROOT
ATOM      1  N   UNL     1       3.175   5.064  19.422  0.00  0.00    +0.000 N 
ATOM      2  C   UNL     1       4.195   4.175  19.192  0.00  0.00    +0.000 C 
ATOM      3  O   UNL     1       4.350   3.135  19.825  0.00  0.00    +0.000 OA
ATOM      4  H   UNL     1       3.090   5.892  18.854  0.00  0.00    +0.000 HD
ENDROOT
BRANCH   2   5
ATOM      5  C   UNL     1       5.153   4.554  18.097  0.00  0.00    +0.000 A 
ATOM      6  C   UNL     1       6.412   5.260  18.344  0.00  0.00    +0.000 A 
ATOM      7  C   UNL     1       7.280   5.521  17.354  0.00  0.00    +0.000 A 
ATOM      8  C   UNL     1       6.978   5.112  16.027  0.00  0.00    +0.000 A 
ATOM      9  N   UNL     1       7.623   5.217  14.887  0.00  0.00    +0.000 NA
ATOM     10  N   UNL     1       6.851   4.620  13.913  0.00  0.00    +0.000 NA
ATOM     11  C   UNL     1       5.760   4.162  14.488  0.00  0.00    +0.000 A 
ATOM     12  N   UNL     1       5.782   4.441  15.825  0.00  0.00    +0.000 N 
ATOM     13  C   UNL     1       4.877   4.153  16.840  0.00  0.00    +0.000 A 
ENDBRANCH   2   5
BRANCH   1  14
ATOM     14  C   UNL     1       2.168   4.836  20.461  0.00  0.00    +0.000 C 
ATOM     15  C   UNL     1       1.114   3.835  19.975  0.00  0.00    +0.000 C 
BRANCH  14  16
ATOM     16  C   UNL     1       1.488   6.147  20.906  0.00  0.00    +0.000 C 
BRANCH  16  17
ATOM     17  O   UNL     1       1.832   7.207  20.006  0.00  0.00    +0.000 OA
BRANCH  17  18
ATOM     18  C   UNL     1       1.353   8.472  20.465  0.00  0.00    +0.000 C 
BRANCH  18  20
ATOM     19  C   UNL     1       1.770   8.798  18.011  0.00  0.00    +0.000 C 
ATOM     20  C   UNL     1       1.311   9.474  19.303  0.00  0.00    +0.000 C 
ATOM     21  C   UNL     1      -0.087  10.067  19.119  0.00  0.00    +0.000 C 
ENDBRANCH  18  20
ENDBRANCH  17  18
ENDBRANCH  16  17
ENDBRANCH  14  16
ENDBRANCH   1  14
TORSDOF 6
ENDMDL
MODEL 9
REMARK VINA RESULT:      -6.3      2.581      7.104
REMARK  Name = 
REMARK  9 active torsions:
REMARK  status: ('A' for Active; 'I' for Inactive)
REMARK    1  A    between atoms: C_1  and  C_2
REMARK    2  A    between atoms: C_2  and  C_3
REMARK    3  A    between atoms: C_2  and  C_4
REMARK    4  A    between atoms: C_4  and  O_5
REMARK    5  A    between atoms: O_5  and  C_6
REMARK    6  A    between atoms: C_6  and  C_7
REMARK    7  A    between atoms: C_7  and  C_8
REMARK    8  A    between atoms: C_7  and  N_9
REMARK    9  A    between atoms: C_10  and  C_12
REMARK                            x       y       z     vdW  Elec       q    Type
REMARK                         _______ _______ _______ _____ _____    ______ ____
ROOT
ATOM      1  N   UNL     1       5.712   4.995  16.824  0.00  0.00    +0.000 N 
ATOM      2  C   UNL     1       5.625   4.379  18.048  0.00  0.00    +0.000 C 
ATOM      3  O   UNL     1       6.598   4.096  18.739  0.00  0.00    +0.000 OA
ATOM      4  H   UNL     1       4.873   5.219  16.313  0.00  0.00    +0.000 HD
ENDROOT
BRANCH   2   5
ATOM      5  C   UNL     1       4.234   4.047  18.512  0.00  0.00    +0.000 A 
ATOM      6  C   UNL     1       3.119   3.812  17.593  0.00  0.00    +0.000 A 
ATOM      7  C   UNL     1       1.905   3.447  18.034  0.00  0.00    +0.000 A 
ATOM      8  C   UNL     1       1.683   3.286  19.429  0.00  0.00    +0.000 A 
ATOM      9  N   UNL     1       0.632   2.937  20.135  0.00  0.00    +0.000 NA
ATOM     10  N   UNL     1       1.003   2.933  21.463  0.00  0.00    +0.000 NA
ATOM     11  C   UNL     1       2.271   3.275  21.527  0.00  0.00    +0.000 A 
ATOM     12  N   UNL     1       2.759   3.509  20.274  0.00  0.00    +0.000 N 
ATOM     13  C   UNL     1       4.025   3.878  19.832  0.00  0.00    +0.000 A 
ENDBRANCH   2   5
BRANCH   1  14
ATOM     14  C   UNL     1       6.999   5.373  16.237  0.00  0.00    +0.000 C 
ATOM     15  C   UNL     1       7.428   6.758  16.732  0.00  0.00    +0.000 C 
BRANCH  14  16
ATOM     16  C   UNL     1       6.959   5.352  14.695  0.00  0.00    +0.000 C 
BRANCH  16  17
ATOM     17  O   UNL     1       6.673   4.028  14.230  0.00  0.00    +0.000 OA
BRANCH  17  18
ATOM     18  C   UNL     1       5.424   3.962  13.541  0.00  0.00    +0.000 C 
BRANCH  18  20
ATOM     19  C   UNL     1       4.332   3.199  11.413  0.00  0.00    +0.000 C 
ATOM     20  C   UNL     1       5.530   3.008  12.344  0.00  0.00    +0.000 C 
ATOM     21  C   UNL     1       6.835   3.212  11.572  0.00  0.00    +0.000 C 
ENDBRANCH  18  20
ENDBRANCH  17  18
ENDBRANCH  16  17
ENDBRANCH  14  16
ENDBRANCH   1  14
TORSDOF 6
ENDMDL
