MODEL 1
REMARK VINA RESULT:      -6.1      0.000      0.000
REMARK  Name = 
REMARK  10 active torsions:
REMARK  status: ('A' for Active; 'I' for Inactive)
REMARK    1  A    between atoms: C_1  and  N_2
REMARK    2  A    between atoms: N_2  and  C_3
REMARK    3  A    between atoms: N_2  and  C_12
REMARK    4  A    between atoms: C_3  and  C_4
REMARK    5  A    between atoms: C_4  and  C_5
REMARK    6  A    between atoms: N_7  and  C_8
REMARK    7  A    between atoms: C_8  and  C_9
REMARK    8  A    between atoms: C_8  and  C_10
REMARK    9  A    between atoms: C_8  and  C_11
REMARK   10  A    between atoms: C_12  and  C_13
REMARK                            x       y       z     vdW  Elec       q    Type
REMARK                         _______ _______ _______ _____ _____    ______ ____
ROOT
ATOM      1  C   UNL     1       3.526   6.573  18.539  0.00  0.00    +0.000 C 
ENDROOT
BRANCH   1   3
ATOM      2  C   UNL     1       5.536   5.371  18.978  0.00  0.00    +0.000 C 
ATOM      3  N   UNL     1       4.619   5.802  17.902  0.00  0.00    +0.000 NA
BRANCH   3   4
ATOM      4  C   UNL     1       5.343   6.627  16.909  0.00  0.00    +0.000 C 
BRANCH   4   5
ATOM      5  C   UNL     1       6.054   5.781  15.896  0.00  0.00    +0.000 A 
ATOM      6  C   UNL     1       5.510   4.806  15.027  0.00  0.00    +0.000 A 
ATOM      7  C   UNL     1       6.595   4.317  14.350  0.00  0.00    +0.000 A 
ATOM      8  O   UNL     1       7.715   4.960  14.760  0.00  0.00    +0.000 OA
ATOM      9  N   UNL     1       7.381   5.888  15.732  0.00  0.00    +0.000 NA
ENDBRANCH   4   5
ENDBRANCH   3   4
ENDBRANCH   1   3
BRANCH   1  10
ATOM     10  C   UNL     1       2.109   6.267  18.038  0.00  0.00    +0.000 C 
BRANCH  10  11
ATOM     11  C   UNL     1       1.854   4.776  18.149  0.00  0.00    +0.000 C 
ATOM     12  O   UNL     1       1.376   4.120  17.228  0.00  0.00    +0.000 OA
ATOM     13  N   UNL     1       2.213   4.232  19.363  0.00  0.00    +0.000 N 
ATOM     14  H   UNL     1       2.617   4.843  20.063  0.00  0.00    +0.000 HD
BRANCH  13  15
ATOM     15  C   UNL     1       2.056   2.805  19.695  0.00  0.00    +0.000 C 
ATOM     16  C   UNL     1       3.205   1.974  19.098  0.00  0.00    +0.000 C 
ATOM     17  C   UNL     1       2.094   2.647  21.225  0.00  0.00    +0.000 C 
ATOM     18  C   UNL     1       0.701   2.277  19.194  0.00  0.00    +0.000 C 
ENDBRANCH  13  15
ENDBRANCH  10  11
ENDBRANCH   1  10
TORSDOF 6
ENDMDL
MODEL 2
REMARK VINA RESULT:      -6.1      1.340      1.659
REMARK  Name = 
REMARK  10 active torsions:
REMARK  status: ('A' for Active; 'I' for Inactive)
REMARK    1  A    between atoms: C_1  and  N_2
REMARK    2  A    between atoms: N_2  and  C_3
REMARK    3  A    between atoms: N_2  and  C_12
REMARK    4  A    between atoms: C_3  and  C_4
REMARK    5  A    between atoms: C_4  and  C_5
REMARK    6  A    between atoms: N_7  and  C_8
REMARK    7  A    between atoms: C_8  and  C_9
REMARK    8  A    between atoms: C_8  and  C_10
REMARK    9  A    between atoms: C_8  and  C_11
REMARK   10  A    between atoms: C_12  and  C_13
REMARK                            x       y       z     vdW  Elec       q    Type
REMARK                         _______ _______ _______ _____ _____    ______ ____
ROOT
ATOM      1  C   UNL     1       5.640   4.587  18.500  0.00  0.00    +0.000 C 
ENDROOT
BRANCH   1   3
ATOM      2  C   UNL     1       7.740   5.633  18.912  0.00  0.00    +0.000 C 
ATOM      3  N   UNL     1       6.919   4.985  17.868  0.00  0.00    +0.000 NA
BRANCH   3   4
ATOM      4  C   UNL     1       6.688   5.919  16.743  0.00  0.00    +0.000 C 
BRANCH   4   5
ATOM      5  C   UNL     1       6.653   5.204  15.426  0.00  0.00    +0.000 A 
ATOM      6  C   UNL     1       5.769   4.183  15.002  0.00  0.00    +0.000 A 
ATOM      7  C   UNL     1       6.203   3.866  13.742  0.00  0.00    +0.000 A 
ATOM      8  O   UNL     1       7.258   4.649  13.414  0.00  0.00    +0.000 OA
ATOM      9  N   UNL     1       7.546   5.499  14.468  0.00  0.00    +0.000 NA
ENDBRANCH   4   5
ENDBRANCH   3   4
ENDBRANCH   1   3
BRANCH   1  10
ATOM     10  C   UNL     1       4.481   5.580  18.352  0.00  0.00    +0.000 C 
BRANCH  10  11
ATOM     11  C   UNL     1       3.175   4.866  18.647  0.00  0.00    +0.000 C 
ATOM     12  O   UNL     1       2.175   5.008  17.949  0.00  0.00    +0.000 OA
ATOM     13  N   UNL     1       3.220   4.045  19.752  0.00  0.00    +0.000 N 
ATOM     14  H   UNL     1       4.092   3.972  20.263  0.00  0.00    +0.000 HD
BRANCH  13  15
ATOM     15  C   UNL     1       2.070   3.253  20.226  0.00  0.00    +0.000 C 
ATOM     16  C   UNL     1       1.765   2.096  19.259  0.00  0.00    +0.000 C 
ATOM     17  C   UNL     1       2.417   2.652  21.599  0.00  0.00    +0.000 C 
ATOM     18  C   UNL     1       0.829   4.146  20.396  0.00  0.00    +0.000 C 
ENDBRANCH  13  15
ENDBRANCH  10  11
ENDBRANCH   1  10
TORSDOF 6
ENDMDL
MODEL 3
REMARK VINA RESULT:      -6.0      1.188      1.791
REMARK  Name = 
REMARK  10 active torsions:
REMARK  status: ('A' for Active; 'I' for Inactive)
REMARK    1  A    between atoms: C_1  and  N_2
REMARK    2  A    between atoms: N_2  and  C_3
REMARK    3  A    between atoms: N_2  and  C_12
REMARK    4  A    between atoms: C_3  and  C_4
REMARK    5  A    between atoms: C_4  and  C_5
REMARK    6  A    between atoms: N_7  and  C_8
REMARK    7  A    between atoms: C_8  and  C_9
REMARK    8  A    between atoms: C_8  and  C_10
REMARK    9  A    between atoms: C_8  and  C_11
REMARK   10  A    between atoms: C_12  and  C_13
REMARK                            x       y       z     vdW  Elec       q    Type
REMARK                         _______ _______ _______ _____ _____    ______ ____
ROOT
ATOM      1  C   UNL     1       5.106   5.626  17.395  0.00  0.00    +0.000 C 
ENDROOT
BRANCH   1   3
ATOM      2  C   UNL     1       6.406   5.430  19.381  0.00  0.00    +0.000 C 
ATOM      3  N   UNL     1       6.081   4.765  18.102  0.00  0.00    +0.000 NA
BRANCH   3   4
ATOM      4  C   UNL     1       7.308   4.578  17.294  0.00  0.00    +0.000 C 
BRANCH   4   5
ATOM      5  C   UNL     1       7.010   4.574  15.825  0.00  0.00    +0.000 A 
ATOM      6  C   UNL     1       6.165   3.701  15.100  0.00  0.00    +0.000 A 
ATOM      7  C   UNL     1       6.287   4.117  13.801  0.00  0.00    +0.000 A 
ATOM      8  O   UNL     1       7.127   5.178  13.741  0.00  0.00    +0.000 OA
ATOM      9  N   UNL     1       7.584   5.475  15.013  0.00  0.00    +0.000 NA
ENDBRANCH   4   5
ENDBRANCH   3   4
ENDBRANCH   1   3
BRANCH   1  10
ATOM     10  C   UNL     1       3.939   6.153  18.241  0.00  0.00    +0.000 C 
BRANCH  10  11
ATOM     11  C   UNL     1       2.936   5.035  18.453  0.00  0.00    +0.000 C 
ATOM     12  O   UNL     1       2.064   4.768  17.631  0.00  0.00    +0.000 OA
ATOM     13  N   UNL     1       3.100   4.349  19.637  0.00  0.00    +0.000 N 
ATOM     14  H   UNL     1       3.857   4.624  20.251  0.00  0.00    +0.000 HD
BRANCH  13  15
ATOM     15  C   UNL     1       2.241   3.226  20.054  0.00  0.00    +0.000 C 
ATOM     16  C   UNL     1       0.757   3.631  20.027  0.00  0.00    +0.000 C 
ATOM     17  C   UNL     1       2.438   2.062  19.067  0.00  0.00    +0.000 C 
ATOM     18  C   UNL     1       2.634   2.734  21.457  0.00  0.00    +0.000 C 
ENDBRANCH  13  15
ENDBRANCH  10  11
ENDBRANCH   1  10
TORSDOF 6
ENDMDL
MODEL 4
REMARK VINA RESULT:      -6.0      2.072      2.837
REMARK  Name = 
REMARK  10 active torsions:
REMARK  status: ('A' for Active; 'I' for Inactive)
REMARK    1  A    between atoms: C_1  and  N_2
REMARK    2  A    between atoms: N_2  and  C_3
REMARK    3  A    between atoms: N_2  and  C_12
REMARK    4  A    between atoms: C_3  and  C_4
REMARK    5  A    between atoms: C_4  and  C_5
REMARK    6  A    between atoms: N_7  and  C_8
REMARK    7  A    between atoms: C_8  and  C_9
REMARK    8  A    between atoms: C_8  and  C_10
REMARK    9  A    between atoms: C_8  and  C_11
REMARK   10  A    between atoms: C_12  and  C_13
REMARK                            x       y       z     vdW  Elec       q    Type
REMARK                         _______ _______ _______ _____ _____    ______ ____
ROOT
ATOM      1  C   UNL     1       7.393   4.745  17.682  0.00  0.00    +0.000 C 
ENDROOT
BRANCH   1   3
ATOM      2  C   UNL     1       7.429   7.094  17.284  0.00  0.00    +0.000 C 
ATOM      3  N   UNL     1       7.378   5.775  16.618  0.00  0.00    +0.000 NA
BRANCH   3   4
ATOM      4  C   UNL     1       6.156   5.666  15.789  0.00  0.00    +0.000 C 
BRANCH   4   5
ATOM      5  C   UNL     1       6.433   4.991  14.479  0.00  0.00    +0.000 A 
ATOM      6  C   UNL     1       5.751   3.900  13.889  0.00  0.00    +0.000 A 
ATOM      7  C   UNL     1       6.435   3.666  12.726  0.00  0.00    +0.000 A 
ATOM      8  O   UNL     1       7.445   4.561  12.605  0.00  0.00    +0.000 OA
ATOM      9  N   UNL     1       7.449   5.402  13.704  0.00  0.00    +0.000 NA
ENDBRANCH   4   5
ENDBRANCH   3   4
ENDBRANCH   1   3
BRANCH   1  10
ATOM     10  C   UNL     1       6.824   5.175  19.041  0.00  0.00    +0.000 C 
BRANCH  10  11
ATOM     11  C   UNL     1       5.362   4.778  19.115  0.00  0.00    +0.000 C 
ATOM     12  O   UNL     1       4.477   5.573  19.420  0.00  0.00    +0.000 OA
ATOM     13  N   UNL     1       5.121   3.458  18.802  0.00  0.00    +0.000 N 
ATOM     14  H   UNL     1       5.907   2.873  18.544  0.00  0.00    +0.000 HD
BRANCH  13  15
ATOM     15  C   UNL     1       3.778   2.850  18.808  0.00  0.00    +0.000 C 
ATOM     16  C   UNL     1       3.849   1.359  18.434  0.00  0.00    +0.000 C 
ATOM     17  C   UNL     1       3.192   2.961  20.226  0.00  0.00    +0.000 C 
ATOM     18  C   UNL     1       2.840   3.597  17.844  0.00  0.00    +0.000 C 
ENDBRANCH  13  15
ENDBRANCH  10  11
ENDBRANCH   1  10
TORSDOF 6
ENDMDL
MODEL 5
REMARK VINA RESULT:      -6.0      2.025      2.875
REMARK  Name = 
REMARK  10 active torsions:
REMARK  status: ('A' for Active; 'I' for Inactive)
REMARK    1  A    between atoms: C_1  and  N_2
REMARK    2  A    between atoms: N_2  and  C_3
REMARK    3  A    between atoms: N_2  and  C_12
REMARK    4  A    between atoms: C_3  and  C_4
REMARK    5  A    between atoms: C_4  and  C_5
REMARK    6  A    between atoms: N_7  and  C_8
REMARK    7  A    between atoms: C_8  and  C_9
REMARK    8  A    between atoms: C_8  and  C_10
REMARK    9  A    between atoms: C_8  and  C_11
REMARK   10  A    between atoms: C_12  and  C_13
REMARK                            x       y       z     vdW  Elec       q    Type
REMARK                         _______ _______ _______ _____ _____    ______ ____
ROOT
ATOM      1  C   UNL     1       4.536   4.139  16.326  0.00  0.00    +0.000 C 
ENDROOT
BRANCH   1   3
ATOM      2  C   UNL     1       5.612   4.205  14.202  0.00  0.00    +0.000 C 
ATOM      3  N   UNL     1       5.697   4.694  15.594  0.00  0.00    +0.000 NA
BRANCH   3   4
ATOM      4  C   UNL     1       6.972   4.263  16.213  0.00  0.00    +0.000 C 
BRANCH   4   5
ATOM      5  C   UNL     1       7.384   5.177  17.328  0.00  0.00    +0.000 A 
ATOM      6  C   UNL     1       7.444   6.591  17.331  0.00  0.00    +0.000 A 
ATOM      7  C   UNL     1       7.916   6.904  18.578  0.00  0.00    +0.000 A 
ATOM      8  O   UNL     1       8.108   5.767  19.290  0.00  0.00    +0.000 OA
ATOM      9  N   UNL     1       7.771   4.674  18.511  0.00  0.00    +0.000 NA
ENDBRANCH   4   5
ENDBRANCH   3   4
ENDBRANCH   1   3
BRANCH   1  10
ATOM     10  C   UNL     1       3.792   5.116  17.246  0.00  0.00    +0.000 C 
BRANCH  10  11
ATOM     11  C   UNL     1       2.646   4.388  17.922  0.00  0.00    +0.000 C 
ATOM     12  O   UNL     1       1.549   4.248  17.389  0.00  0.00    +0.000 OA
ATOM     13  N   UNL     1       2.952   3.894  19.171  0.00  0.00    +0.000 N 
ATOM     14  H   UNL     1       3.888   4.039  19.530  0.00  0.00    +0.000 HD
BRANCH  13  15
ATOM     15  C   UNL     1       1.994   3.153  20.011  0.00  0.00    +0.000 C 
ATOM     16  C   UNL     1       1.490   1.893  19.286  0.00  0.00    +0.000 C 
ATOM     17  C   UNL     1       2.707   2.710  21.301  0.00  0.00    +0.000 C 
ATOM     18  C   UNL     1       0.809   4.052  20.405  0.00  0.00    +0.000 C 
ENDBRANCH  13  15
ENDBRANCH  10  11
ENDBRANCH   1  10
TORSDOF 6
ENDMDL
MODEL 6
REMARK VINA RESULT:      -5.9      1.887      2.545
REMARK  Name = 
REMARK  10 active torsions:
REMARK  status: ('A' for Active; 'I' for Inactive)
REMARK    1  A    between atoms: C_1  and  N_2
REMARK    2  A    between atoms: N_2  and  C_3
REMARK    3  A    between atoms: N_2  and  C_12
REMARK    4  A    between atoms: C_3  and  C_4
REMARK    5  A    between atoms: C_4  and  C_5
REMARK    6  A    between atoms: N_7  and  C_8
REMARK    7  A    between atoms: C_8  and  C_9
REMARK    8  A    between atoms: C_8  and  C_10
REMARK    9  A    between atoms: C_8  and  C_11
REMARK   10  A    between atoms: C_12  and  C_13
REMARK                            x       y       z     vdW  Elec       q    Type
REMARK                         _______ _______ _______ _____ _____    ______ ____
ROOT
ATOM      1  C   UNL     1       6.514   5.222  18.384  0.00  0.00    +0.000 C 
ENDROOT
BRANCH   1   3
ATOM      2  C   UNL     1       5.386   6.554  16.763  0.00  0.00    +0.000 C 
ATOM      3  N   UNL     1       6.480   5.577  16.947  0.00  0.00    +0.000 NA
BRANCH   3   4
ATOM      4  C   UNL     1       6.245   4.378  16.109  0.00  0.00    +0.000 C 
BRANCH   4   5
ATOM      5  C   UNL     1       6.693   4.593  14.695  0.00  0.00    +0.000 A 
ATOM      6  C   UNL     1       6.226   3.961  13.518  0.00  0.00    +0.000 A 
ATOM      7  C   UNL     1       6.995   4.498  12.521  0.00  0.00    +0.000 A 
ATOM      8  O   UNL     1       7.853   5.406  13.047  0.00  0.00    +0.000 OA
ATOM      9  N   UNL     1       7.665   5.475  14.417  0.00  0.00    +0.000 NA
ENDBRANCH   4   5
ENDBRANCH   3   4
ENDBRANCH   1   3
BRANCH   1  10
ATOM     10  C   UNL     1       5.237   5.521  19.180  0.00  0.00    +0.000 C 
BRANCH  10  11
ATOM     11  C   UNL     1       4.538   4.214  19.503  0.00  0.00    +0.000 C 
ATOM     12  O   UNL     1       5.141   3.148  19.589  0.00  0.00    +0.000 OA
ATOM     13  N   UNL     1       3.179   4.336  19.699  0.00  0.00    +0.000 N 
ATOM     14  H   UNL     1       2.763   5.257  19.626  0.00  0.00    +0.000 HD
BRANCH  13  15
ATOM     15  C   UNL     1       2.297   3.200  20.023  0.00  0.00    +0.000 C 
ATOM     16  C   UNL     1       0.819   3.626  19.987  0.00  0.00    +0.000 C 
ATOM     17  C   UNL     1       2.504   2.098  18.969  0.00  0.00    +0.000 C 
ATOM     18  C   UNL     1       2.650   2.615  21.401  0.00  0.00    +0.000 C 
ENDBRANCH  13  15
ENDBRANCH  10  11
ENDBRANCH   1  10
TORSDOF 6
ENDMDL
MODEL 7
REMARK VINA RESULT:      -5.9      1.567      2.152
REMARK  Name = 
REMARK  10 active torsions:
REMARK  status: ('A' for Active; 'I' for Inactive)
REMARK    1  A    between atoms: C_1  and  N_2
REMARK    2  A    between atoms: N_2  and  C_3
REMARK    3  A    between atoms: N_2  and  C_12
REMARK    4  A    between atoms: C_3  and  C_4
REMARK    5  A    between atoms: C_4  and  C_5
REMARK    6  A    between atoms: N_7  and  C_8
REMARK    7  A    between atoms: C_8  and  C_9
REMARK    8  A    between atoms: C_8  and  C_10
REMARK    9  A    between atoms: C_8  and  C_11
REMARK   10  A    between atoms: C_12  and  C_13
REMARK                            x       y       z     vdW  Elec       q    Type
REMARK                         _______ _______ _______ _____ _____    ______ ____
ROOT
ATOM      1  C   UNL     1       5.892   4.512  18.729  0.00  0.00    +0.000 C 
ENDROOT
BRANCH   1   3
ATOM      2  C   UNL     1       7.942   5.678  19.060  0.00  0.00    +0.000 C 
ATOM      3  N   UNL     1       7.108   5.004  18.043  0.00  0.00    +0.000 NA
BRANCH   3   4
ATOM      4  C   UNL     1       6.762   5.946  16.955  0.00  0.00    +0.000 C 
BRANCH   4   5
ATOM      5  C   UNL     1       6.619   5.245  15.638  0.00  0.00    +0.000 A 
ATOM      6  C   UNL     1       5.582   4.385  15.206  0.00  0.00    +0.000 A 
ATOM      7  C   UNL     1       5.967   3.999  13.950  0.00  0.00    +0.000 A 
ATOM      8  O   UNL     1       7.140   4.596  13.631  0.00  0.00    +0.000 OA
ATOM      9  N   UNL     1       7.557   5.387  14.688  0.00  0.00    +0.000 NA
ENDBRANCH   4   5
ENDBRANCH   3   4
ENDBRANCH   1   3
BRANCH   1  10
ATOM     10  C   UNL     1       5.085   5.565  19.500  0.00  0.00    +0.000 C 
BRANCH  10  11
ATOM     11  C   UNL     1       3.606   5.334  19.255  0.00  0.00    +0.000 C 
ATOM     12  O   UNL     1       2.810   6.258  19.112  0.00  0.00    +0.000 OA
ATOM     13  N   UNL     1       3.245   4.006  19.199  0.00  0.00    +0.000 N 
ATOM     14  H   UNL     1       3.969   3.306  19.311  0.00  0.00    +0.000 HD
BRANCH  13  15
ATOM     15  C   UNL     1       1.863   3.545  18.971  0.00  0.00    +0.000 C 
ATOM     16  C   UNL     1       1.282   4.171  17.691  0.00  0.00    +0.000 C 
ATOM     17  C   UNL     1       1.875   2.017  18.794  0.00  0.00    +0.000 C 
ATOM     18  C   UNL     1       0.973   3.879  20.180  0.00  0.00    +0.000 C 
ENDBRANCH  13  15
ENDBRANCH  10  11
ENDBRANCH   1  10
TORSDOF 6
ENDMDL
MODEL 8
REMARK VINA RESULT:      -5.8      1.870      2.673
REMARK  Name = 
REMARK  10 active torsions:
REMARK  status: ('A' for Active; 'I' for Inactive)
REMARK    1  A    between atoms: C_1  and  N_2
REMARK    2  A    between atoms: N_2  and  C_3
REMARK    3  A    between atoms: N_2  and  C_12
REMARK    4  A    between atoms: C_3  and  C_4
REMARK    5  A    between atoms: C_4  and  C_5
REMARK    6  A    between atoms: N_7  and  C_8
REMARK    7  A    between atoms: C_8  and  C_9
REMARK    8  A    between atoms: C_8  and  C_10
REMARK    9  A    between atoms: C_8  and  C_11
REMARK   10  A    between atoms: C_12  and  C_13
REMARK                            x       y       z     vdW  Elec       q    Type
REMARK                         _______ _______ _______ _____ _____    ______ ____
ROOT
ATOM      1  C   UNL     1       5.522   5.783  18.043  0.00  0.00    +0.000 C 
ENDROOT
BRANCH   1   3
ATOM      2  C   UNL     1       4.983   6.534  15.848  0.00  0.00    +0.000 C 
ATOM      3  N   UNL     1       6.043   5.902  16.662  0.00  0.00    +0.000 NA
BRANCH   3   4
ATOM      4  C   UNL     1       6.393   4.574  16.109  0.00  0.00    +0.000 C 
BRANCH   4   5
ATOM      5  C   UNL     1       6.796   4.661  14.668  0.00  0.00    +0.000 A 
ATOM      6  C   UNL     1       6.283   3.938  13.565  0.00  0.00    +0.000 A 
ATOM      7  C   UNL     1       7.025   4.377  12.501  0.00  0.00    +0.000 A 
ATOM      8  O   UNL     1       7.911   5.313  12.921  0.00  0.00    +0.000 OA
ATOM      9  N   UNL     1       7.770   5.502  14.285  0.00  0.00    +0.000 NA
ENDBRANCH   4   5
ENDBRANCH   3   4
ENDBRANCH   1   3
BRANCH   1  10
ATOM     10  C   UNL     1       6.025   4.577  18.848  0.00  0.00    +0.000 C 
BRANCH  10  11
ATOM     11  C   UNL     1       4.840   3.714  19.239  0.00  0.00    +0.000 C 
ATOM     12  O   UNL     1       4.946   2.755  19.999  0.00  0.00    +0.000 OA
ATOM     13  N   UNL     1       3.646   4.107  18.676  0.00  0.00    +0.000 N 
ATOM     14  H   UNL     1       3.644   4.921  18.072  0.00  0.00    +0.000 HD
BRANCH  13  15
ATOM     15  C   UNL     1       2.366   3.417  18.913  0.00  0.00    +0.000 C 
ATOM     16  C   UNL     1       1.846   3.701  20.334  0.00  0.00    +0.000 C 
ATOM     17  C   UNL     1       1.326   3.944  17.909  0.00  0.00    +0.000 C 
ATOM     18  C   UNL     1       2.517   1.902  18.694  0.00  0.00    +0.000 C 
ENDBRANCH  13  15
ENDBRANCH  10  11
ENDBRANCH   1  10
TORSDOF 6
ENDMDL
MODEL 9
REMARK VINA RESULT:      -5.8      1.541      2.109
REMARK  Name = 
REMARK  10 active torsions:
REMARK  status: ('A' for Active; 'I' for Inactive)
REMARK    1  A    between atoms: C_1  and  N_2
REMARK    2  A    between atoms: N_2  and  C_3
REMARK    3  A    between atoms: N_2  and  C_12
REMARK    4  A    between atoms: C_3  and  C_4
REMARK    5  A    between atoms: C_4  and  C_5
REMARK    6  A    between atoms: N_7  and  C_8
REMARK    7  A    between atoms: C_8  and  C_9
REMARK    8  A    between atoms: C_8  and  C_10
REMARK    9  A    between atoms: C_8  and  C_11
REMARK   10  A    between atoms: C_12  and  C_13
REMARK                            x       y       z     vdW  Elec       q    Type
REMARK                         _______ _______ _______ _____ _____    ______ ____
ROOT
ATOM      1  C   UNL     1       5.774   4.432  19.006  0.00  0.00    +0.000 C 
ENDROOT
BRANCH   1   3
ATOM      2  C   UNL     1       7.712   5.817  19.005  0.00  0.00    +0.000 C 
ATOM      3  N   UNL     1       6.815   5.026  18.137  0.00  0.00    +0.000 NA
BRANCH   3   4
ATOM      4  C   UNL     1       6.211   5.891  17.098  0.00  0.00    +0.000 C 
BRANCH   4   5
ATOM      5  C   UNL     1       6.435   5.344  15.721  0.00  0.00    +0.000 A 
ATOM      6  C   UNL     1       5.598   4.487  14.966  0.00  0.00    +0.000 A 
ATOM      7  C   UNL     1       6.295   4.273  13.807  0.00  0.00    +0.000 A 
ATOM      8  O   UNL     1       7.460   4.964  13.842  0.00  0.00    +0.000 OA
ATOM      9  N   UNL     1       7.554   5.646  15.044  0.00  0.00    +0.000 NA
ENDBRANCH   4   5
ENDBRANCH   3   4
ENDBRANCH   1   3
BRANCH   1  10
ATOM     10  C   UNL     1       4.866   3.386  18.347  0.00  0.00    +0.000 C 
BRANCH  10  11
ATOM     11  C   UNL     1       3.420   3.708  18.674  0.00  0.00    +0.000 C 
ATOM     12  O   UNL     1       2.719   4.403  17.943  0.00  0.00    +0.000 OA
ATOM     13  N   UNL     1       2.969   3.147  19.849  0.00  0.00    +0.000 N 
ATOM     14  H   UNL     1       3.610   2.573  20.384  0.00  0.00    +0.000 HD
BRANCH  13  15
ATOM     15  C   UNL     1       1.600   3.326  20.365  0.00  0.00    +0.000 C 
ATOM     16  C   UNL     1       1.281   4.817  20.566  0.00  0.00    +0.000 C 
ATOM     17  C   UNL     1       0.607   2.758  19.336  0.00  0.00    +0.000 C 
ATOM     18  C   UNL     1       1.413   2.558  21.684  0.00  0.00    +0.000 C 
ENDBRANCH  13  15
ENDBRANCH  10  11
ENDBRANCH   1  10
TORSDOF 6
ENDMDL
