MODEL 1
REMARK VINA RESULT:      -8.0      0.000      0.000
REMARK  Name = 
REMARK  4 active torsions:
REMARK  status: ('A' for Active; 'I' for Inactive)
REMARK    1  A    between atoms: S_2  and  N_4
REMARK    2  A    between atoms: S_2  and  C_12
REMARK    3  A    between atoms: N_4  and  C_5
REMARK    4  A    between atoms: C_17  and  C_18
REMARK                            x       y       z     vdW  Elec       q    Type
REMARK                         _______ _______ _______ _____ _____    ______ ____
ROOT
ATOM      1  O   UNL     1       4.303   5.714  18.562  0.00  0.00    +0.000 OA
ATOM      2  S   UNL     1       5.177   4.572  18.403  0.00  0.00    +0.000 S 
ATOM      3  O   UNL     1       6.260   4.339  19.340  0.00  0.00    +0.000 OA
ENDROOT
BRANCH   2   4
ATOM      4  C   UNL     1       5.880   4.714  16.765  0.00  0.00    +0.000 A 
ATOM      5  C   UNL     1       5.494   3.749  15.816  0.00  0.00    +0.000 A 
ATOM      6  C   UNL     1       6.029   3.773  14.529  0.00  0.00    +0.000 A 
ATOM      7  C   UNL     1       6.958   4.748  14.183  0.00  0.00    +0.000 A 
ATOM      8  C   UNL     1       7.352   5.697  15.123  0.00  0.00    +0.000 A 
ATOM      9  C   UNL     1       6.827   5.703  16.434  0.00  0.00    +0.000 A 
BRANCH   9  10
ATOM     10  C   UNL     1       7.314   6.806  17.343  0.00  0.00    +0.000 C 
ATOM     11  F   UNL     1       7.927   6.419  18.491  0.00  0.00    +0.000 F 
ATOM     12  F   UNL     1       8.171   7.658  16.718  0.00  0.00    +0.000 F 
ATOM     13  F   UNL     1       6.277   7.586  17.772  0.00  0.00    +0.000 F 
ENDBRANCH   9  10
ENDBRANCH   2   4
BRANCH   2  14
ATOM     14  N   UNL     1       4.227   3.175  18.339  0.00  0.00    +0.000 N 
ATOM     15  H   UNL     1       4.794   2.345  18.143  0.00  0.00    +0.000 HD
BRANCH  14  16
ATOM     16  C   UNL     1       3.190   3.032  19.308  0.00  0.00    +0.000 A 
ATOM     17  C   UNL     1       1.905   3.446  18.960  0.00  0.00    +0.000 A 
ATOM     18  C   UNL     1       0.871   3.374  19.896  0.00  0.00    +0.000 A 
ATOM     19  C   UNL     1       1.125   2.910  21.188  0.00  0.00    +0.000 A 
ATOM     20  C   UNL     1       2.410   2.498  21.541  0.00  0.00    +0.000 A 
ATOM     21  C   UNL     1       3.431   2.551  20.596  0.00  0.00    +0.000 A 
ATOM     22  F   UNL     1       4.654   2.126  20.940  0.00  0.00    +0.000 F 
ENDBRANCH  14  16
ENDBRANCH   2  14
TORSDOF 4
ENDMDL
MODEL 2
REMARK VINA RESULT:      -7.9      1.104      1.706
REMARK  Name = 
REMARK  4 active torsions:
REMARK  status: ('A' for Active; 'I' for Inactive)
REMARK    1  A    between atoms: S_2  and  N_4
REMARK    2  A    between atoms: S_2  and  C_12
REMARK    3  A    between atoms: N_4  and  C_5
REMARK    4  A    between atoms: C_17  and  C_18
REMARK                            x       y       z     vdW  Elec       q    Type
REMARK                         _______ _______ _______ _____ _____    ______ ____
ROOT
ATOM      1  O   UNL     1       4.421   5.726  19.028  0.00  0.00    +0.000 OA
ATOM      2  S   UNL     1       5.469   4.737  18.910  0.00  0.00    +0.000 S 
ATOM      3  O   UNL     1       6.646   4.808  19.755  0.00  0.00    +0.000 OA
ENDROOT
BRANCH   2   4
ATOM      4  C   UNL     1       6.006   4.791  17.205  0.00  0.00    +0.000 A 
ATOM      5  C   UNL     1       5.596   3.736  16.369  0.00  0.00    +0.000 A 
ATOM      6  C   UNL     1       6.006   3.690  15.038  0.00  0.00    +0.000 A 
ATOM      7  C   UNL     1       6.835   4.687  14.534  0.00  0.00    +0.000 A 
ATOM      8  C   UNL     1       7.253   5.726  15.361  0.00  0.00    +0.000 A 
ATOM      9  C   UNL     1       6.853   5.805  16.712  0.00  0.00    +0.000 A 
BRANCH   9  10
ATOM     10  C   UNL     1       7.350   7.000  17.488  0.00  0.00    +0.000 C 
ATOM     11  F   UNL     1       8.159   7.863  16.820  0.00  0.00    +0.000 F 
ATOM     12  F   UNL     1       6.337   7.746  18.005  0.00  0.00    +0.000 F 
ATOM     13  F   UNL     1       8.100   6.614  18.563  0.00  0.00    +0.000 F 
ENDBRANCH   9  10
ENDBRANCH   2   4
BRANCH   2  14
ATOM     14  N   UNL     1       4.782   3.203  19.091  0.00  0.00    +0.000 N 
ATOM     15  H   UNL     1       5.401   2.575  19.612  0.00  0.00    +0.000 HD
BRANCH  14  16
ATOM     16  C   UNL     1       3.389   3.130  19.390  0.00  0.00    +0.000 A 
ATOM     17  C   UNL     1       3.006   3.126  20.731  0.00  0.00    +0.000 A 
ATOM     18  C   UNL     1       1.657   3.002  21.070  0.00  0.00    +0.000 A 
ATOM     19  C   UNL     1       0.692   2.858  20.071  0.00  0.00    +0.000 A 
ATOM     20  C   UNL     1       1.073   2.857  18.730  0.00  0.00    +0.000 A 
ATOM     21  C   UNL     1       2.416   3.005  18.398  0.00  0.00    +0.000 A 
ATOM     22  F   UNL     1       2.765   3.031  17.103  0.00  0.00    +0.000 F 
ENDBRANCH  14  16
ENDBRANCH   2  14
TORSDOF 4
ENDMDL
MODEL 3
REMARK VINA RESULT:      -7.7      1.159      1.760
REMARK  Name = 
REMARK  4 active torsions:
REMARK  status: ('A' for Active; 'I' for Inactive)
REMARK    1  A    between atoms: S_2  and  N_4
REMARK    2  A    between atoms: S_2  and  C_12
REMARK    3  A    between atoms: N_4  and  C_5
REMARK    4  A    between atoms: C_17  and  C_18
REMARK                            x       y       z     vdW  Elec       q    Type
REMARK                         _______ _______ _______ _____ _____    ______ ____
ROOT
ATOM      1  O   UNL     1       3.902   6.139  18.130  0.00  0.00    +0.000 OA
ATOM      2  S   UNL     1       4.790   5.002  18.230  0.00  0.00    +0.000 S 
ATOM      3  O   UNL     1       5.742   4.906  19.321  0.00  0.00    +0.000 OA
ENDROOT
BRANCH   2   4
ATOM      4  C   UNL     1       5.702   4.952  16.692  0.00  0.00    +0.000 A 
ATOM      5  C   UNL     1       5.316   3.982  15.749  0.00  0.00    +0.000 A 
ATOM      6  C   UNL     1       6.004   3.858  14.543  0.00  0.00    +0.000 A 
ATOM      7  C   UNL     1       7.084   4.690  14.274  0.00  0.00    +0.000 A 
ATOM      8  C   UNL     1       7.478   5.643  15.210  0.00  0.00    +0.000 A 
ATOM      9  C   UNL     1       6.800   5.798  16.439  0.00  0.00    +0.000 A 
BRANCH   9  10
ATOM     10  C   UNL     1       7.308   6.891  17.348  0.00  0.00    +0.000 C 
ATOM     11  F   UNL     1       6.381   7.758  17.829  0.00  0.00    +0.000 F 
ATOM     12  F   UNL     1       7.976   6.403  18.429  0.00  0.00    +0.000 F 
ATOM     13  F   UNL     1       8.205   7.694  16.701  0.00  0.00    +0.000 F 
ENDBRANCH   9  10
ENDBRANCH   2   4
BRANCH   2  14
ATOM     14  N   UNL     1       3.858   3.591  18.219  0.00  0.00    +0.000 N 
ATOM     15  H   UNL     1       4.411   2.781  17.923  0.00  0.00    +0.000 HD
BRANCH  14  16
ATOM     16  C   UNL     1       2.944   3.390  19.295  0.00  0.00    +0.000 A 
ATOM     17  C   UNL     1       3.435   2.843  20.479  0.00  0.00    +0.000 A 
ATOM     18  C   UNL     1       2.565   2.579  21.539  0.00  0.00    +0.000 A 
ATOM     19  C   UNL     1       1.199   2.841  21.408  0.00  0.00    +0.000 A 
ATOM     20  C   UNL     1       0.705   3.384  20.223  0.00  0.00    +0.000 A 
ATOM     21  C   UNL     1       1.581   3.667  19.179  0.00  0.00    +0.000 A 
ATOM     22  F   UNL     1       1.096   4.216  18.057  0.00  0.00    +0.000 F 
ENDBRANCH  14  16
ENDBRANCH   2  14
TORSDOF 4
ENDMDL
MODEL 4
REMARK VINA RESULT:      -7.4      1.431      1.823
REMARK  Name = 
REMARK  4 active torsions:
REMARK  status: ('A' for Active; 'I' for Inactive)
REMARK    1  A    between atoms: S_2  and  N_4
REMARK    2  A    between atoms: S_2  and  C_12
REMARK    3  A    between atoms: N_4  and  C_5
REMARK    4  A    between atoms: C_17  and  C_18
REMARK                            x       y       z     vdW  Elec       q    Type
REMARK                         _______ _______ _______ _____ _____    ______ ____
ROOT
ATOM      1  O   UNL     1       3.727   7.364  17.674  0.00  0.00    +0.000 OA
ATOM      2  S   UNL     1       4.017   5.975  17.952  0.00  0.00    +0.000 S 
ATOM      3  O   UNL     1       4.560   5.579  19.238  0.00  0.00    +0.000 OA
ENDROOT
BRANCH   2   4
ATOM      4  C   UNL     1       5.159   5.446  16.681  0.00  0.00    +0.000 A 
ATOM      5  C   UNL     1       4.711   4.456  15.787  0.00  0.00    +0.000 A 
ATOM      6  C   UNL     1       5.557   3.968  14.793  0.00  0.00    +0.000 A 
ATOM      7  C   UNL     1       6.856   4.452  14.691  0.00  0.00    +0.000 A 
ATOM      8  C   UNL     1       7.309   5.422  15.582  0.00  0.00    +0.000 A 
ATOM      9  C   UNL     1       6.476   5.941  16.597  0.00  0.00    +0.000 A 
BRANCH   9  10
ATOM     10  C   UNL     1       7.079   7.012  17.473  0.00  0.00    +0.000 C 
ATOM     11  F   UNL     1       6.336   8.133  17.660  0.00  0.00    +0.000 F 
ATOM     12  F   UNL     1       7.400   6.553  18.713  0.00  0.00    +0.000 F 
ATOM     13  F   UNL     1       8.251   7.479  16.946  0.00  0.00    +0.000 F 
ENDBRANCH   9  10
ENDBRANCH   2   4
BRANCH   2  14
ATOM     14  N   UNL     1       2.618   5.068  17.670  0.00  0.00    +0.000 N 
ATOM     15  H   UNL     1       2.586   4.720  16.708  0.00  0.00    +0.000 HD
BRANCH  14  16
ATOM     16  C   UNL     1       2.188   4.174  18.695  0.00  0.00    +0.000 A 
ATOM     17  C   UNL     1       1.633   4.719  19.851  0.00  0.00    +0.000 A 
ATOM     18  C   UNL     1       1.248   3.884  20.902  0.00  0.00    +0.000 A 
ATOM     19  C   UNL     1       1.440   2.503  20.807  0.00  0.00    +0.000 A 
ATOM     20  C   UNL     1       1.999   1.955  19.653  0.00  0.00    +0.000 A 
ATOM     21  C   UNL     1       2.358   2.792  18.600  0.00  0.00    +0.000 A 
ATOM     22  F   UNL     1       2.868   2.248  17.486  0.00  0.00    +0.000 F 
ENDBRANCH  14  16
ENDBRANCH   2  14
TORSDOF 4
ENDMDL
MODEL 5
REMARK VINA RESULT:      -7.4      1.627      2.041
REMARK  Name = 
REMARK  4 active torsions:
REMARK  status: ('A' for Active; 'I' for Inactive)
REMARK    1  A    between atoms: S_2  and  N_4
REMARK    2  A    between atoms: S_2  and  C_12
REMARK    3  A    between atoms: N_4  and  C_5
REMARK    4  A    between atoms: C_17  and  C_18
REMARK                            x       y       z     vdW  Elec       q    Type
REMARK                         _______ _______ _______ _____ _____    ______ ____
ROOT
ATOM      1  O   UNL     1       6.651   5.370  19.773  0.00  0.00    +0.000 OA
ATOM      2  S   UNL     1       5.614   4.653  19.065  0.00  0.00    +0.000 S 
ATOM      3  O   UNL     1       5.322   3.269  19.392  0.00  0.00    +0.000 OA
ENDROOT
BRANCH   2   4
ATOM      4  C   UNL     1       6.056   4.732  17.333  0.00  0.00    +0.000 A 
ATOM      5  C   UNL     1       5.628   3.671  16.513  0.00  0.00    +0.000 A 
ATOM      6  C   UNL     1       5.965   3.645  15.161  0.00  0.00    +0.000 A 
ATOM      7  C   UNL     1       6.738   4.667  14.621  0.00  0.00    +0.000 A 
ATOM      8  C   UNL     1       7.174   5.712  15.431  0.00  0.00    +0.000 A 
ATOM      9  C   UNL     1       6.847   5.771  16.803  0.00  0.00    +0.000 A 
BRANCH   9  10
ATOM     10  C   UNL     1       7.355   6.974  17.560  0.00  0.00    +0.000 C 
ATOM     11  F   UNL     1       6.415   7.786  18.109  0.00  0.00    +0.000 F 
ATOM     12  F   UNL     1       8.207   6.638  18.566  0.00  0.00    +0.000 F 
ATOM     13  F   UNL     1       8.069   7.805  16.743  0.00  0.00    +0.000 F 
ENDBRANCH   9  10
ENDBRANCH   2   4
BRANCH   2  14
ATOM     14  N   UNL     1       4.177   5.536  19.178  0.00  0.00    +0.000 N 
ATOM     15  H   UNL     1       4.156   6.304  18.502  0.00  0.00    +0.000 HD
BRANCH  14  16
ATOM     16  C   UNL     1       2.964   4.809  19.367  0.00  0.00    +0.000 A 
ATOM     17  C   UNL     1       2.492   4.646  20.668  0.00  0.00    +0.000 A 
ATOM     18  C   UNL     1       1.338   3.896  20.903  0.00  0.00    +0.000 A 
ATOM     19  C   UNL     1       0.667   3.288  19.840  0.00  0.00    +0.000 A 
ATOM     20  C   UNL     1       1.139   3.445  18.537  0.00  0.00    +0.000 A 
ATOM     21  C   UNL     1       2.277   4.214  18.308  0.00  0.00    +0.000 A 
ATOM     22  F   UNL     1       2.703   4.380  17.048  0.00  0.00    +0.000 F 
ENDBRANCH  14  16
ENDBRANCH   2  14
TORSDOF 4
ENDMDL
MODEL 6
REMARK VINA RESULT:      -7.3      2.486      5.844
REMARK  Name = 
REMARK  4 active torsions:
REMARK  status: ('A' for Active; 'I' for Inactive)
REMARK    1  A    between atoms: S_2  and  N_4
REMARK    2  A    between atoms: S_2  and  C_12
REMARK    3  A    between atoms: N_4  and  C_5
REMARK    4  A    between atoms: C_17  and  C_18
REMARK                            x       y       z     vdW  Elec       q    Type
REMARK                         _______ _______ _______ _____ _____    ______ ____
ROOT
ATOM      1  O   UNL     1       2.219   3.264  16.428  0.00  0.00    +0.000 OA
ATOM      2  S   UNL     1       2.632   2.986  17.786  0.00  0.00    +0.000 S 
ATOM      3  O   UNL     1       2.007   1.916  18.540  0.00  0.00    +0.000 OA
ENDROOT
BRANCH   2   4
ATOM      4  C   UNL     1       2.402   4.511  18.692  0.00  0.00    +0.000 A 
ATOM      5  C   UNL     1       2.376   5.704  17.945  0.00  0.00    +0.000 A 
ATOM      6  C   UNL     1       2.238   6.934  18.585  0.00  0.00    +0.000 A 
ATOM      7  C   UNL     1       2.137   6.985  19.971  0.00  0.00    +0.000 A 
ATOM      8  C   UNL     1       2.175   5.809  20.715  0.00  0.00    +0.000 A 
ATOM      9  C   UNL     1       2.309   4.546  20.098  0.00  0.00    +0.000 A 
BRANCH   9  10
ATOM     10  C   UNL     1       2.304   3.349  21.017  0.00  0.00    +0.000 C 
ATOM     11  F   UNL     1       1.242   2.509  20.912  0.00  0.00    +0.000 F 
ATOM     12  F   UNL     1       3.418   2.580  20.881  0.00  0.00    +0.000 F 
ATOM     13  F   UNL     1       2.288   3.734  22.329  0.00  0.00    +0.000 F 
ENDBRANCH   9  10
ENDBRANCH   2   4
BRANCH   2  14
ATOM     14  N   UNL     1       4.303   2.732  17.797  0.00  0.00    +0.000 N 
ATOM     15  H   UNL     1       4.544   1.811  17.419  0.00  0.00    +0.000 HD
BRANCH  14  16
ATOM     16  C   UNL     1       5.143   3.822  17.422  0.00  0.00    +0.000 A 
ATOM     17  C   UNL     1       5.357   4.049  16.063  0.00  0.00    +0.000 A 
ATOM     18  C   UNL     1       6.214   5.071  15.652  0.00  0.00    +0.000 A 
ATOM     19  C   UNL     1       6.879   5.854  16.599  0.00  0.00    +0.000 A 
ATOM     20  C   UNL     1       6.670   5.627  17.959  0.00  0.00    +0.000 A 
ATOM     21  C   UNL     1       5.796   4.621  18.361  0.00  0.00    +0.000 A 
ATOM     22  F   UNL     1       5.584   4.433  19.672  0.00  0.00    +0.000 F 
ENDBRANCH  14  16
ENDBRANCH   2  14
TORSDOF 4
ENDMDL
MODEL 7
REMARK VINA RESULT:      -7.3      2.249      6.314
REMARK  Name = 
REMARK  4 active torsions:
REMARK  status: ('A' for Active; 'I' for Inactive)
REMARK    1  A    between atoms: S_2  and  N_4
REMARK    2  A    between atoms: S_2  and  C_12
REMARK    3  A    between atoms: N_4  and  C_5
REMARK    4  A    between atoms: C_17  and  C_18
REMARK                            x       y       z     vdW  Elec       q    Type
REMARK                         _______ _______ _______ _____ _____    ______ ____
ROOT
ATOM      1  O   UNL     1       3.150   2.394  17.766  0.00  0.00    +0.000 OA
ATOM      2  S   UNL     1       4.079   3.344  18.338  0.00  0.00    +0.000 S 
ATOM      3  O   UNL     1       5.107   2.903  19.262  0.00  0.00    +0.000 OA
ENDROOT
BRANCH   2   4
ATOM      4  C   UNL     1       3.080   4.574  19.166  0.00  0.00    +0.000 A 
ATOM      5  C   UNL     1       3.142   5.890  18.673  0.00  0.00    +0.000 A 
ATOM      6  C   UNL     1       2.419   6.910  19.289  0.00  0.00    +0.000 A 
ATOM      7  C   UNL     1       1.641   6.629  20.407  0.00  0.00    +0.000 A 
ATOM      8  C   UNL     1       1.586   5.330  20.906  0.00  0.00    +0.000 A 
ATOM      9  C   UNL     1       2.302   4.273  20.303  0.00  0.00    +0.000 A 
BRANCH   9  10
ATOM     10  C   UNL     1       2.129   2.909  20.924  0.00  0.00    +0.000 C 
ATOM     11  F   UNL     1       1.680   1.922  20.106  0.00  0.00    +0.000 F 
ATOM     12  F   UNL     1       3.274   2.445  21.494  0.00  0.00    +0.000 F 
ATOM     13  F   UNL     1       1.209   2.940  21.935  0.00  0.00    +0.000 F 
ENDBRANCH   9  10
ENDBRANCH   2   4
BRANCH   2  14
ATOM     14  N   UNL     1       4.830   4.185  17.077  0.00  0.00    +0.000 N 
ATOM     15  H   UNL     1       4.152   4.482  16.370  0.00  0.00    +0.000 HD
BRANCH  14  16
ATOM     16  C   UNL     1       5.856   5.115  17.418  0.00  0.00    +0.000 A 
ATOM     17  C   UNL     1       6.799   4.732  18.370  0.00  0.00    +0.000 A 
ATOM     18  C   UNL     1       7.789   5.631  18.773  0.00  0.00    +0.000 A 
ATOM     19  C   UNL     1       7.823   6.922  18.243  0.00  0.00    +0.000 A 
ATOM     20  C   UNL     1       6.878   7.310  17.293  0.00  0.00    +0.000 A 
ATOM     21  C   UNL     1       5.909   6.401  16.879  0.00  0.00    +0.000 A 
ATOM     22  F   UNL     1       5.024   6.779  15.945  0.00  0.00    +0.000 F 
ENDBRANCH  14  16
ENDBRANCH   2  14
TORSDOF 4
ENDMDL
MODEL 8
REMARK VINA RESULT:      -7.3      1.636      2.012
REMARK  Name = 
REMARK  4 active torsions:
REMARK  status: ('A' for Active; 'I' for Inactive)
REMARK    1  A    between atoms: S_2  and  N_4
REMARK    2  A    between atoms: S_2  and  C_12
REMARK    3  A    between atoms: N_4  and  C_5
REMARK    4  A    between atoms: C_17  and  C_18
REMARK                            x       y       z     vdW  Elec       q    Type
REMARK                         _______ _______ _______ _____ _____    ______ ____
ROOT
ATOM      1  O   UNL     1       3.750   7.524  17.660  0.00  0.00    +0.000 OA
ATOM      2  S   UNL     1       4.008   6.141  17.996  0.00  0.00    +0.000 S 
ATOM      3  O   UNL     1       4.559   5.789  19.291  0.00  0.00    +0.000 OA
ENDROOT
BRANCH   2   4
ATOM      4  C   UNL     1       5.116   5.525  16.735  0.00  0.00    +0.000 A 
ATOM      5  C   UNL     1       4.616   4.534  15.869  0.00  0.00    +0.000 A 
ATOM      6  C   UNL     1       5.433   3.980  14.885  0.00  0.00    +0.000 A 
ATOM      7  C   UNL     1       6.753   4.399  14.765  0.00  0.00    +0.000 A 
ATOM      8  C   UNL     1       7.256   5.370  15.627  0.00  0.00    +0.000 A 
ATOM      9  C   UNL     1       6.454   5.955  16.632  0.00  0.00    +0.000 A 
BRANCH   9  10
ATOM     10  C   UNL     1       7.113   7.018  17.476  0.00  0.00    +0.000 C 
ATOM     11  F   UNL     1       6.403   8.158  17.679  0.00  0.00    +0.000 F 
ATOM     12  F   UNL     1       7.467   6.562  18.708  0.00  0.00    +0.000 F 
ATOM     13  F   UNL     1       8.275   7.454  16.904  0.00  0.00    +0.000 F 
ENDBRANCH   9  10
ENDBRANCH   2   4
BRANCH   2  14
ATOM     14  N   UNL     1       2.581   5.261  17.775  0.00  0.00    +0.000 N 
ATOM     15  H   UNL     1       2.476   4.957  16.802  0.00  0.00    +0.000 HD
BRANCH  14  16
ATOM     16  C   UNL     1       2.215   4.324  18.786  0.00  0.00    +0.000 A 
ATOM     17  C   UNL     1       2.329   2.965  18.494  0.00  0.00    +0.000 A 
ATOM     18  C   UNL     1       1.932   2.013  19.435  0.00  0.00    +0.000 A 
ATOM     19  C   UNL     1       1.397   2.418  20.660  0.00  0.00    +0.000 A 
ATOM     20  C   UNL     1       1.278   3.776  20.954  0.00  0.00    +0.000 A 
ATOM     21  C   UNL     1       1.698   4.719  20.020  0.00  0.00    +0.000 A 
ATOM     22  F   UNL     1       1.603   6.021  20.327  0.00  0.00    +0.000 F 
ENDBRANCH  14  16
ENDBRANCH   2  14
TORSDOF 4
ENDMDL
MODEL 9
REMARK VINA RESULT:      -7.2      2.662      5.911
REMARK  Name = 
REMARK  4 active torsions:
REMARK  status: ('A' for Active; 'I' for Inactive)
REMARK    1  A    between atoms: S_2  and  N_4
REMARK    2  A    between atoms: S_2  and  C_12
REMARK    3  A    between atoms: N_4  and  C_5
REMARK    4  A    between atoms: C_17  and  C_18
REMARK                            x       y       z     vdW  Elec       q    Type
REMARK                         _______ _______ _______ _____ _____    ______ ____
ROOT
ATOM      1  O   UNL     1       2.619   3.548  16.328  0.00  0.00    +0.000 OA
ATOM      2  S   UNL     1       2.754   3.175  17.719  0.00  0.00    +0.000 S 
ATOM      3  O   UNL     1       1.940   2.112  18.278  0.00  0.00    +0.000 OA
ENDROOT
BRANCH   2   4
ATOM      4  C   UNL     1       2.447   4.664  18.660  0.00  0.00    +0.000 A 
ATOM      5  C   UNL     1       2.439   5.880  17.953  0.00  0.00    +0.000 A 
ATOM      6  C   UNL     1       2.243   7.086  18.624  0.00  0.00    +0.000 A 
ATOM      7  C   UNL     1       2.066   7.089  20.003  0.00  0.00    +0.000 A 
ATOM      8  C   UNL     1       2.086   5.889  20.709  0.00  0.00    +0.000 A 
ATOM      9  C   UNL     1       2.278   4.650  20.059  0.00  0.00    +0.000 A 
BRANCH   9  10
ATOM     10  C   UNL     1       2.245   3.423  20.938  0.00  0.00    +0.000 C 
ATOM     11  F   UNL     1       1.184   2.591  20.777  0.00  0.00    +0.000 F 
ATOM     12  F   UNL     1       3.360   2.655  20.805  0.00  0.00    +0.000 F 
ATOM     13  F   UNL     1       2.196   3.764  22.261  0.00  0.00    +0.000 F 
ENDBRANCH   9  10
ENDBRANCH   2   4
BRANCH   2  14
ATOM     14  N   UNL     1       4.377   2.808  18.020  0.00  0.00    +0.000 N 
ATOM     15  H   UNL     1       4.645   1.917  17.593  0.00  0.00    +0.000 HD
BRANCH  14  16
ATOM     16  C   UNL     1       5.325   3.872  17.940  0.00  0.00    +0.000 A 
ATOM     17  C   UNL     1       5.665   4.537  19.117  0.00  0.00    +0.000 A 
ATOM     18  C   UNL     1       6.547   5.618  19.077  0.00  0.00    +0.000 A 
ATOM     19  C   UNL     1       7.072   6.052  17.857  0.00  0.00    +0.000 A 
ATOM     20  C   UNL     1       6.729   5.391  16.678  0.00  0.00    +0.000 A 
ATOM     21  C   UNL     1       5.868   4.299  16.728  0.00  0.00    +0.000 A 
ATOM     22  F   UNL     1       5.570   3.656  15.590  0.00  0.00    +0.000 F 
ENDBRANCH  14  16
ENDBRANCH   2  14
TORSDOF 4
ENDMDL
