MODEL 1
REMARK VINA RESULT:      -7.3      0.000      0.000
REMARK  Name = 
REMARK  6 active torsions:
REMARK  status: ('A' for Active; 'I' for Inactive)
REMARK    1  A    between atoms: C_2  and  C_4
REMARK    2  A    between atoms: C_4  and  S_5
REMARK    3  A    between atoms: S_5  and  C_6
REMARK    4  A    between atoms: C_9  and  C_10
REMARK    5  A    between atoms: N_15  and  C_16
REMARK    6  A    between atoms: C_16  and  C_17
REMARK                            x       y       z     vdW  Elec       q    Type
REMARK                         _______ _______ _______ _____ _____    ______ ____
ROOT
ATOM      1  C   UNL     1       2.584   4.173  18.138  0.00  0.00    +0.000 A 
ATOM      2  N   UNL     1       3.072   3.651  17.040  0.00  0.00    +0.000 NA
ATOM      3  N   UNL     1       4.298   4.237  16.811  0.00  0.00    +0.000 NA
ATOM      4  C   UNL     1       4.549   5.088  17.789  0.00  0.00    +0.000 A 
ATOM      5  N   UNL     1       3.457   5.103  18.636  0.00  0.00    +0.000 N 
ENDROOT
BRANCH   4   6
ATOM      6  C   UNL     1       5.749   5.879  17.899  0.00  0.00    +0.000 A 
ATOM      7  C   UNL     1       6.137   6.993  17.172  0.00  0.00    +0.000 A 
ATOM      8  C   UNL     1       7.446   7.450  17.498  0.00  0.00    +0.000 A 
ATOM      9  C   UNL     1       7.997   6.719  18.523  0.00  0.00    +0.000 A 
ATOM     10  S   UNL     1       6.943   5.491  19.073  0.00  0.00    +0.000 S 
ENDBRANCH   4   6
BRANCH   1  11
ATOM     11  S   UNL     1       1.157   3.612  18.944  0.00  0.00    +0.000 S 
BRANCH  11  12
ATOM     12  C   UNL     1       1.750   2.132  19.809  0.00  0.00    +0.000 C 
BRANCH  12  14
ATOM     13  N   UNL     1       2.165   3.122  22.007  0.00  0.00    +0.000 N 
ATOM     14  C   UNL     1       2.719   2.537  20.904  0.00  0.00    +0.000 C 
ATOM     15  O   UNL     1       3.934   2.399  20.810  0.00  0.00    +0.000 OA
ATOM     16  H   UNL     1       2.790   3.315  22.779  0.00  0.00    +0.000 HD
ATOM     17  H   UNL     1       1.183   2.994  22.222  0.00  0.00    +0.000 HD
ENDBRANCH  12  14
ENDBRANCH  11  12
ENDBRANCH   1  11
BRANCH   5  18
ATOM     18  C   UNL     1       3.240   6.008  19.747  0.00  0.00    +0.000 C 
BRANCH  18  19
ATOM     19  C   UNL     1       2.425   7.235  19.420  0.00  0.00    +0.000 A 
ATOM     20  C   UNL     1       1.648   7.935  20.359  0.00  0.00    +0.000 A 
ATOM     21  C   UNL     1       1.020   9.130  20.005  0.00  0.00    +0.000 A 
ATOM     22  C   UNL     1       1.136   9.626  18.709  0.00  0.00    +0.000 A 
ATOM     23  C   UNL     1       1.863   8.919  17.756  0.00  0.00    +0.000 A 
ATOM     24  C   UNL     1       2.498   7.729  18.108  0.00  0.00    +0.000 A 
ENDBRANCH  18  19
ENDBRANCH   5  18
TORSDOF 6
ENDMDL
MODEL 2
REMARK VINA RESULT:      -7.2      1.171      1.591
REMARK  Name = 
REMARK  6 active torsions:
REMARK  status: ('A' for Active; 'I' for Inactive)
REMARK    1  A    between atoms: C_2  and  C_4
REMARK    2  A    between atoms: C_4  and  S_5
REMARK    3  A    between atoms: S_5  and  C_6
REMARK    4  A    between atoms: C_9  and  C_10
REMARK    5  A    between atoms: N_15  and  C_16
REMARK    6  A    between atoms: C_16  and  C_17
REMARK                            x       y       z     vdW  Elec       q    Type
REMARK                         _______ _______ _______ _____ _____    ______ ____
ROOT
ATOM      1  C   UNL     1       3.211   4.044  17.634  0.00  0.00    +0.000 A 
ATOM      2  N   UNL     1       3.828   3.687  16.535  0.00  0.00    +0.000 NA
ATOM      3  N   UNL     1       4.994   4.417  16.457  0.00  0.00    +0.000 NA
ATOM      4  C   UNL     1       5.081   5.190  17.524  0.00  0.00    +0.000 A 
ATOM      5  N   UNL     1       3.939   5.007  18.280  0.00  0.00    +0.000 N 
ENDROOT
BRANCH   4   6
ATOM      6  C   UNL     1       6.175   6.087  17.799  0.00  0.00    +0.000 A 
ATOM      7  C   UNL     1       6.496   7.292  17.196  0.00  0.00    +0.000 A 
ATOM      8  C   UNL     1       7.717   7.852  17.669  0.00  0.00    +0.000 A 
ATOM      9  C   UNL     1       8.261   7.097  18.680  0.00  0.00    +0.000 A 
ATOM     10  S   UNL     1       7.307   5.725  19.041  0.00  0.00    +0.000 S 
ENDBRANCH   4   6
BRANCH   1  11
ATOM     11  S   UNL     1       1.804   3.261  18.271  0.00  0.00    +0.000 S 
BRANCH  11  12
ATOM     12  C   UNL     1       2.450   2.433  19.750  0.00  0.00    +0.000 C 
BRANCH  12  14
ATOM     13  N   UNL     1       3.855   0.944  18.412  0.00  0.00    +0.000 N 
ATOM     14  C   UNL     1       3.811   1.837  19.445  0.00  0.00    +0.000 C 
ATOM     15  O   UNL     1       4.817   2.092  20.098  0.00  0.00    +0.000 OA
ATOM     16  H   UNL     1       4.770   0.608  18.142  0.00  0.00    +0.000 HD
ATOM     17  H   UNL     1       3.127   0.934  17.707  0.00  0.00    +0.000 HD
ENDBRANCH  12  14
ENDBRANCH  11  12
ENDBRANCH   1  11
BRANCH   5  18
ATOM     18  C   UNL     1       3.547   5.771  19.448  0.00  0.00    +0.000 C 
BRANCH  18  19
ATOM     19  C   UNL     1       2.815   7.057  19.152  0.00  0.00    +0.000 A 
ATOM     20  C   UNL     1       2.843   7.710  17.909  0.00  0.00    +0.000 A 
ATOM     21  C   UNL     1       2.042   8.830  17.680  0.00  0.00    +0.000 A 
ATOM     22  C   UNL     1       1.228   9.327  18.693  0.00  0.00    +0.000 A 
ATOM     23  C   UNL     1       1.225   8.720  19.946  0.00  0.00    +0.000 A 
ATOM     24  C   UNL     1       2.017   7.596  20.175  0.00  0.00    +0.000 A 
ENDBRANCH  18  19
ENDBRANCH   5  18
TORSDOF 6
ENDMDL
MODEL 3
REMARK VINA RESULT:      -7.1      2.955      5.606
REMARK  Name = 
REMARK  6 active torsions:
REMARK  status: ('A' for Active; 'I' for Inactive)
REMARK    1  A    between atoms: C_2  and  C_4
REMARK    2  A    between atoms: C_4  and  S_5
REMARK    3  A    between atoms: S_5  and  C_6
REMARK    4  A    between atoms: C_9  and  C_10
REMARK    5  A    between atoms: N_15  and  C_16
REMARK    6  A    between atoms: C_16  and  C_17
REMARK                            x       y       z     vdW  Elec       q    Type
REMARK                         _______ _______ _______ _____ _____    ______ ____
ROOT
ATOM      1  C   UNL     1       4.407   5.452  16.908  0.00  0.00    +0.000 A 
ATOM      2  N   UNL     1       5.120   6.546  16.800  0.00  0.00    +0.000 NA
ATOM      3  N   UNL     1       4.462   7.540  17.490  0.00  0.00    +0.000 NA
ATOM      4  C   UNL     1       3.370   7.029  18.030  0.00  0.00    +0.000 A 
ATOM      5  N   UNL     1       3.282   5.705  17.646  0.00  0.00    +0.000 N 
ENDROOT
BRANCH   4   6
ATOM      6  C   UNL     1       2.434   7.767  18.840  0.00  0.00    +0.000 A 
ATOM      7  C   UNL     1       2.037   7.544  20.149  0.00  0.00    +0.000 A 
ATOM      8  C   UNL     1       1.010   8.430  20.585  0.00  0.00    +0.000 A 
ATOM      9  C   UNL     1       0.702   9.360  19.622  0.00  0.00    +0.000 A 
ATOM     10  S   UNL     1       1.638   9.153  18.207  0.00  0.00    +0.000 S 
ENDBRANCH   4   6
BRANCH   1  11
ATOM     11  S   UNL     1       4.923   3.885  16.379  0.00  0.00    +0.000 S 
BRANCH  11  12
ATOM     12  C   UNL     1       5.730   4.251  14.796  0.00  0.00    +0.000 C 
BRANCH  12  14
ATOM     13  N   UNL     1       7.669   4.481  16.268  0.00  0.00    +0.000 N 
ATOM     14  C   UNL     1       7.130   4.777  15.048  0.00  0.00    +0.000 C 
ATOM     15  O   UNL     1       7.744   5.465  14.240  0.00  0.00    +0.000 OA
ATOM     16  H   UNL     1       8.634   4.750  16.414  0.00  0.00    +0.000 HD
ATOM     17  H   UNL     1       7.312   3.708  16.817  0.00  0.00    +0.000 HD
ENDBRANCH  12  14
ENDBRANCH  11  12
ENDBRANCH   1  11
BRANCH   5  18
ATOM     18  C   UNL     1       2.163   4.813  17.878  0.00  0.00    +0.000 C 
BRANCH  18  19
ATOM     19  C   UNL     1       2.186   4.092  19.204  0.00  0.00    +0.000 A 
ATOM     20  C   UNL     1       1.068   3.955  20.044  0.00  0.00    +0.000 A 
ATOM     21  C   UNL     1       1.142   3.171  21.196  0.00  0.00    +0.000 A 
ATOM     22  C   UNL     1       2.333   2.538  21.537  0.00  0.00    +0.000 A 
ATOM     23  C   UNL     1       3.463   2.703  20.741  0.00  0.00    +0.000 A 
ATOM     24  C   UNL     1       3.391   3.479  19.585  0.00  0.00    +0.000 A 
ENDBRANCH  18  19
ENDBRANCH   5  18
TORSDOF 6
ENDMDL
MODEL 4
REMARK VINA RESULT:      -7.1      2.944      5.755
REMARK  Name = 
REMARK  6 active torsions:
REMARK  status: ('A' for Active; 'I' for Inactive)
REMARK    1  A    between atoms: C_2  and  C_4
REMARK    2  A    between atoms: C_4  and  S_5
REMARK    3  A    between atoms: S_5  and  C_6
REMARK    4  A    between atoms: C_9  and  C_10
REMARK    5  A    between atoms: N_15  and  C_16
REMARK    6  A    between atoms: C_16  and  C_17
REMARK                            x       y       z     vdW  Elec       q    Type
REMARK                         _______ _______ _______ _____ _____    ______ ____
ROOT
ATOM      1  C   UNL     1       4.417   5.479  16.899  0.00  0.00    +0.000 A 
ATOM      2  N   UNL     1       5.129   6.576  16.822  0.00  0.00    +0.000 NA
ATOM      3  N   UNL     1       4.467   7.551  17.536  0.00  0.00    +0.000 NA
ATOM      4  C   UNL     1       3.374   7.024  18.059  0.00  0.00    +0.000 A 
ATOM      5  N   UNL     1       3.290   5.710  17.640  0.00  0.00    +0.000 N 
ENDROOT
BRANCH   4   6
ATOM      6  C   UNL     1       2.434   7.739  18.885  0.00  0.00    +0.000 A 
ATOM      7  C   UNL     1       2.041   7.487  20.189  0.00  0.00    +0.000 A 
ATOM      8  C   UNL     1       1.009   8.357  20.644  0.00  0.00    +0.000 A 
ATOM      9  C   UNL     1       0.693   9.305  19.701  0.00  0.00    +0.000 A 
ATOM     10  S   UNL     1       1.629   9.133  18.281  0.00  0.00    +0.000 S 
ENDBRANCH   4   6
BRANCH   1  11
ATOM     11  S   UNL     1       4.938   3.928  16.331  0.00  0.00    +0.000 S 
BRANCH  11  12
ATOM     12  C   UNL     1       6.704   4.197  16.017  0.00  0.00    +0.000 C 
BRANCH  12  14
ATOM     13  N   UNL     1       6.313   3.620  13.672  0.00  0.00    +0.000 N 
ATOM     14  C   UNL     1       6.920   4.481  14.542  0.00  0.00    +0.000 C 
ATOM     15  O   UNL     1       7.627   5.395  14.131  0.00  0.00    +0.000 OA
ATOM     16  H   UNL     1       6.377   3.851  12.689  0.00  0.00    +0.000 HD
ATOM     17  H   UNL     1       5.527   3.054  13.969  0.00  0.00    +0.000 HD
ENDBRANCH  12  14
ENDBRANCH  11  12
ENDBRANCH   1  11
BRANCH   5  18
ATOM     18  C   UNL     1       2.172   4.811  17.846  0.00  0.00    +0.000 C 
BRANCH  18  19
ATOM     19  C   UNL     1       2.251   3.970  19.096  0.00  0.00    +0.000 A 
ATOM     20  C   UNL     1       3.408   3.294  19.517  0.00  0.00    +0.000 A 
ATOM     21  C   UNL     1       3.434   2.636  20.747  0.00  0.00    +0.000 A 
ATOM     22  C   UNL     1       2.304   2.623  21.559  0.00  0.00    +0.000 A 
ATOM     23  C   UNL     1       1.135   3.248  21.135  0.00  0.00    +0.000 A 
ATOM     24  C   UNL     1       1.107   3.913  19.909  0.00  0.00    +0.000 A 
ENDBRANCH  18  19
ENDBRANCH   5  18
TORSDOF 6
ENDMDL
MODEL 5
REMARK VINA RESULT:      -7.1      2.198      4.919
REMARK  Name = 
REMARK  6 active torsions:
REMARK  status: ('A' for Active; 'I' for Inactive)
REMARK    1  A    between atoms: C_2  and  C_4
REMARK    2  A    between atoms: C_4  and  S_5
REMARK    3  A    between atoms: S_5  and  C_6
REMARK    4  A    between atoms: C_9  and  C_10
REMARK    5  A    between atoms: N_15  and  C_16
REMARK    6  A    between atoms: C_16  and  C_17
REMARK                            x       y       z     vdW  Elec       q    Type
REMARK                         _______ _______ _______ _____ _____    ______ ____
ROOT
ATOM      1  C   UNL     1       5.582   5.757  18.352  0.00  0.00    +0.000 A 
ATOM      2  N   UNL     1       6.281   5.097  19.242  0.00  0.00    +0.000 NA
ATOM      3  N   UNL     1       5.415   4.261  19.914  0.00  0.00    +0.000 NA
ATOM      4  C   UNL     1       4.206   4.407  19.403  0.00  0.00    +0.000 A 
ATOM      5  N   UNL     1       4.267   5.384  18.428  0.00  0.00    +0.000 N 
ENDROOT
BRANCH   4   6
ATOM      6  C   UNL     1       3.039   3.682  19.841  0.00  0.00    +0.000 A 
ATOM      7  C   UNL     1       2.375   3.737  21.055  0.00  0.00    +0.000 A 
ATOM      8  C   UNL     1       1.313   2.794  21.159  0.00  0.00    +0.000 A 
ATOM      9  C   UNL     1       1.141   2.093  19.990  0.00  0.00    +0.000 A 
ATOM     10  S   UNL     1       2.261   2.567  18.789  0.00  0.00    +0.000 S 
ENDBRANCH   4   6
BRANCH   1  11
ATOM     11  S   UNL     1       6.261   6.779  17.130  0.00  0.00    +0.000 S 
BRANCH  11  12
ATOM     12  C   UNL     1       5.916   5.854  15.608  0.00  0.00    +0.000 C 
BRANCH  12  14
ATOM     13  N   UNL     1       6.326   3.577  14.814  0.00  0.00    +0.000 N 
ATOM     14  C   UNL     1       6.805   4.626  15.547  0.00  0.00    +0.000 C 
ATOM     15  O   UNL     1       7.871   4.539  16.146  0.00  0.00    +0.000 OA
ATOM     16  H   UNL     1       6.948   2.788  14.694  0.00  0.00    +0.000 HD
ATOM     17  H   UNL     1       5.614   3.722  14.109  0.00  0.00    +0.000 HD
ENDBRANCH  12  14
ENDBRANCH  11  12
ENDBRANCH   1  11
BRANCH   5  18
ATOM     18  C   UNL     1       3.144   5.972  17.725  0.00  0.00    +0.000 C 
BRANCH  18  19
ATOM     19  C   UNL     1       2.454   7.098  18.455  0.00  0.00    +0.000 A 
ATOM     20  C   UNL     1       2.163   7.084  19.829  0.00  0.00    +0.000 A 
ATOM     21  C   UNL     1       1.632   8.215  20.451  0.00  0.00    +0.000 A 
ATOM     22  C   UNL     1       1.361   9.360  19.708  0.00  0.00    +0.000 A 
ATOM     23  C   UNL     1       1.599   9.374  18.337  0.00  0.00    +0.000 A 
ATOM     24  C   UNL     1       2.137   8.249  17.714  0.00  0.00    +0.000 A 
ENDBRANCH  18  19
ENDBRANCH   5  18
TORSDOF 6
ENDMDL
MODEL 6
REMARK VINA RESULT:      -7.1      0.714      1.373
REMARK  Name = 
REMARK  6 active torsions:
REMARK  status: ('A' for Active; 'I' for Inactive)
REMARK    1  A    between atoms: C_2  and  C_4
REMARK    2  A    between atoms: C_4  and  S_5
REMARK    3  A    between atoms: S_5  and  C_6
REMARK    4  A    between atoms: C_9  and  C_10
REMARK    5  A    between atoms: N_15  and  C_16
REMARK    6  A    between atoms: C_16  and  C_17
REMARK                            x       y       z     vdW  Elec       q    Type
REMARK                         _______ _______ _______ _____ _____    ______ ____
ROOT
ATOM      1  C   UNL     1       2.681   3.987  18.214  0.00  0.00    +0.000 A 
ATOM      2  N   UNL     1       3.190   3.402  17.158  0.00  0.00    +0.000 NA
ATOM      3  N   UNL     1       4.436   3.948  16.941  0.00  0.00    +0.000 NA
ATOM      4  C   UNL     1       4.678   4.839  17.886  0.00  0.00    +0.000 A 
ATOM      5  N   UNL     1       3.561   4.919  18.695  0.00  0.00    +0.000 N 
ENDROOT
BRANCH   4   6
ATOM      6  C   UNL     1       5.893   5.606  17.996  0.00  0.00    +0.000 A 
ATOM      7  C   UNL     1       6.945   5.463  18.886  0.00  0.00    +0.000 A 
ATOM      8  C   UNL     1       7.936   6.478  18.755  0.00  0.00    +0.000 A 
ATOM      9  C   UNL     1       7.654   7.329  17.713  0.00  0.00    +0.000 A 
ATOM     10  S   UNL     1       6.203   6.906  16.915  0.00  0.00    +0.000 S 
ENDBRANCH   4   6
BRANCH   1  11
ATOM     11  S   UNL     1       1.216   3.498  18.999  0.00  0.00    +0.000 S 
BRANCH  11  12
ATOM     12  C   UNL     1       1.752   2.065  19.973  0.00  0.00    +0.000 C 
BRANCH  12  14
ATOM     13  N   UNL     1       2.056   3.303  22.061  0.00  0.00    +0.000 N 
ATOM     14  C   UNL     1       2.649   2.526  21.106  0.00  0.00    +0.000 C 
ATOM     15  O   UNL     1       3.847   2.269  21.161  0.00  0.00    +0.000 OA
ATOM     16  H   UNL     1       2.621   3.542  22.865  0.00  0.00    +0.000 HD
ATOM     17  H   UNL     1       1.050   3.292  22.183  0.00  0.00    +0.000 HD
ENDBRANCH  12  14
ENDBRANCH  11  12
ENDBRANCH   1  11
BRANCH   5  18
ATOM     18  C   UNL     1       3.332   5.881  19.755  0.00  0.00    +0.000 C 
BRANCH  18  19
ATOM     19  C   UNL     1       2.649   7.155  19.323  0.00  0.00    +0.000 A 
ATOM     20  C   UNL     1       2.720   7.684  18.024  0.00  0.00    +0.000 A 
ATOM     21  C   UNL     1       1.962   8.802  17.674  0.00  0.00    +0.000 A 
ATOM     22  C   UNL     1       1.146   9.420  18.618  0.00  0.00    +0.000 A 
ATOM     23  C   UNL     1       1.102   8.936  19.922  0.00  0.00    +0.000 A 
ATOM     24  C   UNL     1       1.852   7.815  20.274  0.00  0.00    +0.000 A 
ENDBRANCH  18  19
ENDBRANCH   5  18
TORSDOF 6
ENDMDL
MODEL 7
REMARK VINA RESULT:      -7.1      2.378      5.115
REMARK  Name = 
REMARK  6 active torsions:
REMARK  status: ('A' for Active; 'I' for Inactive)
REMARK    1  A    between atoms: C_2  and  C_4
REMARK    2  A    between atoms: C_4  and  S_5
REMARK    3  A    between atoms: S_5  and  C_6
REMARK    4  A    between atoms: C_9  and  C_10
REMARK    5  A    between atoms: N_15  and  C_16
REMARK    6  A    between atoms: C_16  and  C_17
REMARK                            x       y       z     vdW  Elec       q    Type
REMARK                         _______ _______ _______ _____ _____    ______ ____
ROOT
ATOM      1  C   UNL     1       5.441   5.662  18.127  0.00  0.00    +0.000 A 
ATOM      2  N   UNL     1       6.212   4.995  18.950  0.00  0.00    +0.000 NA
ATOM      3  N   UNL     1       5.404   4.168  19.699  0.00  0.00    +0.000 NA
ATOM      4  C   UNL     1       4.154   4.325  19.301  0.00  0.00    +0.000 A 
ATOM      5  N   UNL     1       4.135   5.301  18.324  0.00  0.00    +0.000 N 
ENDROOT
BRANCH   4   6
ATOM      6  C   UNL     1       3.026   3.612  19.846  0.00  0.00    +0.000 A 
ATOM      7  C   UNL     1       2.427   3.732  21.089  0.00  0.00    +0.000 A 
ATOM      8  C   UNL     1       1.389   2.782  21.308  0.00  0.00    +0.000 A 
ATOM      9  C   UNL     1       1.167   2.008  20.195  0.00  0.00    +0.000 A 
ATOM     10  S   UNL     1       2.212   2.423  18.908  0.00  0.00    +0.000 S 
ENDBRANCH   4   6
BRANCH   1  11
ATOM     11  S   UNL     1       6.014   6.677  16.846  0.00  0.00    +0.000 S 
BRANCH  11  12
ATOM     12  C   UNL     1       5.491   5.772  15.363  0.00  0.00    +0.000 C 
BRANCH  12  14
ATOM     13  N   UNL     1       6.313   3.674  14.411  0.00  0.00    +0.000 N 
ATOM     14  C   UNL     1       6.640   4.925  14.852  0.00  0.00    +0.000 C 
ATOM     15  O   UNL     1       7.808   5.300  14.865  0.00  0.00    +0.000 OA
ATOM     16  H   UNL     1       7.056   3.135  13.986  0.00  0.00    +0.000 HD
ATOM     17  H   UNL     1       5.362   3.456  14.137  0.00  0.00    +0.000 HD
ENDBRANCH  12  14
ENDBRANCH  11  12
ENDBRANCH   1  11
BRANCH   5  18
ATOM     18  C   UNL     1       2.957   5.900  17.727  0.00  0.00    +0.000 C 
BRANCH  18  19
ATOM     19  C   UNL     1       2.469   7.158  18.402  0.00  0.00    +0.000 A 
ATOM     20  C   UNL     1       2.239   8.371  17.732  0.00  0.00    +0.000 A 
ATOM     21  C   UNL     1       1.672   9.454  18.406  0.00  0.00    +0.000 A 
ATOM     22  C   UNL     1       1.353   9.349  19.757  0.00  0.00    +0.000 A 
ATOM     23  C   UNL     1       1.619   8.170  20.446  0.00  0.00    +0.000 A 
ATOM     24  C   UNL     1       2.177   7.083  19.774  0.00  0.00    +0.000 A 
ENDBRANCH  18  19
ENDBRANCH   5  18
TORSDOF 6
ENDMDL
MODEL 8
REMARK VINA RESULT:      -7.1      0.977      1.127
REMARK  Name = 
REMARK  6 active torsions:
REMARK  status: ('A' for Active; 'I' for Inactive)
REMARK    1  A    between atoms: C_2  and  C_4
REMARK    2  A    between atoms: C_4  and  S_5
REMARK    3  A    between atoms: S_5  and  C_6
REMARK    4  A    between atoms: C_9  and  C_10
REMARK    5  A    between atoms: N_15  and  C_16
REMARK    6  A    between atoms: C_16  and  C_17
REMARK                            x       y       z     vdW  Elec       q    Type
REMARK                         _______ _______ _______ _____ _____    ______ ____
ROOT
ATOM      1  C   UNL     1       2.569   4.048  18.157  0.00  0.00    +0.000 A 
ATOM      2  N   UNL     1       3.051   3.494  17.071  0.00  0.00    +0.000 NA
ATOM      3  N   UNL     1       4.309   4.016  16.861  0.00  0.00    +0.000 NA
ATOM      4  C   UNL     1       4.584   4.860  17.839  0.00  0.00    +0.000 A 
ATOM      5  N   UNL     1       3.479   4.935  18.665  0.00  0.00    +0.000 N 
ENDROOT
BRANCH   4   6
ATOM      6  C   UNL     1       5.821   5.590  17.967  0.00  0.00    +0.000 A 
ATOM      7  C   UNL     1       6.878   5.383  18.838  0.00  0.00    +0.000 A 
ATOM      8  C   UNL     1       7.894   6.376  18.736  0.00  0.00    +0.000 A 
ATOM      9  C   UNL     1       7.624   7.276  17.734  0.00  0.00    +0.000 A 
ATOM     10  S   UNL     1       6.154   6.925  16.936  0.00  0.00    +0.000 S 
ENDBRANCH   4   6
BRANCH   1  11
ATOM     11  S   UNL     1       1.101   3.565  18.938  0.00  0.00    +0.000 S 
BRANCH  11  12
ATOM     12  C   UNL     1       1.620   2.104  19.881  0.00  0.00    +0.000 C 
BRANCH  12  14
ATOM     13  N   UNL     1       3.800   2.346  20.962  0.00  0.00    +0.000 N 
ATOM     14  C   UNL     1       2.452   2.537  21.073  0.00  0.00    +0.000 C 
ATOM     15  O   UNL     1       1.965   2.993  22.101  0.00  0.00    +0.000 OA
ATOM     16  H   UNL     1       4.372   2.712  21.712  0.00  0.00    +0.000 HD
ATOM     17  H   UNL     1       4.234   2.241  20.052  0.00  0.00    +0.000 HD
ENDBRANCH  12  14
ENDBRANCH  11  12
ENDBRANCH   1  11
BRANCH   5  18
ATOM     18  C   UNL     1       3.288   5.858  19.766  0.00  0.00    +0.000 C 
BRANCH  18  19
ATOM     19  C   UNL     1       2.489   7.093  19.432  0.00  0.00    +0.000 A 
ATOM     20  C   UNL     1       1.718   7.807  20.365  0.00  0.00    +0.000 A 
ATOM     21  C   UNL     1       1.107   9.009  20.004  0.00  0.00    +0.000 A 
ATOM     22  C   UNL     1       1.233   9.498  18.707  0.00  0.00    +0.000 A 
ATOM     23  C   UNL     1       1.954   8.777  17.759  0.00  0.00    +0.000 A 
ATOM     24  C   UNL     1       2.573   7.581  18.118  0.00  0.00    +0.000 A 
ENDBRANCH  18  19
ENDBRANCH   5  18
TORSDOF 6
ENDMDL
MODEL 9
REMARK VINA RESULT:      -7.1      2.760      5.444
REMARK  Name = 
REMARK  6 active torsions:
REMARK  status: ('A' for Active; 'I' for Inactive)
REMARK    1  A    between atoms: C_2  and  C_4
REMARK    2  A    between atoms: C_4  and  S_5
REMARK    3  A    between atoms: S_5  and  C_6
REMARK    4  A    between atoms: C_9  and  C_10
REMARK    5  A    between atoms: N_15  and  C_16
REMARK    6  A    between atoms: C_16  and  C_17
REMARK                            x       y       z     vdW  Elec       q    Type
REMARK                         _______ _______ _______ _____ _____    ______ ____
ROOT
ATOM      1  C   UNL     1       4.338   5.537  17.392  0.00  0.00    +0.000 A 
ATOM      2  N   UNL     1       5.151   6.562  17.323  0.00  0.00    +0.000 NA
ATOM      3  N   UNL     1       4.438   7.683  17.690  0.00  0.00    +0.000 NA
ATOM      4  C   UNL     1       3.207   7.317  18.002  0.00  0.00    +0.000 A 
ATOM      5  N   UNL     1       3.096   5.957  17.786  0.00  0.00    +0.000 N 
ENDROOT
BRANCH   4   6
ATOM      6  C   UNL     1       2.174   8.218  18.449  0.00  0.00    +0.000 A 
ATOM      7  C   UNL     1       1.409   9.111  17.716  0.00  0.00    +0.000 A 
ATOM      8  C   UNL     1       0.551   9.911  18.523  0.00  0.00    +0.000 A 
ATOM      9  C   UNL     1       0.624   9.555  19.848  0.00  0.00    +0.000 A 
ATOM     10  S   UNL     1       1.727   8.275  20.108  0.00  0.00    +0.000 S 
ENDBRANCH   4   6
BRANCH   1  11
ATOM     11  S   UNL     1       4.824   3.883  17.220  0.00  0.00    +0.000 S 
BRANCH  11  12
ATOM     12  C   UNL     1       5.713   3.898  15.638  0.00  0.00    +0.000 C 
BRANCH  12  14
ATOM     13  N   UNL     1       7.703   4.319  16.997  0.00  0.00    +0.000 N 
ATOM     14  C   UNL     1       7.060   4.572  15.818  0.00  0.00    +0.000 C 
ATOM     15  O   UNL     1       7.544   5.336  14.991  0.00  0.00    +0.000 OA
ATOM     16  H   UNL     1       8.639   4.691  17.091  0.00  0.00    +0.000 HD
ATOM     17  H   UNL     1       7.467   3.503  17.550  0.00  0.00    +0.000 HD
ENDBRANCH  12  14
ENDBRANCH  11  12
ENDBRANCH   1  11
BRANCH   5  18
ATOM     18  C   UNL     1       1.880   5.172  17.847  0.00  0.00    +0.000 C 
BRANCH  18  19
ATOM     19  C   UNL     1       1.755   4.280  19.058  0.00  0.00    +0.000 A 
ATOM     20  C   UNL     1       1.312   2.948  19.011  0.00  0.00    +0.000 A 
ATOM     21  C   UNL     1       1.341   2.154  20.159  0.00  0.00    +0.000 A 
ATOM     22  C   UNL     1       1.784   2.684  21.367  0.00  0.00    +0.000 A 
ATOM     23  C   UNL     1       2.181   4.016  21.439  0.00  0.00    +0.000 A 
ATOM     24  C   UNL     1       2.162   4.810  20.294  0.00  0.00    +0.000 A 
ENDBRANCH  18  19
ENDBRANCH   5  18
TORSDOF 6
ENDMDL
