MODEL 1
REMARK VINA RESULT:      -6.1      0.000      0.000
REMARK  Name = 
REMARK  15 active torsions:
REMARK  status: ('A' for Active; 'I' for Inactive)
REMARK    1  A    between atoms: C_1  and  C_2
REMARK    2  A    between atoms: C_2  and  C_3
REMARK    3  A    between atoms: C_3  and  C_4
REMARK    4  A    between atoms: C_4  and  C_5
REMARK    5  A    between atoms: C_4  and  C_13
REMARK    6  A    between atoms: C_5  and  N_6
REMARK    7  A    between atoms: N_6  and  C_7
REMARK    8  A    between atoms: C_7  and  C_8
REMARK    9  A    between atoms: C_7  and  C_10
REMARK   10  A    between atoms: C_8  and  C_9
REMARK   11  A    between atoms: C_13  and  C_14
REMARK   12  A    between atoms: C_14  and  O_16
REMARK   13  A    between atoms: O_16  and  C_17
REMARK   14  A    between atoms: C_17  and  C_18
REMARK   15  A    between atoms: C_17  and  C_19
REMARK                            x       y       z     vdW  Elec       q    Type
REMARK                         _______ _______ _______ _____ _____    ______ ____
ROOT
ATOM      1  C   UNL     1       3.699   4.989  17.634  0.00  0.00    +0.000 C 
ENDROOT
BRANCH   1   2
ATOM      2  C   UNL     1       3.648   5.651  19.036  0.00  0.00    +0.000 C 
BRANCH   2   4
ATOM      3  C   UNL     1       1.759   6.505  20.558  0.00  0.00    +0.000 C 
ATOM      4  C   UNL     1       2.535   6.696  19.257  0.00  0.00    +0.000 C 
ENDBRANCH   2   4
ENDBRANCH   1   2
BRANCH   1   5
ATOM      5  C   UNL     1       4.551   5.796  16.617  0.00  0.00    +0.000 C 
BRANCH   5   6
ATOM      6  N   UNL     1       5.833   5.119  16.361  0.00  0.00    +0.000 NA
ATOM      7  H   UNL     1       5.961   5.084  15.319  0.00  0.00    +0.000 HD
BRANCH   6   8
ATOM      8  C   UNL     1       7.020   5.800  16.923  0.00  0.00    +0.000 C 
BRANCH   8   9
ATOM      9  C   UNL     1       7.584   4.938  18.035  0.00  0.00    +0.000 C 
ATOM     10  N   UNL     1       7.161   5.082  19.309  0.00  0.00    +0.000 N 
ATOM     11  O   UNL     1       8.448   4.109  17.788  0.00  0.00    +0.000 OA
ATOM     12  H   UNL     1       6.444   5.779  19.559  0.00  0.00    +0.000 HD
ATOM     13  H   UNL     1       7.564   4.506  20.063  0.00  0.00    +0.000 HD
ENDBRANCH   8   9
BRANCH   8  14
ATOM     14  C   UNL     1       6.717   7.243  17.424  0.00  0.00    +0.000 C 
ATOM     15  C   UNL     1       7.945   8.136  17.607  0.00  0.00    +0.000 C 
ENDBRANCH   8  14
ENDBRANCH   6   8
ENDBRANCH   5   6
ENDBRANCH   1   5
BRANCH   1  16
ATOM     16  C   UNL     1       4.199   3.518  17.738  0.00  0.00    +0.000 C 
BRANCH  16  17
ATOM     17  C   UNL     1       4.134   2.911  19.121  0.00  0.00    +0.000 C 
ATOM     18  O   UNL     1       5.129   2.945  19.824  0.00  0.00    +0.000 OA
BRANCH  17  19
ATOM     19  O   UNL     1       2.995   2.297  19.554  0.00  0.00    +0.000 OA
BRANCH  19  20
ATOM     20  C   UNL     1       1.772   2.894  19.830  0.00  0.00    +0.000 C 
ATOM     21  C   UNL     1       0.666   2.403  18.882  0.00  0.00    +0.000 C 
ATOM     22  C   UNL     1       1.380   2.704  21.300  0.00  0.00    +0.000 C 
ENDBRANCH  19  20
ENDBRANCH  17  19
ENDBRANCH  16  17
ENDBRANCH   1  16
TORSDOF 11
ENDMDL
MODEL 2
REMARK VINA RESULT:      -6.0      2.271      3.758
REMARK  Name = 
REMARK  15 active torsions:
REMARK  status: ('A' for Active; 'I' for Inactive)
REMARK    1  A    between atoms: C_1  and  C_2
REMARK    2  A    between atoms: C_2  and  C_3
REMARK    3  A    between atoms: C_3  and  C_4
REMARK    4  A    between atoms: C_4  and  C_5
REMARK    5  A    between atoms: C_4  and  C_13
REMARK    6  A    between atoms: C_5  and  N_6
REMARK    7  A    between atoms: N_6  and  C_7
REMARK    8  A    between atoms: C_7  and  C_8
REMARK    9  A    between atoms: C_7  and  C_10
REMARK   10  A    between atoms: C_8  and  C_9
REMARK   11  A    between atoms: C_13  and  C_14
REMARK   12  A    between atoms: C_14  and  O_16
REMARK   13  A    between atoms: O_16  and  C_17
REMARK   14  A    between atoms: C_17  and  C_18
REMARK   15  A    between atoms: C_17  and  C_19
REMARK                            x       y       z     vdW  Elec       q    Type
REMARK                         _______ _______ _______ _____ _____    ______ ____
ROOT
ATOM      1  C   UNL     1       3.750   3.187  17.575  0.00  0.00    +0.000 C 
ENDROOT
BRANCH   1   2
ATOM      2  C   UNL     1       2.228   3.474  17.673  0.00  0.00    +0.000 C 
BRANCH   2   4
ATOM      3  C   UNL     1       0.856   3.218  19.832  0.00  0.00    +0.000 C 
ATOM      4  C   UNL     1       1.415   2.535  18.586  0.00  0.00    +0.000 C 
ENDBRANCH   2   4
ENDBRANCH   1   2
BRANCH   1   5
ATOM      5  C   UNL     1       4.437   3.969  16.423  0.00  0.00    +0.000 C 
BRANCH   5   6
ATOM      6  N   UNL     1       5.841   3.548  16.276  0.00  0.00    +0.000 NA
ATOM      7  H   UNL     1       5.863   2.503  16.382  0.00  0.00    +0.000 HD
BRANCH   6   8
ATOM      8  C   UNL     1       6.451   3.865  14.965  0.00  0.00    +0.000 C 
BRANCH   8   9
ATOM      9  C   UNL     1       7.299   5.111  15.121  0.00  0.00    +0.000 C 
ATOM     10  N   UNL     1       7.348   5.777  16.295  0.00  0.00    +0.000 N 
ATOM     11  O   UNL     1       7.940   5.539  14.172  0.00  0.00    +0.000 OA
ATOM     12  H   UNL     1       6.811   5.455  17.115  0.00  0.00    +0.000 HD
ATOM     13  H   UNL     1       7.910   6.635  16.389  0.00  0.00    +0.000 HD
ENDBRANCH   8   9
BRANCH   8  14
ATOM     14  C   UNL     1       5.402   4.033  13.826  0.00  0.00    +0.000 C 
ATOM     15  C   UNL     1       5.796   3.411  12.486  0.00  0.00    +0.000 C 
ENDBRANCH   8  14
ENDBRANCH   6   8
ENDBRANCH   5   6
ENDBRANCH   1   5
BRANCH   1  16
ATOM     16  C   UNL     1       4.452   3.465  18.936  0.00  0.00    +0.000 C 
BRANCH  16  17
ATOM     17  C   UNL     1       4.765   4.917  19.216  0.00  0.00    +0.000 C 
ATOM     18  O   UNL     1       5.876   5.341  18.945  0.00  0.00    +0.000 OA
BRANCH  17  19
ATOM     19  O   UNL     1       3.835   5.725  19.802  0.00  0.00    +0.000 OA
BRANCH  19  20
ATOM     20  C   UNL     1       2.762   6.355  19.185  0.00  0.00    +0.000 C 
ATOM     21  C   UNL     1       1.950   7.206  20.174  0.00  0.00    +0.000 C 
ATOM     22  C   UNL     1       3.223   7.181  17.978  0.00  0.00    +0.000 C 
ENDBRANCH  19  20
ENDBRANCH  17  19
ENDBRANCH  16  17
ENDBRANCH   1  16
TORSDOF 11
ENDMDL
MODEL 3
REMARK VINA RESULT:      -5.9      1.495      1.935
REMARK  Name = 
REMARK  15 active torsions:
REMARK  status: ('A' for Active; 'I' for Inactive)
REMARK    1  A    between atoms: C_1  and  C_2
REMARK    2  A    between atoms: C_2  and  C_3
REMARK    3  A    between atoms: C_3  and  C_4
REMARK    4  A    between atoms: C_4  and  C_5
REMARK    5  A    between atoms: C_4  and  C_13
REMARK    6  A    between atoms: C_5  and  N_6
REMARK    7  A    between atoms: N_6  and  C_7
REMARK    8  A    between atoms: C_7  and  C_8
REMARK    9  A    between atoms: C_7  and  C_10
REMARK   10  A    between atoms: C_8  and  C_9
REMARK   11  A    between atoms: C_13  and  C_14
REMARK   12  A    between atoms: C_14  and  O_16
REMARK   13  A    between atoms: O_16  and  C_17
REMARK   14  A    between atoms: C_17  and  C_18
REMARK   15  A    between atoms: C_17  and  C_19
REMARK                            x       y       z     vdW  Elec       q    Type
REMARK                         _______ _______ _______ _____ _____    ______ ____
ROOT
ATOM      1  C   UNL     1       4.045   4.395  17.790  0.00  0.00    +0.000 C 
ENDROOT
BRANCH   1   2
ATOM      2  C   UNL     1       2.709   5.141  18.047  0.00  0.00    +0.000 C 
BRANCH   2   4
ATOM      3  C   UNL     1       2.227   6.999  19.757  0.00  0.00    +0.000 C 
ATOM      4  C   UNL     1       2.820   6.639  18.397  0.00  0.00    +0.000 C 
ENDBRANCH   2   4
ENDBRANCH   1   2
BRANCH   1   5
ATOM      5  C   UNL     1       5.159   4.791  18.796  0.00  0.00    +0.000 C 
BRANCH   5   6
ATOM      6  N   UNL     1       6.407   4.069  18.499  0.00  0.00    +0.000 NA
ATOM      7  H   UNL     1       6.170   3.313  17.809  0.00  0.00    +0.000 HD
BRANCH   6   8
ATOM      8  C   UNL     1       7.475   4.893  17.890  0.00  0.00    +0.000 C 
BRANCH   8   9
ATOM      9  C   UNL     1       7.983   5.865  18.936  0.00  0.00    +0.000 C 
ATOM     10  N   UNL     1       8.266   5.452  20.191  0.00  0.00    +0.000 N 
ATOM     11  O   UNL     1       8.128   7.047  18.656  0.00  0.00    +0.000 OA
ATOM     12  H   UNL     1       8.144   4.466  20.469  0.00  0.00    +0.000 HD
ATOM     13  H   UNL     1       8.592   6.122  20.903  0.00  0.00    +0.000 HD
ENDBRANCH   8   9
BRANCH   8  14
ATOM     14  C   UNL     1       7.012   5.638  16.603  0.00  0.00    +0.000 C 
ATOM     15  C   UNL     1       6.908   4.764  15.352  0.00  0.00    +0.000 C 
ENDBRANCH   8  14
ENDBRANCH   6   8
ENDBRANCH   5   6
ENDBRANCH   1   5
BRANCH   1  16
ATOM     16  C   UNL     1       3.823   2.854  17.781  0.00  0.00    +0.000 C 
BRANCH  16  17
ATOM     17  C   UNL     1       3.566   2.232  19.134  0.00  0.00    +0.000 C 
ATOM     18  O   UNL     1       4.518   1.950  19.840  0.00  0.00    +0.000 OA
BRANCH  17  19
ATOM     19  O   UNL     1       2.292   1.950  19.535  0.00  0.00    +0.000 OA
BRANCH  19  20
ATOM     20  C   UNL     1       1.549   2.615  20.501  0.00  0.00    +0.000 C 
ATOM     21  C   UNL     1       2.438   3.461  21.427  0.00  0.00    +0.000 C 
ATOM     22  C   UNL     1       0.436   3.456  19.865  0.00  0.00    +0.000 C 
ENDBRANCH  19  20
ENDBRANCH  17  19
ENDBRANCH  16  17
ENDBRANCH   1  16
TORSDOF 11
ENDMDL
MODEL 4
REMARK VINA RESULT:      -5.9      2.835      5.978
REMARK  Name = 
REMARK  15 active torsions:
REMARK  status: ('A' for Active; 'I' for Inactive)
REMARK    1  A    between atoms: C_1  and  C_2
REMARK    2  A    between atoms: C_2  and  C_3
REMARK    3  A    between atoms: C_3  and  C_4
REMARK    4  A    between atoms: C_4  and  C_5
REMARK    5  A    between atoms: C_4  and  C_13
REMARK    6  A    between atoms: C_5  and  N_6
REMARK    7  A    between atoms: N_6  and  C_7
REMARK    8  A    between atoms: C_7  and  C_8
REMARK    9  A    between atoms: C_7  and  C_10
REMARK   10  A    between atoms: C_8  and  C_9
REMARK   11  A    between atoms: C_13  and  C_14
REMARK   12  A    between atoms: C_14  and  O_16
REMARK   13  A    between atoms: O_16  and  C_17
REMARK   14  A    between atoms: C_17  and  C_18
REMARK   15  A    between atoms: C_17  and  C_19
REMARK                            x       y       z     vdW  Elec       q    Type
REMARK                         _______ _______ _______ _____ _____    ______ ____
ROOT
ATOM      1  C   UNL     1       5.556   5.610  16.788  0.00  0.00    +0.000 C 
ENDROOT
BRANCH   1   2
ATOM      2  C   UNL     1       6.076   7.016  17.188  0.00  0.00    +0.000 C 
BRANCH   2   4
ATOM      3  C   UNL     1       7.809   5.873  18.705  0.00  0.00    +0.000 C 
ATOM      4  C   UNL     1       7.484   7.070  17.814  0.00  0.00    +0.000 C 
ENDBRANCH   2   4
ENDBRANCH   1   2
BRANCH   1   5
ATOM      5  C   UNL     1       4.190   5.264  17.439  0.00  0.00    +0.000 C 
BRANCH   5   6
ATOM      6  N   UNL     1       4.335   5.106  18.896  0.00  0.00    +0.000 NA
ATOM      7  H   UNL     1       4.109   6.035  19.332  0.00  0.00    +0.000 HD
BRANCH   6   8
ATOM      8  C   UNL     1       3.430   4.108  19.508  0.00  0.00    +0.000 C 
BRANCH   8   9
ATOM      9  C   UNL     1       3.958   2.724  19.186  0.00  0.00    +0.000 C 
ATOM     10  N   UNL     1       5.084   2.257  19.766  0.00  0.00    +0.000 N 
ATOM     11  O   UNL     1       3.371   2.017  18.378  0.00  0.00    +0.000 OA
ATOM     12  H   UNL     1       5.614   2.828  20.443  0.00  0.00    +0.000 HD
ATOM     13  H   UNL     1       5.449   1.323  19.527  0.00  0.00    +0.000 HD
ENDBRANCH   8   9
BRANCH   8  14
ATOM     14  C   UNL     1       1.948   4.268  19.055  0.00  0.00    +0.000 C 
ATOM     15  C   UNL     1       0.906   3.935  20.124  0.00  0.00    +0.000 C 
ENDBRANCH   8  14
ENDBRANCH   6   8
ENDBRANCH   5   6
ENDBRANCH   1   5
BRANCH   1  16
ATOM     16  C   UNL     1       5.488   5.469  15.239  0.00  0.00    +0.000 C 
BRANCH  16  17
ATOM     17  C   UNL     1       6.655   4.747  14.605  0.00  0.00    +0.000 C 
ATOM     18  O   UNL     1       7.768   5.235  14.700  0.00  0.00    +0.000 OA
BRANCH  17  19
ATOM     19  O   UNL     1       6.457   3.596  13.901  0.00  0.00    +0.000 OA
BRANCH  19  20
ATOM     20  C   UNL     1       6.359   3.461  12.522  0.00  0.00    +0.000 C 
ATOM     21  C   UNL     1       4.897   3.464  12.047  0.00  0.00    +0.000 C 
ATOM     22  C   UNL     1       7.189   4.528  11.799  0.00  0.00    +0.000 C 
ENDBRANCH  19  20
ENDBRANCH  17  19
ENDBRANCH  16  17
ENDBRANCH   1  16
TORSDOF 11
ENDMDL
MODEL 5
REMARK VINA RESULT:      -5.9      1.682      2.166
REMARK  Name = 
REMARK  15 active torsions:
REMARK  status: ('A' for Active; 'I' for Inactive)
REMARK    1  A    between atoms: C_1  and  C_2
REMARK    2  A    between atoms: C_2  and  C_3
REMARK    3  A    between atoms: C_3  and  C_4
REMARK    4  A    between atoms: C_4  and  C_5
REMARK    5  A    between atoms: C_4  and  C_13
REMARK    6  A    between atoms: C_5  and  N_6
REMARK    7  A    between atoms: N_6  and  C_7
REMARK    8  A    between atoms: C_7  and  C_8
REMARK    9  A    between atoms: C_7  and  C_10
REMARK   10  A    between atoms: C_8  and  C_9
REMARK   11  A    between atoms: C_13  and  C_14
REMARK   12  A    between atoms: C_14  and  O_16
REMARK   13  A    between atoms: O_16  and  C_17
REMARK   14  A    between atoms: C_17  and  C_18
REMARK   15  A    between atoms: C_17  and  C_19
REMARK                            x       y       z     vdW  Elec       q    Type
REMARK                         _______ _______ _______ _____ _____    ______ ____
ROOT
ATOM      1  C   UNL     1       4.082   4.719  17.585  0.00  0.00    +0.000 C 
ENDROOT
BRANCH   1   2
ATOM      2  C   UNL     1       2.741   5.478  17.767  0.00  0.00    +0.000 C 
BRANCH   2   4
ATOM      3  C   UNL     1       2.694   8.043  17.924  0.00  0.00    +0.000 C 
ATOM      4  C   UNL     1       2.778   6.720  18.681  0.00  0.00    +0.000 C 
ENDBRANCH   2   4
ENDBRANCH   1   2
BRANCH   1   5
ATOM      5  C   UNL     1       5.096   5.006  18.725  0.00  0.00    +0.000 C 
BRANCH   5   6
ATOM      6  N   UNL     1       6.310   4.189  18.557  0.00  0.00    +0.000 NA
ATOM      7  H   UNL     1       6.064   3.400  17.908  0.00  0.00    +0.000 HD
BRANCH   6   8
ATOM      8  C   UNL     1       7.462   4.900  17.959  0.00  0.00    +0.000 C 
BRANCH   8   9
ATOM      9  C   UNL     1       8.008   5.872  18.986  0.00  0.00    +0.000 C 
ATOM     10  N   UNL     1       8.270   5.476  20.250  0.00  0.00    +0.000 N 
ATOM     11  O   UNL     1       8.203   7.040  18.680  0.00  0.00    +0.000 OA
ATOM     12  H   UNL     1       8.106   4.502  20.549  0.00  0.00    +0.000 HD
ATOM     13  H   UNL     1       8.621   6.147  20.948  0.00  0.00    +0.000 HD
ENDBRANCH   8   9
BRANCH   8  14
ATOM     14  C   UNL     1       7.109   5.623  16.626  0.00  0.00    +0.000 C 
ATOM     15  C   UNL     1       6.987   4.708  15.406  0.00  0.00    +0.000 C 
ENDBRANCH   8  14
ENDBRANCH   6   8
ENDBRANCH   5   6
ENDBRANCH   1   5
BRANCH   1  16
ATOM     16  C   UNL     1       3.834   3.190  17.429  0.00  0.00    +0.000 C 
BRANCH  16  17
ATOM     17  C   UNL     1       2.622   2.656  18.157  0.00  0.00    +0.000 C 
ATOM     18  O   UNL     1       1.601   2.449  17.524  0.00  0.00    +0.000 OA
BRANCH  17  19
ATOM     19  O   UNL     1       2.659   2.455  19.506  0.00  0.00    +0.000 OA
BRANCH  19  20
ATOM     20  C   UNL     1       2.249   3.336  20.499  0.00  0.00    +0.000 C 
ATOM     21  C   UNL     1       0.843   3.893  20.227  0.00  0.00    +0.000 C 
ATOM     22  C   UNL     1       2.341   2.691  21.886  0.00  0.00    +0.000 C 
ENDBRANCH  19  20
ENDBRANCH  17  19
ENDBRANCH  16  17
ENDBRANCH   1  16
TORSDOF 11
ENDMDL
MODEL 6
REMARK VINA RESULT:      -5.8      2.555      5.686
REMARK  Name = 
REMARK  15 active torsions:
REMARK  status: ('A' for Active; 'I' for Inactive)
REMARK    1  A    between atoms: C_1  and  C_2
REMARK    2  A    between atoms: C_2  and  C_3
REMARK    3  A    between atoms: C_3  and  C_4
REMARK    4  A    between atoms: C_4  and  C_5
REMARK    5  A    between atoms: C_4  and  C_13
REMARK    6  A    between atoms: C_5  and  N_6
REMARK    7  A    between atoms: N_6  and  C_7
REMARK    8  A    between atoms: C_7  and  C_8
REMARK    9  A    between atoms: C_7  and  C_10
REMARK   10  A    between atoms: C_8  and  C_9
REMARK   11  A    between atoms: C_13  and  C_14
REMARK   12  A    between atoms: C_14  and  O_16
REMARK   13  A    between atoms: O_16  and  C_17
REMARK   14  A    between atoms: C_17  and  C_18
REMARK   15  A    between atoms: C_17  and  C_19
REMARK                            x       y       z     vdW  Elec       q    Type
REMARK                         _______ _______ _______ _____ _____    ______ ____
ROOT
ATOM      1  C   UNL     1       4.803   5.517  17.209  0.00  0.00    +0.000 C 
ENDROOT
BRANCH   1   2
ATOM      2  C   UNL     1       3.972   6.782  17.551  0.00  0.00    +0.000 C 
BRANCH   2   4
ATOM      3  C   UNL     1       2.447   6.875  19.618  0.00  0.00    +0.000 C 
ATOM      4  C   UNL     1       2.566   6.536  18.134  0.00  0.00    +0.000 C 
ENDBRANCH   2   4
ENDBRANCH   1   2
BRANCH   1   5
ATOM      5  C   UNL     1       3.941   4.227  17.151  0.00  0.00    +0.000 C 
BRANCH   5   6
ATOM      6  N   UNL     1       4.349   3.283  18.205  0.00  0.00    +0.000 NA
ATOM      7  H   UNL     1       5.291   3.594  18.552  0.00  0.00    +0.000 HD
BRANCH   6   8
ATOM      8  C   UNL     1       3.449   3.233  19.379  0.00  0.00    +0.000 C 
BRANCH   8   9
ATOM      9  C   UNL     1       4.067   2.316  20.416  0.00  0.00    +0.000 C 
ATOM     10  N   UNL     1       5.169   1.588  20.133  0.00  0.00    +0.000 N 
ATOM     11  O   UNL     1       3.558   2.214  21.523  0.00  0.00    +0.000 OA
ATOM     12  H   UNL     1       5.618   1.638  19.206  0.00  0.00    +0.000 HD
ATOM     13  H   UNL     1       5.571   0.951  20.836  0.00  0.00    +0.000 HD
ENDBRANCH   8   9
BRANCH   8  14
ATOM     14  C   UNL     1       2.000   2.787  19.020  0.00  0.00    +0.000 C 
ATOM     15  C   UNL     1       0.899   3.423  19.870  0.00  0.00    +0.000 C 
ENDBRANCH   8  14
ENDBRANCH   6   8
ENDBRANCH   5   6
ENDBRANCH   1   5
BRANCH   1  16
ATOM     16  C   UNL     1       5.595   5.720  15.884  0.00  0.00    +0.000 C 
BRANCH  16  17
ATOM     17  C   UNL     1       6.696   4.716  15.631  0.00  0.00    +0.000 C 
ATOM     18  O   UNL     1       7.614   4.637  16.430  0.00  0.00    +0.000 OA
BRANCH  17  19
ATOM     19  O   UNL     1       6.684   3.945  14.505  0.00  0.00    +0.000 OA
BRANCH  19  20
ATOM     20  C   UNL     1       6.517   4.375  13.195  0.00  0.00    +0.000 C 
ATOM     21  C   UNL     1       7.752   5.128  12.676  0.00  0.00    +0.000 C 
ATOM     22  C   UNL     1       6.138   3.211  12.272  0.00  0.00    +0.000 C 
ENDBRANCH  19  20
ENDBRANCH  17  19
ENDBRANCH  16  17
ENDBRANCH   1  16
TORSDOF 11
ENDMDL
MODEL 7
REMARK VINA RESULT:      -5.8      1.423      1.796
REMARK  Name = 
REMARK  15 active torsions:
REMARK  status: ('A' for Active; 'I' for Inactive)
REMARK    1  A    between atoms: C_1  and  C_2
REMARK    2  A    between atoms: C_2  and  C_3
REMARK    3  A    between atoms: C_3  and  C_4
REMARK    4  A    between atoms: C_4  and  C_5
REMARK    5  A    between atoms: C_4  and  C_13
REMARK    6  A    between atoms: C_5  and  N_6
REMARK    7  A    between atoms: N_6  and  C_7
REMARK    8  A    between atoms: C_7  and  C_8
REMARK    9  A    between atoms: C_7  and  C_10
REMARK   10  A    between atoms: C_8  and  C_9
REMARK   11  A    between atoms: C_13  and  C_14
REMARK   12  A    between atoms: C_14  and  O_16
REMARK   13  A    between atoms: O_16  and  C_17
REMARK   14  A    between atoms: C_17  and  C_18
REMARK   15  A    between atoms: C_17  and  C_19
REMARK                            x       y       z     vdW  Elec       q    Type
REMARK                         _______ _______ _______ _____ _____    ______ ____
ROOT
ATOM      1  C   UNL     1       3.354   5.215  17.689  0.00  0.00    +0.000 C 
ENDROOT
BRANCH   1   2
ATOM      2  C   UNL     1       2.155   6.054  18.207  0.00  0.00    +0.000 C 
BRANCH   2   4
ATOM      3  C   UNL     1       1.820   8.583  17.895  0.00  0.00    +0.000 C 
ATOM      4  C   UNL     1       2.483   7.474  18.709  0.00  0.00    +0.000 C 
ENDBRANCH   2   4
ENDBRANCH   1   2
BRANCH   1   5
ATOM      5  C   UNL     1       4.434   6.080  16.983  0.00  0.00    +0.000 C 
BRANCH   5   6
ATOM      6  N   UNL     1       5.631   6.208  17.830  0.00  0.00    +0.000 NA
ATOM      7  H   UNL     1       5.816   5.262  18.249  0.00  0.00    +0.000 HD
BRANCH   6   8
ATOM      8  C   UNL     1       6.860   6.614  17.113  0.00  0.00    +0.000 C 
BRANCH   8   9
ATOM      9  C   UNL     1       7.446   5.390  16.438  0.00  0.00    +0.000 C 
ATOM     10  N   UNL     1       7.846   4.322  17.161  0.00  0.00    +0.000 N 
ATOM     11  O   UNL     1       7.578   5.365  15.223  0.00  0.00    +0.000 OA
ATOM     12  H   UNL     1       7.763   4.310  18.189  0.00  0.00    +0.000 HD
ATOM     13  H   UNL     1       8.263   3.501  16.697  0.00  0.00    +0.000 HD
ENDBRANCH   8   9
BRANCH   8  14
ATOM     14  C   UNL     1       7.907   7.306  18.037  0.00  0.00    +0.000 C 
ATOM     15  C   UNL     1       8.043   8.817  17.841  0.00  0.00    +0.000 C 
ENDBRANCH   8  14
ENDBRANCH   6   8
ENDBRANCH   5   6
ENDBRANCH   1   5
BRANCH   1  16
ATOM     16  C   UNL     1       3.978   4.375  18.842  0.00  0.00    +0.000 C 
BRANCH  16  17
ATOM     17  C   UNL     1       3.670   2.896  18.802  0.00  0.00    +0.000 C 
ATOM     18  O   UNL     1       3.992   2.256  17.815  0.00  0.00    +0.000 OA
BRANCH  17  19
ATOM     19  O   UNL     1       3.002   2.300  19.832  0.00  0.00    +0.000 OA
BRANCH  19  20
ATOM     20  C   UNL     1       1.642   2.372  20.104  0.00  0.00    +0.000 C 
ATOM     21  C   UNL     1       1.322   3.455  21.146  0.00  0.00    +0.000 C 
ATOM     22  C   UNL     1       0.828   2.565  18.820  0.00  0.00    +0.000 C 
ENDBRANCH  19  20
ENDBRANCH  17  19
ENDBRANCH  16  17
ENDBRANCH   1  16
TORSDOF 11
ENDMDL
MODEL 8
REMARK VINA RESULT:      -5.8      3.430      6.227
REMARK  Name = 
REMARK  15 active torsions:
REMARK  status: ('A' for Active; 'I' for Inactive)
REMARK    1  A    between atoms: C_1  and  C_2
REMARK    2  A    between atoms: C_2  and  C_3
REMARK    3  A    between atoms: C_3  and  C_4
REMARK    4  A    between atoms: C_4  and  C_5
REMARK    5  A    between atoms: C_4  and  C_13
REMARK    6  A    between atoms: C_5  and  N_6
REMARK    7  A    between atoms: N_6  and  C_7
REMARK    8  A    between atoms: C_7  and  C_8
REMARK    9  A    between atoms: C_7  and  C_10
REMARK   10  A    between atoms: C_8  and  C_9
REMARK   11  A    between atoms: C_13  and  C_14
REMARK   12  A    between atoms: C_14  and  O_16
REMARK   13  A    between atoms: O_16  and  C_17
REMARK   14  A    between atoms: C_17  and  C_18
REMARK   15  A    between atoms: C_17  and  C_19
REMARK                            x       y       z     vdW  Elec       q    Type
REMARK                         _______ _______ _______ _____ _____    ______ ____
ROOT
ATOM      1  C   UNL     1       5.894   4.079  16.013  0.00  0.00    +0.000 C 
ENDROOT
BRANCH   1   2
ATOM      2  C   UNL     1       6.647   4.814  17.154  0.00  0.00    +0.000 C 
BRANCH   2   4
ATOM      3  C   UNL     1       7.575   7.188  17.492  0.00  0.00    +0.000 C 
ATOM      4  C   UNL     1       6.334   6.315  17.321  0.00  0.00    +0.000 C 
ENDBRANCH   2   4
ENDBRANCH   1   2
BRANCH   1   5
ATOM      5  C   UNL     1       4.485   3.586  16.442  0.00  0.00    +0.000 C 
BRANCH   5   6
ATOM      6  N   UNL     1       4.457   3.284  17.882  0.00  0.00    +0.000 NA
ATOM      7  H   UNL     1       5.295   3.750  18.312  0.00  0.00    +0.000 HD
BRANCH   6   8
ATOM      8  C   UNL     1       3.264   3.786  18.601  0.00  0.00    +0.000 C 
BRANCH   8   9
ATOM      9  C   UNL     1       2.113   2.836  18.338  0.00  0.00    +0.000 C 
ATOM     10  N   UNL     1       2.244   1.509  18.552  0.00  0.00    +0.000 N 
ATOM     11  O   UNL     1       1.051   3.265  17.910  0.00  0.00    +0.000 OA
ATOM     12  H   UNL     1       3.128   1.108  18.899  0.00  0.00    +0.000 HD
ATOM     13  H   UNL     1       1.463   0.866  18.351  0.00  0.00    +0.000 HD
ENDBRANCH   8   9
BRANCH   8  14
ATOM     14  C   UNL     1       2.890   5.249  18.217  0.00  0.00    +0.000 C 
ATOM     15  C   UNL     1       2.935   6.252  19.371  0.00  0.00    +0.000 C 
ENDBRANCH   8  14
ENDBRANCH   6   8
ENDBRANCH   5   6
ENDBRANCH   1   5
BRANCH   1  16
ATOM     16  C   UNL     1       5.810   4.974  14.742  0.00  0.00    +0.000 C 
BRANCH  16  17
ATOM     17  C   UNL     1       6.989   4.870  13.802  0.00  0.00    +0.000 C 
ATOM     18  O   UNL     1       8.046   5.384  14.126  0.00  0.00    +0.000 OA
BRANCH  17  19
ATOM     19  O   UNL     1       6.857   4.250  12.593  0.00  0.00    +0.000 OA
BRANCH  19  20
ATOM     20  C   UNL     1       6.149   3.088  12.318  0.00  0.00    +0.000 C 
ATOM     21  C   UNL     1       4.739   3.387  11.784  0.00  0.00    +0.000 C 
ATOM     22  C   UNL     1       6.929   2.174  11.367  0.00  0.00    +0.000 C 
ENDBRANCH  19  20
ENDBRANCH  17  19
ENDBRANCH  16  17
ENDBRANCH   1  16
TORSDOF 11
ENDMDL
MODEL 9
REMARK VINA RESULT:      -5.8      1.987      5.498
REMARK  Name = 
REMARK  15 active torsions:
REMARK  status: ('A' for Active; 'I' for Inactive)
REMARK    1  A    between atoms: C_1  and  C_2
REMARK    2  A    between atoms: C_2  and  C_3
REMARK    3  A    between atoms: C_3  and  C_4
REMARK    4  A    between atoms: C_4  and  C_5
REMARK    5  A    between atoms: C_4  and  C_13
REMARK    6  A    between atoms: C_5  and  N_6
REMARK    7  A    between atoms: N_6  and  C_7
REMARK    8  A    between atoms: C_7  and  C_8
REMARK    9  A    between atoms: C_7  and  C_10
REMARK   10  A    between atoms: C_8  and  C_9
REMARK   11  A    between atoms: C_13  and  C_14
REMARK   12  A    between atoms: C_14  and  O_16
REMARK   13  A    between atoms: O_16  and  C_17
REMARK   14  A    between atoms: C_17  and  C_18
REMARK   15  A    between atoms: C_17  and  C_19
REMARK                            x       y       z     vdW  Elec       q    Type
REMARK                         _______ _______ _______ _____ _____    ______ ____
ROOT
ATOM      1  C   UNL     1       4.498   4.848  17.420  0.00  0.00    +0.000 C 
ENDROOT
BRANCH   1   2
ATOM      2  C   UNL     1       4.080   6.121  18.203  0.00  0.00    +0.000 C 
BRANCH   2   4
ATOM      3  C   UNL     1       2.374   8.038  18.051  0.00  0.00    +0.000 C 
ATOM      4  C   UNL     1       3.507   7.281  17.363  0.00  0.00    +0.000 C 
ENDBRANCH   2   4
ENDBRANCH   1   2
BRANCH   1   5
ATOM      5  C   UNL     1       3.323   3.854  17.215  0.00  0.00    +0.000 C 
BRANCH   5   6
ATOM      6  N   UNL     1       3.345   2.806  18.249  0.00  0.00    +0.000 NA
ATOM      7  H   UNL     1       4.282   2.333  18.190  0.00  0.00    +0.000 HD
BRANCH   6   8
ATOM      8  C   UNL     1       3.192   3.296  19.637  0.00  0.00    +0.000 C 
BRANCH   8   9
ATOM      9  C   UNL     1       3.941   2.356  20.561  0.00  0.00    +0.000 C 
ATOM     10  N   UNL     1       5.099   1.779  20.176  0.00  0.00    +0.000 N 
ATOM     11  O   UNL     1       3.489   2.097  21.667  0.00  0.00    +0.000 OA
ATOM     12  H   UNL     1       5.505   1.963  19.245  0.00  0.00    +0.000 HD
ATOM     13  H   UNL     1       5.593   1.125  20.802  0.00  0.00    +0.000 HD
ENDBRANCH   8   9
BRANCH   8  14
ATOM     14  C   UNL     1       1.703   3.449  20.070  0.00  0.00    +0.000 C 
ATOM     15  C   UNL     1       1.308   4.848  20.546  0.00  0.00    +0.000 C 
ENDBRANCH   8  14
ENDBRANCH   6   8
ENDBRANCH   5   6
ENDBRANCH   1   5
BRANCH   1  16
ATOM     16  C   UNL     1       5.152   5.228  16.059  0.00  0.00    +0.000 C 
BRANCH  16  17
ATOM     17  C   UNL     1       6.611   5.616  16.130  0.00  0.00    +0.000 C 
ATOM     18  O   UNL     1       7.455   4.780  15.854  0.00  0.00    +0.000 OA
BRANCH  17  19
ATOM     19  O   UNL     1       6.975   6.865  16.541  0.00  0.00    +0.000 OA
BRANCH  19  20
ATOM     20  C   UNL     1       7.912   7.190  17.514  0.00  0.00    +0.000 C 
ATOM     21  C   UNL     1       7.895   8.689  17.849  0.00  0.00    +0.000 C 
ATOM     22  C   UNL     1       7.728   6.329  18.770  0.00  0.00    +0.000 C 
ENDBRANCH  19  20
ENDBRANCH  17  19
ENDBRANCH  16  17
ENDBRANCH   1  16
TORSDOF 11
ENDMDL
