MODEL 1
REMARK VINA RESULT:      -8.6      0.000      0.000
REMARK  Name = 
REMARK  3 active torsions:
REMARK  status: ('A' for Active; 'I' for Inactive)
REMARK    1  A    between atoms: C_1  and  N_2
REMARK    2  A    between atoms: C_10  and  C_11
REMARK    3  A    between atoms: C_19  and  C_20
REMARK                            x       y       z     vdW  Elec       q    Type
REMARK                         _______ _______ _______ _____ _____    ______ ____
ROOT
ATOM      1  C   UNL     1       2.386   9.511  17.304  0.00  0.00    +0.000 C 
ATOM      2  N   UNL     1       2.010   8.383  18.150  0.00  0.00    +0.000 NA
ATOM      3  C   UNL     1       2.865   7.226  17.875  0.00  0.00    +0.000 C 
ATOM      4  C   UNL     1       2.669   6.104  18.867  0.00  0.00    +0.000 C 
ATOM      5  C   UNL     1       2.025   6.271  20.036  0.00  0.00    +0.000 C 
ATOM      6  N   UNL     1       1.914   5.204  20.892  0.00  0.00    +0.000 N 
ATOM      7  C   UNL     1       2.379   3.953  20.630  0.00  0.00    +0.000 C 
ATOM      8  S   UNL     1       2.224   2.715  21.727  0.00  0.00    +0.000 S 
ATOM      9  N   UNL     1       2.983   3.749  19.437  0.00  0.00    +0.000 N 
ATOM     10  C   UNL     1       3.270   4.787  18.475  0.00  0.00    +0.000 C 
ATOM     11  C   UNL     1       1.507   7.593  20.415  0.00  0.00    +0.000 C 
ATOM     12  C   UNL     1       0.576   7.782  21.371  0.00  0.00    +0.000 C 
ATOM     13  C   UNL     1       2.111   8.720  19.577  0.00  0.00    +0.000 C 
ATOM     14  H   UNL     1       1.472   5.324  21.794  0.00  0.00    +0.000 HD
ATOM     15  H   UNL     1       3.370   2.829  19.274  0.00  0.00    +0.000 HD
ENDROOT
BRANCH  10  16
ATOM     16  C   UNL     1       4.769   4.878  18.269  0.00  0.00    +0.000 A 
ATOM     17  C   UNL     1       5.358   4.530  17.037  0.00  0.00    +0.000 A 
ATOM     18  C   UNL     1       6.740   4.609  16.862  0.00  0.00    +0.000 A 
ATOM     19  C   UNL     1       7.545   5.037  17.917  0.00  0.00    +0.000 A 
ATOM     20  C   UNL     1       6.963   5.372  19.135  0.00  0.00    +0.000 A 
ATOM     21  F   UNL     1       7.740   5.778  20.148  0.00  0.00    +0.000 F 
ATOM     22  C   UNL     1       5.591   5.294  19.323  0.00  0.00    +0.000 A 
ENDBRANCH  10  16
BRANCH  12  23
ATOM     23  C   UNL     1       0.010   9.089  21.716  0.00  0.00    +0.000 A 
ATOM     24  C   UNL     1      -0.259   9.409  23.052  0.00  0.00    +0.000 A 
ATOM     25  C   UNL     1      -0.883  10.616  23.380  0.00  0.00    +0.000 A 
ATOM     26  C   UNL     1      -1.226  11.513  22.371  0.00  0.00    +0.000 A 
ATOM     27  C   UNL     1      -0.932  11.202  21.046  0.00  0.00    +0.000 A 
ATOM     28  F   UNL     1      -1.258  12.069  20.080  0.00  0.00    +0.000 F 
ATOM     29  C   UNL     1      -0.320  10.002  20.708  0.00  0.00    +0.000 A 
ENDBRANCH  12  23
TORSDOF 2
ENDMDL
MODEL 2
REMARK VINA RESULT:      -8.5      0.890      1.286
REMARK  Name = 
REMARK  3 active torsions:
REMARK  status: ('A' for Active; 'I' for Inactive)
REMARK    1  A    between atoms: C_1  and  N_2
REMARK    2  A    between atoms: C_10  and  C_11
REMARK    3  A    between atoms: C_19  and  C_20
REMARK                            x       y       z     vdW  Elec       q    Type
REMARK                         _______ _______ _______ _____ _____    ______ ____
ROOT
ATOM      1  C   UNL     1       2.476   9.592  17.366  0.00  0.00    +0.000 C 
ATOM      2  N   UNL     1       2.068   8.457  18.187  0.00  0.00    +0.000 NA
ATOM      3  C   UNL     1       2.924   7.297  17.923  0.00  0.00    +0.000 C 
ATOM      4  C   UNL     1       2.692   6.164  18.895  0.00  0.00    +0.000 C 
ATOM      5  C   UNL     1       2.015   6.322  20.048  0.00  0.00    +0.000 C 
ATOM      6  N   UNL     1       1.872   5.246  20.886  0.00  0.00    +0.000 N 
ATOM      7  C   UNL     1       2.337   3.995  20.623  0.00  0.00    +0.000 C 
ATOM      8  S   UNL     1       2.142   2.745  21.700  0.00  0.00    +0.000 S 
ATOM      9  N   UNL     1       2.974   3.801  19.447  0.00  0.00    +0.000 N 
ATOM     10  C   UNL     1       3.296   4.848  18.506  0.00  0.00    +0.000 C 
ATOM     11  C   UNL     1       1.494   7.643  20.426  0.00  0.00    +0.000 C 
ATOM     12  C   UNL     1       0.537   7.827  21.357  0.00  0.00    +0.000 C 
ATOM     13  C   UNL     1       2.130   8.775  19.620  0.00  0.00    +0.000 C 
ATOM     14  H   UNL     1       1.405   5.359  21.776  0.00  0.00    +0.000 HD
ATOM     15  H   UNL     1       3.360   2.880  19.284  0.00  0.00    +0.000 HD
ENDROOT
BRANCH  10  16
ATOM     16  C   UNL     1       4.801   4.932  18.345  0.00  0.00    +0.000 A 
ATOM     17  C   UNL     1       5.622   5.394  19.392  0.00  0.00    +0.000 A 
ATOM     18  C   UNL     1       7.005   5.475  19.229  0.00  0.00    +0.000 A 
ATOM     19  C   UNL     1       7.580   5.095  18.017  0.00  0.00    +0.000 A 
ATOM     20  C   UNL     1       6.768   4.647  16.981  0.00  0.00    +0.000 A 
ATOM     21  F   UNL     1       7.322   4.287  15.816  0.00  0.00    +0.000 F 
ATOM     22  C   UNL     1       5.391   4.565  17.129  0.00  0.00    +0.000 A 
ENDBRANCH  10  16
BRANCH  12  23
ATOM     23  C   UNL     1      -0.032   9.133  21.700  0.00  0.00    +0.000 A 
ATOM     24  C   UNL     1      -0.317   9.448  23.035  0.00  0.00    +0.000 A 
ATOM     25  C   UNL     1      -0.944  10.654  23.360  0.00  0.00    +0.000 A 
ATOM     26  C   UNL     1      -1.271  11.557  22.351  0.00  0.00    +0.000 A 
ATOM     27  C   UNL     1      -0.960  11.252  21.029  0.00  0.00    +0.000 A 
ATOM     28  F   UNL     1      -1.271  12.124  20.062  0.00  0.00    +0.000 F 
ATOM     29  C   UNL     1      -0.346  10.052  20.693  0.00  0.00    +0.000 A 
ENDBRANCH  12  23
TORSDOF 2
ENDMDL
MODEL 3
REMARK VINA RESULT:      -8.2      2.998      8.167
REMARK  Name = 
REMARK  3 active torsions:
REMARK  status: ('A' for Active; 'I' for Inactive)
REMARK    1  A    between atoms: C_1  and  N_2
REMARK    2  A    between atoms: C_10  and  C_11
REMARK    3  A    between atoms: C_19  and  C_20
REMARK                            x       y       z     vdW  Elec       q    Type
REMARK                         _______ _______ _______ _____ _____    ______ ____
ROOT
ATOM      1  C   UNL     1       6.903   7.968  17.175  0.00  0.00    +0.000 C 
ATOM      2  N   UNL     1       6.099   6.757  17.302  0.00  0.00    +0.000 NA
ATOM      3  C   UNL     1       5.082   6.921  18.344  0.00  0.00    +0.000 C 
ATOM      4  C   UNL     1       4.084   5.788  18.372  0.00  0.00    +0.000 C 
ATOM      5  C   UNL     1       3.957   4.905  17.364  0.00  0.00    +0.000 C 
ATOM      6  N   UNL     1       3.006   3.921  17.459  0.00  0.00    +0.000 N 
ATOM      7  C   UNL     1       2.189   3.737  18.531  0.00  0.00    +0.000 C 
ATOM      8  S   UNL     1       1.046   2.532  18.564  0.00  0.00    +0.000 S 
ATOM      9  N   UNL     1       2.335   4.581  19.578  0.00  0.00    +0.000 N 
ATOM     10  C   UNL     1       3.214   5.727  19.592  0.00  0.00    +0.000 C 
ATOM     11  C   UNL     1       4.783   5.036  16.155  0.00  0.00    +0.000 C 
ATOM     12  C   UNL     1       4.971   4.037  15.271  0.00  0.00    +0.000 C 
ATOM     13  C   UNL     1       5.432   6.415  16.038  0.00  0.00    +0.000 C 
ATOM     14  H   UNL     1       2.868   3.277  16.692  0.00  0.00    +0.000 HD
ATOM     15  H   UNL     1       1.689   4.468  20.348  0.00  0.00    +0.000 HD
ENDROOT
BRANCH  10  16
ATOM     16  C   UNL     1       2.391   6.987  19.774  0.00  0.00    +0.000 A 
ATOM     17  C   UNL     1       1.754   7.272  20.998  0.00  0.00    +0.000 A 
ATOM     18  C   UNL     1       0.992   8.430  21.151  0.00  0.00    +0.000 A 
ATOM     19  C   UNL     1       0.859   9.314  20.082  0.00  0.00    +0.000 A 
ATOM     20  C   UNL     1       1.481   9.028  18.871  0.00  0.00    +0.000 A 
ATOM     21  F   UNL     1       1.346   9.876  17.843  0.00  0.00    +0.000 F 
ATOM     22  C   UNL     1       2.238   7.878  18.705  0.00  0.00    +0.000 A 
ENDBRANCH  10  16
BRANCH  12  23
ATOM     23  C   UNL     1       5.839   4.139  14.094  0.00  0.00    +0.000 A 
ATOM     24  C   UNL     1       5.579   3.360  12.959  0.00  0.00    +0.000 A 
ATOM     25  C   UNL     1       6.454   3.383  11.869  0.00  0.00    +0.000 A 
ATOM     26  C   UNL     1       7.583   4.198  11.906  0.00  0.00    +0.000 A 
ATOM     27  C   UNL     1       7.821   4.991  13.025  0.00  0.00    +0.000 A 
ATOM     28  F   UNL     1       8.904   5.777  13.054  0.00  0.00    +0.000 F 
ATOM     29  C   UNL     1       6.964   4.969  14.118  0.00  0.00    +0.000 A 
ENDBRANCH  12  23
TORSDOF 2
ENDMDL
MODEL 4
REMARK VINA RESULT:      -8.1      3.013      8.129
REMARK  Name = 
REMARK  3 active torsions:
REMARK  status: ('A' for Active; 'I' for Inactive)
REMARK    1  A    between atoms: C_1  and  N_2
REMARK    2  A    between atoms: C_10  and  C_11
REMARK    3  A    between atoms: C_19  and  C_20
REMARK                            x       y       z     vdW  Elec       q    Type
REMARK                         _______ _______ _______ _____ _____    ______ ____
ROOT
ATOM      1  C   UNL     1       6.877   7.992  17.164  0.00  0.00    +0.000 C 
ATOM      2  N   UNL     1       6.074   6.781  17.296  0.00  0.00    +0.000 NA
ATOM      3  C   UNL     1       5.055   6.950  18.336  0.00  0.00    +0.000 C 
ATOM      4  C   UNL     1       4.057   5.816  18.367  0.00  0.00    +0.000 C 
ATOM      5  C   UNL     1       3.933   4.928  17.364  0.00  0.00    +0.000 C 
ATOM      6  N   UNL     1       2.983   3.944  17.463  0.00  0.00    +0.000 N 
ATOM      7  C   UNL     1       2.163   3.765  18.534  0.00  0.00    +0.000 C 
ATOM      8  S   UNL     1       1.021   2.560  18.571  0.00  0.00    +0.000 S 
ATOM      9  N   UNL     1       2.307   4.615  19.577  0.00  0.00    +0.000 N 
ATOM     10  C   UNL     1       3.185   5.762  19.586  0.00  0.00    +0.000 C 
ATOM     11  C   UNL     1       4.761   5.054  16.156  0.00  0.00    +0.000 C 
ATOM     12  C   UNL     1       4.951   4.050  15.278  0.00  0.00    +0.000 C 
ATOM     13  C   UNL     1       5.409   6.432  16.032  0.00  0.00    +0.000 C 
ATOM     14  H   UNL     1       2.846   3.296  16.698  0.00  0.00    +0.000 HD
ATOM     15  H   UNL     1       1.660   4.506  20.346  0.00  0.00    +0.000 HD
ENDROOT
BRANCH  10  16
ATOM     16  C   UNL     1       2.361   7.022  19.760  0.00  0.00    +0.000 A 
ATOM     17  C   UNL     1       2.203   7.942  18.705  0.00  0.00    +0.000 A 
ATOM     18  C   UNL     1       1.450   9.103  18.880  0.00  0.00    +0.000 A 
ATOM     19  C   UNL     1       0.847   9.354  20.111  0.00  0.00    +0.000 A 
ATOM     20  C   UNL     1       1.010   8.449  21.155  0.00  0.00    +0.000 A 
ATOM     21  F   UNL     1       0.434   8.696  22.339  0.00  0.00    +0.000 F 
ATOM     22  C   UNL     1       1.759   7.293  20.995  0.00  0.00    +0.000 A 
ENDBRANCH  10  16
BRANCH  12  23
ATOM     23  C   UNL     1       5.822   4.145  14.102  0.00  0.00    +0.000 A 
ATOM     24  C   UNL     1       5.562   3.364  12.969  0.00  0.00    +0.000 A 
ATOM     25  C   UNL     1       6.439   3.382  11.880  0.00  0.00    +0.000 A 
ATOM     26  C   UNL     1       7.569   4.194  11.916  0.00  0.00    +0.000 A 
ATOM     27  C   UNL     1       7.808   4.990  13.033  0.00  0.00    +0.000 A 
ATOM     28  F   UNL     1       8.893   5.773  13.062  0.00  0.00    +0.000 F 
ATOM     29  C   UNL     1       6.949   4.973  14.125  0.00  0.00    +0.000 A 
ENDBRANCH  12  23
TORSDOF 2
ENDMDL
MODEL 5
REMARK VINA RESULT:      -7.9      3.080      4.630
REMARK  Name = 
REMARK  3 active torsions:
REMARK  status: ('A' for Active; 'I' for Inactive)
REMARK    1  A    between atoms: C_1  and  N_2
REMARK    2  A    between atoms: C_10  and  C_11
REMARK    3  A    between atoms: C_19  and  C_20
REMARK                            x       y       z     vdW  Elec       q    Type
REMARK                         _______ _______ _______ _____ _____    ______ ____
ROOT
ATOM      1  C   UNL     1       0.193   8.672  22.317  0.00  0.00    +0.000 C 
ATOM      2  N   UNL     1       1.156   8.647  21.222  0.00  0.00    +0.000 NA
ATOM      3  C   UNL     1       1.645   7.284  20.996  0.00  0.00    +0.000 C 
ATOM      4  C   UNL     1       2.474   7.160  19.740  0.00  0.00    +0.000 C 
ATOM      5  C   UNL     1       2.495   8.108  18.785  0.00  0.00    +0.000 C 
ATOM      6  N   UNL     1       3.256   7.903  17.662  0.00  0.00    +0.000 N 
ATOM      7  C   UNL     1       4.041   6.812  17.450  0.00  0.00    +0.000 C 
ATOM      8  S   UNL     1       4.920   6.625  16.053  0.00  0.00    +0.000 S 
ATOM      9  N   UNL     1       4.077   5.871  18.421  0.00  0.00    +0.000 N 
ATOM     10  C   UNL     1       3.257   5.887  19.610  0.00  0.00    +0.000 C 
ATOM     11  C   UNL     1       1.663   9.312  18.917  0.00  0.00    +0.000 C 
ATOM     12  C   UNL     1       1.869  10.440  18.210  0.00  0.00    +0.000 C 
ATOM     13  C   UNL     1       0.569   9.154  19.973  0.00  0.00    +0.000 C 
ATOM     14  H   UNL     1       3.248   8.584  16.915  0.00  0.00    +0.000 HD
ATOM     15  H   UNL     1       4.622   5.041  18.231  0.00  0.00    +0.000 HD
ENDROOT
BRANCH  10  16
ATOM     16  C   UNL     1       2.366   4.661  19.621  0.00  0.00    +0.000 A 
ATOM     17  C   UNL     1       1.757   4.191  18.442  0.00  0.00    +0.000 A 
ATOM     18  C   UNL     1       0.932   3.067  18.467  0.00  0.00    +0.000 A 
ATOM     19  C   UNL     1       0.709   2.402  19.671  0.00  0.00    +0.000 A 
ATOM     20  C   UNL     1       1.304   2.871  20.837  0.00  0.00    +0.000 A 
ATOM     21  F   UNL     1       1.083   2.234  21.994  0.00  0.00    +0.000 F 
ATOM     22  C   UNL     1       2.124   3.990  20.826  0.00  0.00    +0.000 A 
ENDBRANCH  10  16
BRANCH  12  23
ATOM     23  C   UNL     1       1.083  11.666  18.376  0.00  0.00    +0.000 A 
ATOM     24  C   UNL     1      -0.314  11.626  18.273  0.00  0.00    +0.000 A 
ATOM     25  C   UNL     1      -1.062  12.805  18.339  0.00  0.00    +0.000 A 
ATOM     26  C   UNL     1      -0.417  14.025  18.525  0.00  0.00    +0.000 A 
ATOM     27  C   UNL     1       0.969  14.055  18.656  0.00  0.00    +0.000 A 
ATOM     28  F   UNL     1       1.586  15.229  18.841  0.00  0.00    +0.000 F 
ATOM     29  C   UNL     1       1.724  12.892  18.582  0.00  0.00    +0.000 A 
ENDBRANCH  12  23
TORSDOF 2
ENDMDL
MODEL 6
REMARK VINA RESULT:      -7.9      2.938      4.534
REMARK  Name = 
REMARK  3 active torsions:
REMARK  status: ('A' for Active; 'I' for Inactive)
REMARK    1  A    between atoms: C_1  and  N_2
REMARK    2  A    between atoms: C_10  and  C_11
REMARK    3  A    between atoms: C_19  and  C_20
REMARK                            x       y       z     vdW  Elec       q    Type
REMARK                         _______ _______ _______ _____ _____    ______ ____
ROOT
ATOM      1  C   UNL     1       0.182   8.625  22.277  0.00  0.00    +0.000 C 
ATOM      2  N   UNL     1       1.157   8.582  21.193  0.00  0.00    +0.000 NA
ATOM      3  C   UNL     1       1.651   7.217  20.996  0.00  0.00    +0.000 C 
ATOM      4  C   UNL     1       2.494   7.072  19.752  0.00  0.00    +0.000 C 
ATOM      5  C   UNL     1       2.524   8.003  18.780  0.00  0.00    +0.000 C 
ATOM      6  N   UNL     1       3.299   7.780  17.671  0.00  0.00    +0.000 N 
ATOM      7  C   UNL     1       4.087   6.686  17.486  0.00  0.00    +0.000 C 
ATOM      8  S   UNL     1       4.982   6.477  16.102  0.00  0.00    +0.000 S 
ATOM      9  N   UNL     1       4.113   5.763  18.473  0.00  0.00    +0.000 N 
ATOM     10  C   UNL     1       3.280   5.798  19.653  0.00  0.00    +0.000 C 
ATOM     11  C   UNL     1       1.689   9.208  18.883  0.00  0.00    +0.000 C 
ATOM     12  C   UNL     1       1.901  10.324  18.158  0.00  0.00    +0.000 C 
ATOM     13  C   UNL     1       0.583   9.066  19.929  0.00  0.00    +0.000 C 
ATOM     14  H   UNL     1       3.298   8.448  16.912  0.00  0.00    +0.000 HD
ATOM     15  H   UNL     1       4.662   4.930  18.304  0.00  0.00    +0.000 HD
ENDROOT
BRANCH  10  16
ATOM     16  C   UNL     1       2.391   4.571  19.675  0.00  0.00    +0.000 A 
ATOM     17  C   UNL     1       1.786   4.087  18.499  0.00  0.00    +0.000 A 
ATOM     18  C   UNL     1       0.962   2.962  18.534  0.00  0.00    +0.000 A 
ATOM     19  C   UNL     1       0.736   2.310  19.745  0.00  0.00    +0.000 A 
ATOM     20  C   UNL     1       1.327   2.794  20.907  0.00  0.00    +0.000 A 
ATOM     21  F   UNL     1       1.104   2.169  22.071  0.00  0.00    +0.000 F 
ATOM     22  C   UNL     1       2.145   3.913  20.887  0.00  0.00    +0.000 A 
ENDBRANCH  10  16
BRANCH  12  23
ATOM     23  C   UNL     1       1.112  11.551  18.295  0.00  0.00    +0.000 A 
ATOM     24  C   UNL     1       1.753  12.787  18.445  0.00  0.00    +0.000 A 
ATOM     25  C   UNL     1       1.008  13.949  18.667  0.00  0.00    +0.000 A 
ATOM     26  C   UNL     1      -0.381  13.879  18.724  0.00  0.00    +0.000 A 
ATOM     27  C   UNL     1      -1.015  12.653  18.546  0.00  0.00    +0.000 A 
ATOM     28  F   UNL     1      -2.351  12.590  18.596  0.00  0.00    +0.000 F 
ATOM     29  C   UNL     1      -0.285  11.490  18.334  0.00  0.00    +0.000 A 
ENDBRANCH  12  23
TORSDOF 2
ENDMDL
MODEL 7
REMARK VINA RESULT:      -7.8      3.230      8.222
REMARK  Name = 
REMARK  3 active torsions:
REMARK  status: ('A' for Active; 'I' for Inactive)
REMARK    1  A    between atoms: C_1  and  N_2
REMARK    2  A    between atoms: C_10  and  C_11
REMARK    3  A    between atoms: C_19  and  C_20
REMARK                            x       y       z     vdW  Elec       q    Type
REMARK                         _______ _______ _______ _____ _____    ______ ____
ROOT
ATOM      1  C   UNL     1       6.939   7.891  17.255  0.00  0.00    +0.000 C 
ATOM      2  N   UNL     1       6.109   6.700  17.396  0.00  0.00    +0.000 NA
ATOM      3  C   UNL     1       5.068   6.914  18.405  0.00  0.00    +0.000 C 
ATOM      4  C   UNL     1       4.047   5.801  18.439  0.00  0.00    +0.000 C 
ATOM      5  C   UNL     1       3.930   4.891  17.455  0.00  0.00    +0.000 C 
ATOM      6  N   UNL     1       2.958   3.928  17.554  0.00  0.00    +0.000 N 
ATOM      7  C   UNL     1       2.109   3.792  18.608  0.00  0.00    +0.000 C 
ATOM      8  S   UNL     1       0.943   2.610  18.645  0.00  0.00    +0.000 S 
ATOM      9  N   UNL     1       2.244   4.664  19.633  0.00  0.00    +0.000 N 
ATOM     10  C   UNL     1       3.144   5.794  19.637  0.00  0.00    +0.000 C 
ATOM     11  C   UNL     1       4.790   4.971  16.266  0.00  0.00    +0.000 C 
ATOM     12  C   UNL     1       4.982   3.942  15.417  0.00  0.00    +0.000 C 
ATOM     13  C   UNL     1       5.469   6.333  16.125  0.00  0.00    +0.000 C 
ATOM     14  H   UNL     1       2.828   3.264  16.802  0.00  0.00    +0.000 HD
ATOM     15  H   UNL     1       1.576   4.587  20.389  0.00  0.00    +0.000 HD
ENDROOT
BRANCH  10  16
ATOM     16  C   UNL     1       2.342   7.073  19.759  0.00  0.00    +0.000 A 
ATOM     17  C   UNL     1       1.689   7.413  20.961  0.00  0.00    +0.000 A 
ATOM     18  C   UNL     1       0.946   8.589  21.059  0.00  0.00    +0.000 A 
ATOM     19  C   UNL     1       0.847   9.436  19.956  0.00  0.00    +0.000 A 
ATOM     20  C   UNL     1       1.485   9.096  18.768  0.00  0.00    +0.000 A 
ATOM     21  F   UNL     1       1.384   9.909  17.708  0.00  0.00    +0.000 F 
ATOM     22  C   UNL     1       2.224   7.928  18.657  0.00  0.00    +0.000 A 
ENDBRANCH  10  16
BRANCH  12  23
ATOM     23  C   UNL     1       5.883   3.991  14.262  0.00  0.00    +0.000 A 
ATOM     24  C   UNL     1       6.938   4.913  14.230  0.00  0.00    +0.000 A 
ATOM     25  C   UNL     1       7.744   5.028  13.094  0.00  0.00    +0.000 A 
ATOM     26  C   UNL     1       7.506   4.210  11.992  0.00  0.00    +0.000 A 
ATOM     27  C   UNL     1       6.475   3.277  12.040  0.00  0.00    +0.000 A 
ATOM     28  F   UNL     1       6.254   2.488  10.981  0.00  0.00    +0.000 F 
ATOM     29  C   UNL     1       5.662   3.159  13.159  0.00  0.00    +0.000 A 
ENDBRANCH  12  23
TORSDOF 2
ENDMDL
MODEL 8
REMARK VINA RESULT:      -7.7      3.229      8.191
REMARK  Name = 
REMARK  3 active torsions:
REMARK  status: ('A' for Active; 'I' for Inactive)
REMARK    1  A    between atoms: C_1  and  N_2
REMARK    2  A    between atoms: C_10  and  C_11
REMARK    3  A    between atoms: C_19  and  C_20
REMARK                            x       y       z     vdW  Elec       q    Type
REMARK                         _______ _______ _______ _____ _____    ______ ____
ROOT
ATOM      1  C   UNL     1       6.911   7.922  17.235  0.00  0.00    +0.000 C 
ATOM      2  N   UNL     1       6.087   6.727  17.383  0.00  0.00    +0.000 NA
ATOM      3  C   UNL     1       5.043   6.942  18.389  0.00  0.00    +0.000 C 
ATOM      4  C   UNL     1       4.029   5.823  18.429  0.00  0.00    +0.000 C 
ATOM      5  C   UNL     1       3.918   4.906  17.450  0.00  0.00    +0.000 C 
ATOM      6  N   UNL     1       2.952   3.938  17.554  0.00  0.00    +0.000 N 
ATOM      7  C   UNL     1       2.102   3.804  18.608  0.00  0.00    +0.000 C 
ATOM      8  S   UNL     1       0.942   2.616  18.651  0.00  0.00    +0.000 S 
ATOM      9  N   UNL     1       2.231   4.683  19.628  0.00  0.00    +0.000 N 
ATOM     10  C   UNL     1       3.125   5.818  19.625  0.00  0.00    +0.000 C 
ATOM     11  C   UNL     1       4.779   4.983  16.262  0.00  0.00    +0.000 C 
ATOM     12  C   UNL     1       4.979   3.950  15.420  0.00  0.00    +0.000 C 
ATOM     13  C   UNL     1       5.450   6.348  16.113  0.00  0.00    +0.000 C 
ATOM     14  H   UNL     1       2.826   3.269  16.806  0.00  0.00    +0.000 HD
ATOM     15  H   UNL     1       1.562   4.607  20.383  0.00  0.00    +0.000 HD
ENDROOT
BRANCH  10  16
ATOM     16  C   UNL     1       2.314   7.094  19.738  0.00  0.00    +0.000 A 
ATOM     17  C   UNL     1       2.195   7.982  18.651  0.00  0.00    +0.000 A 
ATOM     18  C   UNL     1       1.453   9.157  18.770  0.00  0.00    +0.000 A 
ATOM     19  C   UNL     1       0.825   9.456  19.978  0.00  0.00    +0.000 A 
ATOM     20  C   UNL     1       0.950   8.584  21.053  0.00  0.00    +0.000 A 
ATOM     21  F   UNL     1       0.350   8.877  22.215  0.00  0.00    +0.000 F 
ATOM     22  C   UNL     1       1.687   7.413  20.949  0.00  0.00    +0.000 A 
ENDBRANCH  10  16
BRANCH  12  23
ATOM     23  C   UNL     1       5.881   3.997  14.265  0.00  0.00    +0.000 A 
ATOM     24  C   UNL     1       6.934   4.920  14.233  0.00  0.00    +0.000 A 
ATOM     25  C   UNL     1       7.741   5.033  13.097  0.00  0.00    +0.000 A 
ATOM     26  C   UNL     1       7.506   4.212  11.997  0.00  0.00    +0.000 A 
ATOM     27  C   UNL     1       6.476   3.277  12.046  0.00  0.00    +0.000 A 
ATOM     28  F   UNL     1       6.256   2.486  10.989  0.00  0.00    +0.000 F 
ATOM     29  C   UNL     1       5.661   3.162  13.165  0.00  0.00    +0.000 A 
ENDBRANCH  12  23
TORSDOF 2
ENDMDL
MODEL 9
REMARK VINA RESULT:      -7.6      1.222      1.422
REMARK  Name = 
REMARK  3 active torsions:
REMARK  status: ('A' for Active; 'I' for Inactive)
REMARK    1  A    between atoms: C_1  and  N_2
REMARK    2  A    between atoms: C_10  and  C_11
REMARK    3  A    between atoms: C_19  and  C_20
REMARK                            x       y       z     vdW  Elec       q    Type
REMARK                         _______ _______ _______ _____ _____    ______ ____
ROOT
ATOM      1  C   UNL     1       2.347  10.409  17.520  0.00  0.00    +0.000 C 
ATOM      2  N   UNL     1       1.945   9.225  18.273  0.00  0.00    +0.000 NA
ATOM      3  C   UNL     1       2.868   8.115  18.019  0.00  0.00    +0.000 C 
ATOM      4  C   UNL     1       2.632   6.937  18.933  0.00  0.00    +0.000 C 
ATOM      5  C   UNL     1       1.882   7.019  20.048  0.00  0.00    +0.000 C 
ATOM      6  N   UNL     1       1.740   5.905  20.836  0.00  0.00    +0.000 N 
ATOM      7  C   UNL     1       2.277   4.687  20.556  0.00  0.00    +0.000 C 
ATOM      8  S   UNL     1       2.078   3.389  21.573  0.00  0.00    +0.000 S 
ATOM      9  N   UNL     1       2.991   4.568  19.414  0.00  0.00    +0.000 N 
ATOM     10  C   UNL     1       3.319   5.665  18.533  0.00  0.00    +0.000 C 
ATOM     11  C   UNL     1       1.279   8.300  20.443  0.00  0.00    +0.000 C 
ATOM     12  C   UNL     1       0.262   8.404  21.320  0.00  0.00    +0.000 C 
ATOM     13  C   UNL     1       1.908   9.490  19.718  0.00  0.00    +0.000 C 
ATOM     14  H   UNL     1       1.217   5.962  21.700  0.00  0.00    +0.000 HD
ATOM     15  H   UNL     1       3.428   3.673  19.241  0.00  0.00    +0.000 HD
ENDROOT
BRANCH  10  16
ATOM     16  C   UNL     1       4.825   5.821  18.466  0.00  0.00    +0.000 A 
ATOM     17  C   UNL     1       5.665   5.207  19.416  0.00  0.00    +0.000 A 
ATOM     18  C   UNL     1       7.049   5.366  19.349  0.00  0.00    +0.000 A 
ATOM     19  C   UNL     1       7.606   6.140  18.332  0.00  0.00    +0.000 A 
ATOM     20  C   UNL     1       6.776   6.752  17.400  0.00  0.00    +0.000 A 
ATOM     21  F   UNL     1       7.313   7.500  16.427  0.00  0.00    +0.000 F 
ATOM     22  C   UNL     1       5.398   6.605  17.457  0.00  0.00    +0.000 A 
ENDBRANCH  10  16
BRANCH  12  23
ATOM     23  C   UNL     1      -0.386   9.670  21.676  0.00  0.00    +0.000 A 
ATOM     24  C   UNL     1      -0.709   9.944  23.011  0.00  0.00    +0.000 A 
ATOM     25  C   UNL     1      -1.409  11.107  23.346  0.00  0.00    +0.000 A 
ATOM     26  C   UNL     1      -1.772  12.006  22.347  0.00  0.00    +0.000 A 
ATOM     27  C   UNL     1      -1.424  11.743  21.025  0.00  0.00    +0.000 A 
ATOM     28  F   UNL     1      -1.771  12.613  20.069  0.00  0.00    +0.000 F 
ATOM     29  C   UNL     1      -0.738  10.586  20.679  0.00  0.00    +0.000 A 
ENDBRANCH  12  23
TORSDOF 2
ENDMDL
