MODEL 1
REMARK VINA RESULT:      -9.3      0.000      0.000
REMARK  Name = 
REMARK  7 active torsions:
REMARK  status: ('A' for Active; 'I' for Inactive)
REMARK    1  A    between atoms: C_1  and  C_2
REMARK    2  A    between atoms: C_4  and  C_5
REMARK    3  A    between atoms: N_8  and  S_9
REMARK    4  A    between atoms: S_9  and  C_12
REMARK    5  A    between atoms: C_15  and  N_16
REMARK    6  A    between atoms: N_16  and  C_17
REMARK    7  A    between atoms: C_17  and  C_18
REMARK                            x       y       z     vdW  Elec       q    Type
REMARK                         _______ _______ _______ _____ _____    ______ ____
ROOT
ATOM      1  C   UNL     1       2.561   4.559  18.728  0.00  0.00    +0.000 A 
ATOM      2  C   UNL     1       2.516   5.793  18.078  0.00  0.00    +0.000 A 
ATOM      3  C   UNL     1       2.266   6.961  18.814  0.00  0.00    +0.000 A 
ATOM      4  C   UNL     1       2.063   6.912  20.197  0.00  0.00    +0.000 A 
ATOM      5  C   UNL     1       2.082   5.653  20.821  0.00  0.00    +0.000 A 
ATOM      6  C   UNL     1       2.309   4.478  20.096  0.00  0.00    +0.000 A 
ENDROOT
BRANCH   1   7
ATOM      7  S   UNL     1       2.829   3.063  17.792  0.00  0.00    +0.000 S 
ATOM      8  O   UNL     1       2.274   3.269  16.471  0.00  0.00    +0.000 OA
ATOM      9  O   UNL     1       2.360   1.967  18.620  0.00  0.00    +0.000 OA
BRANCH   7  17
ATOM     10  C   UNL     1       6.420   3.850  13.461  0.00  0.00    +0.000 C 
ATOM     11  C   UNL     1       6.090   4.275  14.860  0.00  0.00    +0.000 A 
ATOM     12  C   UNL     1       6.548   5.483  15.359  0.00  0.00    +0.000 A 
ATOM     13  C   UNL     1       6.239   5.768  16.679  0.00  0.00    +0.000 A 
ATOM     14  C   UNL     1       6.658   7.064  17.306  0.00  0.00    +0.000 C 
ATOM     15  N   UNL     1       5.554   4.908  17.457  0.00  0.00    +0.000 NA
ATOM     16  C   UNL     1       5.143   3.789  16.868  0.00  0.00    +0.000 A 
ATOM     17  N   UNL     1       4.483   2.891  17.705  0.00  0.00    +0.000 N 
ATOM     18  N   UNL     1       5.360   3.418  15.604  0.00  0.00    +0.000 NA
ATOM     19  H   UNL     1       4.910   2.858  18.630  0.00  0.00    +0.000 HD
ENDBRANCH   7  17
ENDBRANCH   1   7
BRANCH   4  20
ATOM     20  N   UNL     1       1.714   8.005  20.981  0.00  0.00    +0.000 N 
ATOM     21  H   UNL     1       2.179   8.860  20.692  0.00  0.00    +0.000 HD
BRANCH  20  22
ATOM     22  C   UNL     1       0.413   8.213  21.618  0.00  0.00    +0.000 C 
BRANCH  22  23
ATOM     23  C   UNL     1      -0.116   9.594  21.353  0.00  0.00    +0.000 A 
ATOM     24  C   UNL     1      -0.357  10.149  20.155  0.00  0.00    +0.000 A 
ATOM     25  O   UNL     1      -0.759  11.440  19.921  0.00  0.00    +0.000 OA
ATOM     26  C   UNL     1      -1.473  12.025  20.929  0.00  0.00    +0.000 A 
ATOM     27  C   UNL     1      -2.308  13.079  20.580  0.00  0.00    +0.000 A 
ATOM     28  C   UNL     1      -3.247  13.528  21.501  0.00  0.00    +0.000 A 
ATOM     29  C   UNL     1      -3.316  12.943  22.771  0.00  0.00    +0.000 A 
ATOM     30  C   UNL     1      -2.393  11.963  23.155  0.00  0.00    +0.000 A 
ATOM     31  C   UNL     1      -1.458  11.515  22.226  0.00  0.00    +0.000 A 
ATOM     32  C   UNL     1      -0.499  10.426  22.523  0.00  0.00    +0.000 A 
ATOM     33  O   UNL     1      -0.090  10.205  23.656  0.00  0.00    +0.000 OA
ENDBRANCH  22  23
ENDBRANCH  20  22
ENDBRANCH   4  20
TORSDOF 5
ENDMDL
MODEL 2
REMARK VINA RESULT:      -9.1      5.665      8.804
REMARK  Name = 
REMARK  7 active torsions:
REMARK  status: ('A' for Active; 'I' for Inactive)
REMARK    1  A    between atoms: C_1  and  C_2
REMARK    2  A    between atoms: C_4  and  C_5
REMARK    3  A    between atoms: N_8  and  S_9
REMARK    4  A    between atoms: S_9  and  C_12
REMARK    5  A    between atoms: C_15  and  N_16
REMARK    6  A    between atoms: N_16  and  C_17
REMARK    7  A    between atoms: C_17  and  C_18
REMARK                            x       y       z     vdW  Elec       q    Type
REMARK                         _______ _______ _______ _____ _____    ______ ____
ROOT
ATOM      1  C   UNL     1       6.546   6.011  17.855  0.00  0.00    +0.000 A 
ATOM      2  C   UNL     1       7.679   6.105  18.665  0.00  0.00    +0.000 A 
ATOM      3  C   UNL     1       8.373   7.320  18.756  0.00  0.00    +0.000 A 
ATOM      4  C   UNL     1       7.946   8.449  18.048  0.00  0.00    +0.000 A 
ATOM      5  C   UNL     1       6.822   8.318  17.216  0.00  0.00    +0.000 A 
ATOM      6  C   UNL     1       6.133   7.107  17.100  0.00  0.00    +0.000 A 
ENDROOT
BRANCH   1   7
ATOM      7  S   UNL     1       5.687   4.456  17.695  0.00  0.00    +0.000 S 
ATOM      8  O   UNL     1       5.703   3.812  18.991  0.00  0.00    +0.000 OA
ATOM      9  O   UNL     1       6.254   3.786  16.538  0.00  0.00    +0.000 OA
BRANCH   7  17
ATOM     10  C   UNL     1       0.697   2.642  19.717  0.00  0.00    +0.000 C 
ATOM     11  C   UNL     1       1.548   3.855  19.487  0.00  0.00    +0.000 A 
ATOM     12  C   UNL     1       1.328   5.020  20.202  0.00  0.00    +0.000 A 
ATOM     13  C   UNL     1       2.128   6.105  19.885  0.00  0.00    +0.000 A 
ATOM     14  C   UNL     1       1.994   7.404  20.623  0.00  0.00    +0.000 C 
ATOM     15  N   UNL     1       3.057   6.051  18.912  0.00  0.00    +0.000 NA
ATOM     16  C   UNL     1       3.199   4.876  18.306  0.00  0.00    +0.000 A 
ATOM     17  N   UNL     1       4.128   4.858  17.266  0.00  0.00    +0.000 N 
ATOM     18  N   UNL     1       2.505   3.760  18.541  0.00  0.00    +0.000 NA
ATOM     19  H   UNL     1       4.095   5.717  16.719  0.00  0.00    +0.000 HD
ENDBRANCH   7  17
ENDBRANCH   1   7
BRANCH   4  20
ATOM     20  N   UNL     1       8.631   9.658  18.008  0.00  0.00    +0.000 N 
ATOM     21  H   UNL     1       8.259  10.298  17.314  0.00  0.00    +0.000 HD
BRANCH  20  22
ATOM     22  C   UNL     1       9.265  10.313  19.153  0.00  0.00    +0.000 C 
BRANCH  22  23
ATOM     23  C   UNL     1       9.990  11.563  18.741  0.00  0.00    +0.000 A 
ATOM     24  C   UNL     1      10.991  11.659  17.852  0.00  0.00    +0.000 A 
ATOM     25  O   UNL     1      11.704  12.791  17.545  0.00  0.00    +0.000 OA
ATOM     26  C   UNL     1      11.036  13.972  17.722  0.00  0.00    +0.000 A 
ATOM     27  C   UNL     1      11.481  15.062  16.986  0.00  0.00    +0.000 A 
ATOM     28  C   UNL     1      10.686  16.200  16.920  0.00  0.00    +0.000 A 
ATOM     29  C   UNL     1       9.473  16.247  17.617  0.00  0.00    +0.000 A 
ATOM     30  C   UNL     1       9.089  15.189  18.450  0.00  0.00    +0.000 A 
ATOM     31  C   UNL     1       9.889  14.051  18.509  0.00  0.00    +0.000 A 
ATOM     32  C   UNL     1       9.515  12.856  19.299  0.00  0.00    +0.000 A 
ATOM     33  O   UNL     1       8.831  12.928  20.313  0.00  0.00    +0.000 OA
ENDBRANCH  22  23
ENDBRANCH  20  22
ENDBRANCH   4  20
TORSDOF 5
ENDMDL
MODEL 3
REMARK VINA RESULT:      -9.1      1.841      2.685
REMARK  Name = 
REMARK  7 active torsions:
REMARK  status: ('A' for Active; 'I' for Inactive)
REMARK    1  A    between atoms: C_1  and  C_2
REMARK    2  A    between atoms: C_4  and  C_5
REMARK    3  A    between atoms: N_8  and  S_9
REMARK    4  A    between atoms: S_9  and  C_12
REMARK    5  A    between atoms: C_15  and  N_16
REMARK    6  A    between atoms: N_16  and  C_17
REMARK    7  A    between atoms: C_17  and  C_18
REMARK                            x       y       z     vdW  Elec       q    Type
REMARK                         _______ _______ _______ _____ _____    ______ ____
ROOT
ATOM      1  C   UNL     1       2.558   4.576  18.776  0.00  0.00    +0.000 A 
ATOM      2  C   UNL     1       2.667   5.808  18.129  0.00  0.00    +0.000 A 
ATOM      3  C   UNL     1       2.434   6.993  18.843  0.00  0.00    +0.000 A 
ATOM      4  C   UNL     1       2.096   6.963  20.200  0.00  0.00    +0.000 A 
ATOM      5  C   UNL     1       1.962   5.708  20.817  0.00  0.00    +0.000 A 
ATOM      6  C   UNL     1       2.171   4.518  20.113  0.00  0.00    +0.000 A 
ENDROOT
BRANCH   1   7
ATOM      7  S   UNL     1       2.804   3.062  17.863  0.00  0.00    +0.000 S 
ATOM      8  O   UNL     1       2.242   3.251  16.542  0.00  0.00    +0.000 OA
ATOM      9  O   UNL     1       2.330   1.985  18.713  0.00  0.00    +0.000 OA
BRANCH   7  17
ATOM     10  C   UNL     1       6.388   3.846  13.526  0.00  0.00    +0.000 C 
ATOM     11  C   UNL     1       6.069   4.262  14.930  0.00  0.00    +0.000 A 
ATOM     12  C   UNL     1       6.543   5.459  15.439  0.00  0.00    +0.000 A 
ATOM     13  C   UNL     1       6.242   5.736  16.762  0.00  0.00    +0.000 A 
ATOM     14  C   UNL     1       6.679   7.021  17.400  0.00  0.00    +0.000 C 
ATOM     15  N   UNL     1       5.550   4.878  17.535  0.00  0.00    +0.000 NA
ATOM     16  C   UNL     1       5.124   3.768  16.937  0.00  0.00    +0.000 A 
ATOM     17  N   UNL     1       4.456   2.871  17.769  0.00  0.00    +0.000 N 
ATOM     18  N   UNL     1       5.331   3.407  15.669  0.00  0.00    +0.000 NA
ATOM     19  H   UNL     1       4.886   2.824  18.692  0.00  0.00    +0.000 HD
ENDBRANCH   7  17
ENDBRANCH   1   7
BRANCH   4  20
ATOM     20  N   UNL     1       1.755   8.082  20.951  0.00  0.00    +0.000 N 
ATOM     21  H   UNL     1       2.506   8.761  21.008  0.00  0.00    +0.000 HD
BRANCH  20  22
ATOM     22  C   UNL     1       0.413   8.658  21.054  0.00  0.00    +0.000 C 
BRANCH  22  23
ATOM     23  C   UNL     1       0.417  10.125  20.730  0.00  0.00    +0.000 A 
ATOM     24  C   UNL     1       0.172  11.138  21.576  0.00  0.00    +0.000 A 
ATOM     25  O   UNL     1       0.093  12.470  21.252  0.00  0.00    +0.000 OA
ATOM     26  C   UNL     1       0.824  12.854  20.161  0.00  0.00    +0.000 A 
ATOM     27  C   UNL     1       1.187  14.192  20.087  0.00  0.00    +0.000 A 
ATOM     28  C   UNL     1       2.144  14.580  19.156  0.00  0.00    +0.000 A 
ATOM     29  C   UNL     1       2.701  13.632  18.290  0.00  0.00    +0.000 A 
ATOM     30  C   UNL     1       2.244  12.309  18.293  0.00  0.00    +0.000 A 
ATOM     31  C   UNL     1       1.287  11.927  19.230  0.00  0.00    +0.000 A 
ATOM     32  C   UNL     1       0.809  10.531  19.355  0.00  0.00    +0.000 A 
ATOM     33  O   UNL     1       0.781   9.760  18.403  0.00  0.00    +0.000 OA
ENDBRANCH  22  23
ENDBRANCH  20  22
ENDBRANCH   4  20
TORSDOF 5
ENDMDL
MODEL 4
REMARK VINA RESULT:      -9.0      5.908      9.019
REMARK  Name = 
REMARK  7 active torsions:
REMARK  status: ('A' for Active; 'I' for Inactive)
REMARK    1  A    between atoms: C_1  and  C_2
REMARK    2  A    between atoms: C_4  and  C_5
REMARK    3  A    between atoms: N_8  and  S_9
REMARK    4  A    between atoms: S_9  and  C_12
REMARK    5  A    between atoms: C_15  and  N_16
REMARK    6  A    between atoms: N_16  and  C_17
REMARK    7  A    between atoms: C_17  and  C_18
REMARK                            x       y       z     vdW  Elec       q    Type
REMARK                         _______ _______ _______ _____ _____    ______ ____
ROOT
ATOM      1  C   UNL     1       6.634   6.112  17.705  0.00  0.00    +0.000 A 
ATOM      2  C   UNL     1       6.170   7.221  16.997  0.00  0.00    +0.000 A 
ATOM      3  C   UNL     1       6.828   8.454  17.122  0.00  0.00    +0.000 A 
ATOM      4  C   UNL     1       7.949   8.592  17.947  0.00  0.00    +0.000 A 
ATOM      5  C   UNL     1       8.375   7.467  18.673  0.00  0.00    +0.000 A 
ATOM      6  C   UNL     1       7.716   6.237  18.574  0.00  0.00    +0.000 A 
ENDROOT
BRANCH   1   7
ATOM      7  S   UNL     1       5.773   4.553  17.590  0.00  0.00    +0.000 S 
ATOM      8  O   UNL     1       5.783   3.949  18.906  0.00  0.00    +0.000 OA
ATOM      9  O   UNL     1       6.343   3.848  16.457  0.00  0.00    +0.000 OA
BRANCH   7  17
ATOM     10  C   UNL     1       0.807   2.162  18.968  0.00  0.00    +0.000 C 
ATOM     11  C   UNL     1       1.593   3.438  19.000  0.00  0.00    +0.000 A 
ATOM     12  C   UNL     1       1.267   4.449  19.889  0.00  0.00    +0.000 A 
ATOM     13  C   UNL     1       2.014   5.611  19.811  0.00  0.00    +0.000 A 
ATOM     14  C   UNL     1       1.764   6.753  20.751  0.00  0.00    +0.000 C 
ATOM     15  N   UNL     1       2.993   5.776  18.901  0.00  0.00    +0.000 NA
ATOM     16  C   UNL     1       3.236   4.733  18.113  0.00  0.00    +0.000 A 
ATOM     17  N   UNL     1       4.216   4.944  17.143  0.00  0.00    +0.000 N 
ATOM     18  N   UNL     1       2.601   3.559  18.111  0.00  0.00    +0.000 NA
ATOM     19  H   UNL     1       4.159   5.882  16.750  0.00  0.00    +0.000 HD
ENDBRANCH   7  17
ENDBRANCH   1   7
BRANCH   4  20
ATOM     20  N   UNL     1       8.596   9.796  18.201  0.00  0.00    +0.000 N 
ATOM     21  H   UNL     1       8.136  10.589  17.766  0.00  0.00    +0.000 HD
BRANCH  20  22
ATOM     22  C   UNL     1       9.331  10.123  19.424  0.00  0.00    +0.000 C 
BRANCH  22  23
ATOM     23  C   UNL     1      10.293  11.256  19.202  0.00  0.00    +0.000 A 
ATOM     24  C   UNL     1      10.958  11.539  18.070  0.00  0.00    +0.000 A 
ATOM     25  O   UNL     1      11.899  12.523  17.902  0.00  0.00    +0.000 OA
ATOM     26  C   UNL     1      11.770  13.607  18.726  0.00  0.00    +0.000 A 
ATOM     27  C   UNL     1      12.333  14.799  18.291  0.00  0.00    +0.000 A 
ATOM     28  C   UNL     1      12.005  15.979  18.948  0.00  0.00    +0.000 A 
ATOM     29  C   UNL     1      11.145  15.948  20.053  0.00  0.00    +0.000 A 
ATOM     30  C   UNL     1      10.676  14.729  20.557  0.00  0.00    +0.000 A 
ATOM     31  C   UNL     1      11.007  13.551  19.891  0.00  0.00    +0.000 A 
ATOM     32  C   UNL     1      10.487  12.228  20.308  0.00  0.00    +0.000 A 
ATOM     33  O   UNL     1      10.200  11.975  21.471  0.00  0.00    +0.000 OA
ENDBRANCH  22  23
ENDBRANCH  20  22
ENDBRANCH   4  20
TORSDOF 5
ENDMDL
MODEL 5
REMARK VINA RESULT:      -9.0      1.095      1.190
REMARK  Name = 
REMARK  7 active torsions:
REMARK  status: ('A' for Active; 'I' for Inactive)
REMARK    1  A    between atoms: C_1  and  C_2
REMARK    2  A    between atoms: C_4  and  C_5
REMARK    3  A    between atoms: N_8  and  S_9
REMARK    4  A    between atoms: S_9  and  C_12
REMARK    5  A    between atoms: C_15  and  N_16
REMARK    6  A    between atoms: N_16  and  C_17
REMARK    7  A    between atoms: C_17  and  C_18
REMARK                            x       y       z     vdW  Elec       q    Type
REMARK                         _______ _______ _______ _____ _____    ______ ____
ROOT
ATOM      1  C   UNL     1       2.620   4.682  18.779  0.00  0.00    +0.000 A 
ATOM      2  C   UNL     1       2.504   5.787  17.936  0.00  0.00    +0.000 A 
ATOM      3  C   UNL     1       2.205   7.047  18.475  0.00  0.00    +0.000 A 
ATOM      4  C   UNL     1       2.024   7.218  19.851  0.00  0.00    +0.000 A 
ATOM      5  C   UNL     1       2.116   6.083  20.673  0.00  0.00    +0.000 A 
ATOM      6  C   UNL     1       2.392   4.816  20.147  0.00  0.00    +0.000 A 
ENDROOT
BRANCH   1   7
ATOM      7  S   UNL     1       2.951   3.066  18.097  0.00  0.00    +0.000 S 
ATOM      8  O   UNL     1       2.338   3.011  16.786  0.00  0.00    +0.000 OA
ATOM      9  O   UNL     1       2.583   2.102  19.117  0.00  0.00    +0.000 OA
BRANCH   7  17
ATOM     10  C   UNL     1       6.366   3.851  13.625  0.00  0.00    +0.000 C 
ATOM     11  C   UNL     1       6.055   4.318  15.015  0.00  0.00    +0.000 A 
ATOM     12  C   UNL     1       6.462   5.569  15.449  0.00  0.00    +0.000 A 
ATOM     13  C   UNL     1       6.177   5.894  16.764  0.00  0.00    +0.000 A 
ATOM     14  C   UNL     1       6.545   7.237  17.323  0.00  0.00    +0.000 C 
ATOM     15  N   UNL     1       5.562   5.035  17.599  0.00  0.00    +0.000 NA
ATOM     16  C   UNL     1       5.195   3.871  17.070  0.00  0.00    +0.000 A 
ATOM     17  N   UNL     1       4.609   2.977  17.965  0.00  0.00    +0.000 N 
ATOM     18  N   UNL     1       5.394   3.457  15.817  0.00  0.00    +0.000 NA
ATOM     19  H   UNL     1       5.064   3.006  18.877  0.00  0.00    +0.000 HD
ENDBRANCH   7  17
ENDBRANCH   1   7
BRANCH   4  20
ATOM     20  N   UNL     1       1.631   8.409  20.451  0.00  0.00    +0.000 N 
ATOM     21  H   UNL     1       2.291   8.733  21.151  0.00  0.00    +0.000 HD
BRANCH  20  22
ATOM     22  C   UNL     1       0.869   9.476  19.801  0.00  0.00    +0.000 C 
BRANCH  22  23
ATOM     23  C   UNL     1       0.587  10.607  20.748  0.00  0.00    +0.000 A 
ATOM     24  C   UNL     1       0.978  11.885  20.617  0.00  0.00    +0.000 A 
ATOM     25  O   UNL     1       0.789  12.893  21.529  0.00  0.00    +0.000 OA
ATOM     26  C   UNL     1      -0.301  12.753  22.343  0.00  0.00    +0.000 A 
ATOM     27  C   UNL     1      -0.822  13.913  22.902  0.00  0.00    +0.000 A 
ATOM     28  C   UNL     1      -2.071  13.866  23.509  0.00  0.00    +0.000 A 
ATOM     29  C   UNL     1      -2.770  12.655  23.579  0.00  0.00    +0.000 A 
ATOM     30  C   UNL     1      -2.186  11.469  23.118  0.00  0.00    +0.000 A 
ATOM     31  C   UNL     1      -0.935  11.524  22.508  0.00  0.00    +0.000 A 
ATOM     32  C   UNL     1      -0.283  10.331  21.921  0.00  0.00    +0.000 A 
ATOM     33  O   UNL     1      -0.483   9.199  22.346  0.00  0.00    +0.000 OA
ENDBRANCH  22  23
ENDBRANCH  20  22
ENDBRANCH   4  20
TORSDOF 5
ENDMDL
MODEL 6
REMARK VINA RESULT:      -8.9      3.495      9.799
REMARK  Name = 
REMARK  7 active torsions:
REMARK  status: ('A' for Active; 'I' for Inactive)
REMARK    1  A    between atoms: C_1  and  C_2
REMARK    2  A    between atoms: C_4  and  C_5
REMARK    3  A    between atoms: N_8  and  S_9
REMARK    4  A    between atoms: S_9  and  C_12
REMARK    5  A    between atoms: C_15  and  N_16
REMARK    6  A    between atoms: N_16  and  C_17
REMARK    7  A    between atoms: C_17  and  C_18
REMARK                            x       y       z     vdW  Elec       q    Type
REMARK                         _______ _______ _______ _____ _____    ______ ____
ROOT
ATOM      1  C   UNL     1       0.363   9.930  19.465  0.00  0.00    +0.000 A 
ATOM      2  C   UNL     1       0.336   9.340  20.729  0.00  0.00    +0.000 A 
ATOM      3  C   UNL     1       1.151   8.230  20.998  0.00  0.00    +0.000 A 
ATOM      4  C   UNL     1       1.998   7.702  20.018  0.00  0.00    +0.000 A 
ATOM      5  C   UNL     1       1.981   8.296  18.745  0.00  0.00    +0.000 A 
ATOM      6  C   UNL     1       1.159   9.391  18.456  0.00  0.00    +0.000 A 
ENDROOT
BRANCH   1   7
ATOM      7  S   UNL     1      -0.706  11.312  19.099  0.00  0.00    +0.000 S 
ATOM      8  O   UNL     1      -1.001  11.979  20.350  0.00  0.00    +0.000 OA
ATOM      9  O   UNL     1      -1.782  10.795  18.273  0.00  0.00    +0.000 OA
BRANCH   7  17
ATOM     10  C   UNL     1      -0.525  16.977  18.721  0.00  0.00    +0.000 C 
ATOM     11  C   UNL     1       0.296  15.748  18.972  0.00  0.00    +0.000 A 
ATOM     12  C   UNL     1       1.508  15.830  19.638  0.00  0.00    +0.000 A 
ATOM     13  C   UNL     1       2.221  14.651  19.778  0.00  0.00    +0.000 A 
ATOM     14  C   UNL     1       3.529  14.625  20.512  0.00  0.00    +0.000 C 
ATOM     15  N   UNL     1       1.784  13.483  19.271  0.00  0.00    +0.000 NA
ATOM     16  C   UNL     1       0.597  13.516  18.672  0.00  0.00    +0.000 A 
ATOM     17  N   UNL     1       0.189  12.308  18.108  0.00  0.00    +0.000 N 
ATOM     18  N   UNL     1      -0.188  14.582  18.498  0.00  0.00    +0.000 NA
ATOM     19  H   UNL     1       0.968  11.813  17.677  0.00  0.00    +0.000 HD
ENDBRANCH   7  17
ENDBRANCH   1   7
BRANCH   4  20
ATOM     20  N   UNL     1       2.759   6.550  20.173  0.00  0.00    +0.000 N 
ATOM     21  H   UNL     1       3.337   6.570  21.007  0.00  0.00    +0.000 HD
BRANCH  20  22
ATOM     22  C   UNL     1       2.364   5.207  19.747  0.00  0.00    +0.000 C 
BRANCH  22  23
ATOM     23  C   UNL     1       3.265   4.684  18.665  0.00  0.00    +0.000 A 
ATOM     24  C   UNL     1       2.893   4.039  17.547  0.00  0.00    +0.000 A 
ATOM     25  O   UNL     1       3.729   3.489  16.607  0.00  0.00    +0.000 OA
ATOM     26  C   UNL     1       4.957   4.080  16.495  0.00  0.00    +0.000 A 
ATOM     27  C   UNL     1       5.621   3.925  15.285  0.00  0.00    +0.000 A 
ATOM     28  C   UNL     1       6.733   4.716  15.021  0.00  0.00    +0.000 A 
ATOM     29  C   UNL     1       7.187   5.628  15.982  0.00  0.00    +0.000 A 
ATOM     30  C   UNL     1       6.583   5.693  17.243  0.00  0.00    +0.000 A 
ATOM     31  C   UNL     1       5.467   4.900  17.499  0.00  0.00    +0.000 A 
ATOM     32  C   UNL     1       4.720   4.967  18.776  0.00  0.00    +0.000 A 
ATOM     33  O   UNL     1       5.256   5.275  19.834  0.00  0.00    +0.000 OA
ENDBRANCH  22  23
ENDBRANCH  20  22
ENDBRANCH   4  20
TORSDOF 5
ENDMDL
MODEL 7
REMARK VINA RESULT:      -8.9      1.161      1.686
REMARK  Name = 
REMARK  7 active torsions:
REMARK  status: ('A' for Active; 'I' for Inactive)
REMARK    1  A    between atoms: C_1  and  C_2
REMARK    2  A    between atoms: C_4  and  C_5
REMARK    3  A    between atoms: N_8  and  S_9
REMARK    4  A    between atoms: S_9  and  C_12
REMARK    5  A    between atoms: C_15  and  N_16
REMARK    6  A    between atoms: N_16  and  C_17
REMARK    7  A    between atoms: C_17  and  C_18
REMARK                            x       y       z     vdW  Elec       q    Type
REMARK                         _______ _______ _______ _____ _____    ______ ____
ROOT
ATOM      1  C   UNL     1       2.456   4.865  18.860  0.00  0.00    +0.000 A 
ATOM      2  C   UNL     1       2.466   5.970  18.008  0.00  0.00    +0.000 A 
ATOM      3  C   UNL     1       2.184   7.246  18.517  0.00  0.00    +0.000 A 
ATOM      4  C   UNL     1       1.894   7.433  19.873  0.00  0.00    +0.000 A 
ATOM      5  C   UNL     1       1.860   6.299  20.702  0.00  0.00    +0.000 A 
ATOM      6  C   UNL     1       2.119   5.018  20.203  0.00  0.00    +0.000 A 
ENDROOT
BRANCH   1   7
ATOM      7  S   UNL     1       2.765   3.232  18.210  0.00  0.00    +0.000 S 
ATOM      8  O   UNL     1       2.173   3.167  16.890  0.00  0.00    +0.000 OA
ATOM      9  O   UNL     1       2.360   2.293  19.240  0.00  0.00    +0.000 OA
BRANCH   7  17
ATOM     10  C   UNL     1       6.261   3.770  13.765  0.00  0.00    +0.000 C 
ATOM     11  C   UNL     1       5.938   4.300  15.130  0.00  0.00    +0.000 A 
ATOM     12  C   UNL     1       6.362   5.559  15.519  0.00  0.00    +0.000 A 
ATOM     13  C   UNL     1       6.064   5.943  16.815  0.00  0.00    +0.000 A 
ATOM     14  C   UNL     1       6.448   7.300  17.325  0.00  0.00    +0.000 C 
ATOM     15  N   UNL     1       5.420   5.130  17.674  0.00  0.00    +0.000 NA
ATOM     16  C   UNL     1       5.039   3.952  17.187  0.00  0.00    +0.000 A 
ATOM     17  N   UNL     1       4.423   3.106  18.108  0.00  0.00    +0.000 N 
ATOM     18  N   UNL     1       5.249   3.485  15.955  0.00  0.00    +0.000 NA
ATOM     19  H   UNL     1       4.864   3.165  19.025  0.00  0.00    +0.000 HD
ENDBRANCH   7  17
ENDBRANCH   1   7
BRANCH   4  20
ATOM     20  N   UNL     1       1.510   8.645  20.436  0.00  0.00    +0.000 N 
ATOM     21  H   UNL     1       0.848   9.154  19.859  0.00  0.00    +0.000 HD
BRANCH  20  22
ATOM     22  C   UNL     1       1.392   8.915  21.869  0.00  0.00    +0.000 C 
BRANCH  22  23
ATOM     23  C   UNL     1       0.348   9.959  22.149  0.00  0.00    +0.000 A 
ATOM     24  C   UNL     1      -0.597   9.918  23.103  0.00  0.00    +0.000 A 
ATOM     25  O   UNL     1      -1.599  10.836  23.296  0.00  0.00    +0.000 OA
ATOM     26  C   UNL     1      -1.321  12.108  22.879  0.00  0.00    +0.000 A 
ATOM     27  C   UNL     1      -2.038  13.137  23.476  0.00  0.00    +0.000 A 
ATOM     28  C   UNL     1      -1.615  14.448  23.291  0.00  0.00    +0.000 A 
ATOM     29  C   UNL     1      -0.502  14.716  22.485  0.00  0.00    +0.000 A 
ATOM     30  C   UNL     1       0.142  13.684  21.793  0.00  0.00    +0.000 A 
ATOM     31  C   UNL     1      -0.285  12.373  21.985  0.00  0.00    +0.000 A 
ATOM     32  C   UNL     1       0.391  11.215  21.356  0.00  0.00    +0.000 A 
ATOM     33  O   UNL     1       0.978  11.302  20.284  0.00  0.00    +0.000 OA
ENDBRANCH  22  23
ENDBRANCH  20  22
ENDBRANCH   4  20
TORSDOF 5
ENDMDL
MODEL 8
REMARK VINA RESULT:      -8.9      1.006      1.237
REMARK  Name = 
REMARK  7 active torsions:
REMARK  status: ('A' for Active; 'I' for Inactive)
REMARK    1  A    between atoms: C_1  and  C_2
REMARK    2  A    between atoms: C_4  and  C_5
REMARK    3  A    between atoms: N_8  and  S_9
REMARK    4  A    between atoms: S_9  and  C_12
REMARK    5  A    between atoms: C_15  and  N_16
REMARK    6  A    between atoms: N_16  and  C_17
REMARK    7  A    between atoms: C_17  and  C_18
REMARK                            x       y       z     vdW  Elec       q    Type
REMARK                         _______ _______ _______ _____ _____    ______ ____
ROOT
ATOM      1  C   UNL     1       2.552   4.825  18.863  0.00  0.00    +0.000 A 
ATOM      2  C   UNL     1       2.426   5.771  17.845  0.00  0.00    +0.000 A 
ATOM      3  C   UNL     1       2.101   7.098  18.162  0.00  0.00    +0.000 A 
ATOM      4  C   UNL     1       1.904   7.495  19.489  0.00  0.00    +0.000 A 
ATOM      5  C   UNL     1       2.006   6.515  20.491  0.00  0.00    +0.000 A 
ATOM      6  C   UNL     1       2.309   5.184  20.187  0.00  0.00    +0.000 A 
ENDROOT
BRANCH   1   7
ATOM      7  S   UNL     1       2.916   3.124  18.464  0.00  0.00    +0.000 S 
ATOM      8  O   UNL     1       2.270   2.823  17.204  0.00  0.00    +0.000 OA
ATOM      9  O   UNL     1       2.607   2.346  19.649  0.00  0.00    +0.000 OA
BRANCH   7  17
ATOM     10  C   UNL     1       6.213   3.787  13.885  0.00  0.00    +0.000 C 
ATOM     11  C   UNL     1       5.926   4.304  15.262  0.00  0.00    +0.000 A 
ATOM     12  C   UNL     1       6.320   5.578  15.637  0.00  0.00    +0.000 A 
ATOM     13  C   UNL     1       6.060   5.951  16.944  0.00  0.00    +0.000 A 
ATOM     14  C   UNL     1       6.416   7.320  17.441  0.00  0.00    +0.000 C 
ATOM     15  N   UNL     1       5.480   5.115  17.827  0.00  0.00    +0.000 NA
ATOM     16  C   UNL     1       5.122   3.925  17.353  0.00  0.00    +0.000 A 
ATOM     17  N   UNL     1       4.572   3.058  18.297  0.00  0.00    +0.000 N 
ATOM     18  N   UNL     1       5.299   3.465  16.113  0.00  0.00    +0.000 NA
ATOM     19  H   UNL     1       5.047   3.131  19.195  0.00  0.00    +0.000 HD
ENDBRANCH   7  17
ENDBRANCH   1   7
BRANCH   4  20
ATOM     20  N   UNL     1       1.485   8.762  19.878  0.00  0.00    +0.000 N 
ATOM     21  H   UNL     1       1.833   9.027  20.793  0.00  0.00    +0.000 HD
BRANCH  20  22
ATOM     22  C   UNL     1       1.242   9.889  18.976  0.00  0.00    +0.000 C 
BRANCH  22  23
ATOM     23  C   UNL     1       0.235  10.845  19.549  0.00  0.00    +0.000 A 
ATOM     24  C   UNL     1      -0.790  11.422  18.900  0.00  0.00    +0.000 A 
ATOM     25  O   UNL     1      -1.653  12.359  19.409  0.00  0.00    +0.000 OA
ATOM     26  C   UNL     1      -1.843  12.311  20.762  0.00  0.00    +0.000 A 
ATOM     27  C   UNL     1      -3.024  12.854  21.251  0.00  0.00    +0.000 A 
ATOM     28  C   UNL     1      -3.389  12.595  22.567  0.00  0.00    +0.000 A 
ATOM     29  C   UNL     1      -2.555  11.826  23.387  0.00  0.00    +0.000 A 
ATOM     30  C   UNL     1      -1.311  11.382  22.921  0.00  0.00    +0.000 A 
ATOM     31  C   UNL     1      -0.953  11.643  21.600  0.00  0.00    +0.000 A 
ATOM     32  C   UNL     1       0.306  11.140  21.003  0.00  0.00    +0.000 A 
ATOM     33  O   UNL     1       1.314  10.943  21.671  0.00  0.00    +0.000 OA
ENDBRANCH  22  23
ENDBRANCH  20  22
ENDBRANCH   4  20
TORSDOF 5
ENDMDL
MODEL 9
REMARK VINA RESULT:      -8.8      3.626      9.894
REMARK  Name = 
REMARK  7 active torsions:
REMARK  status: ('A' for Active; 'I' for Inactive)
REMARK    1  A    between atoms: C_1  and  C_2
REMARK    2  A    between atoms: C_4  and  C_5
REMARK    3  A    between atoms: N_8  and  S_9
REMARK    4  A    between atoms: S_9  and  C_12
REMARK    5  A    between atoms: C_15  and  N_16
REMARK    6  A    between atoms: N_16  and  C_17
REMARK    7  A    between atoms: C_17  and  C_18
REMARK                            x       y       z     vdW  Elec       q    Type
REMARK                         _______ _______ _______ _____ _____    ______ ____
ROOT
ATOM      1  C   UNL     1       0.389   9.533  19.566  0.00  0.00    +0.000 A 
ATOM      2  C   UNL     1       0.475   8.939  20.826  0.00  0.00    +0.000 A 
ATOM      3  C   UNL     1       1.408   7.917  21.054  0.00  0.00    +0.000 A 
ATOM      4  C   UNL     1       2.262   7.480  20.035  0.00  0.00    +0.000 A 
ATOM      5  C   UNL     1       2.133   8.073  18.769  0.00  0.00    +0.000 A 
ATOM      6  C   UNL     1       1.192   9.079  18.521  0.00  0.00    +0.000 A 
ENDROOT
BRANCH   1   7
ATOM      7  S   UNL     1      -0.829  10.799  19.254  0.00  0.00    +0.000 S 
ATOM      8  O   UNL     1      -0.364  11.586  18.131  0.00  0.00    +0.000 OA
ATOM      9  O   UNL     1      -1.102  11.435  20.530  0.00  0.00    +0.000 OA
BRANCH   7  17
ATOM     10  C   UNL     1      -5.810  12.690  17.282  0.00  0.00    +0.000 C 
ATOM     11  C   UNL     1      -4.657  11.775  16.997  0.00  0.00    +0.000 A 
ATOM     12  C   UNL     1      -4.394  11.349  15.706  0.00  0.00    +0.000 A 
ATOM     13  C   UNL     1      -3.341  10.464  15.545  0.00  0.00    +0.000 A 
ATOM     14  C   UNL     1      -2.952   9.968  14.184  0.00  0.00    +0.000 C 
ATOM     15  N   UNL     1      -2.620  10.010  16.587  0.00  0.00    +0.000 NA
ATOM     16  C   UNL     1      -2.945  10.503  17.779  0.00  0.00    +0.000 A 
ATOM     17  N   UNL     1      -2.221   9.979  18.850  0.00  0.00    +0.000 N 
ATOM     18  N   UNL     1      -3.919  11.373  18.053  0.00  0.00    +0.000 NA
ATOM     19  H   UNL     1      -2.053   8.980  18.735  0.00  0.00    +0.000 HD
ENDBRANCH   7  17
ENDBRANCH   1   7
BRANCH   4  20
ATOM     20  N   UNL     1       3.143   6.412  20.151  0.00  0.00    +0.000 N 
ATOM     21  H   UNL     1       3.813   6.533  20.904  0.00  0.00    +0.000 HD
BRANCH  20  22
ATOM     22  C   UNL     1       2.827   5.015  19.846  0.00  0.00    +0.000 C 
BRANCH  22  23
ATOM     23  C   UNL     1       3.594   4.525  18.651  0.00  0.00    +0.000 A 
ATOM     24  C   UNL     1       3.083   4.065  17.498  0.00  0.00    +0.000 A 
ATOM     25  O   UNL     1       3.789   3.539  16.445  0.00  0.00    +0.000 OA
ATOM     26  C   UNL     1       5.072   3.995  16.312  0.00  0.00    +0.000 A 
ATOM     27  C   UNL     1       5.641   3.910  15.048  0.00  0.00    +0.000 A 
ATOM     28  C   UNL     1       6.824   4.594  14.795  0.00  0.00    +0.000 A 
ATOM     29  C   UNL     1       7.440   5.327  15.816  0.00  0.00    +0.000 A 
ATOM     30  C   UNL     1       6.922   5.310  17.117  0.00  0.00    +0.000 A 
ATOM     31  C   UNL     1       5.735   4.625  17.362  0.00  0.00    +0.000 A 
ATOM     32  C   UNL     1       5.076   4.624  18.689  0.00  0.00    +0.000 A 
ATOM     33  O   UNL     1       5.706   4.740  19.733  0.00  0.00    +0.000 OA
ENDBRANCH  22  23
ENDBRANCH  20  22
ENDBRANCH   4  20
TORSDOF 5
ENDMDL
