MODEL 1
REMARK VINA RESULT:      -8.7      0.000      0.000
REMARK  Name = 
REMARK  8 active torsions:
REMARK  status: ('A' for Active; 'I' for Inactive)
REMARK    1  A    between atoms: C_1  and  C_2
REMARK    2  A    between atoms: C_2  and  C_3
REMARK    3  A    between atoms: C_2  and  C_4
REMARK    4  A    between atoms: C_4  and  O_5
REMARK    5  A    between atoms: C_4  and  C_6
REMARK    6  A    between atoms: C_4  and  C_9
REMARK    7  A    between atoms: C_6  and  O_8
REMARK    8  A    between atoms: C_12  and  C_13
REMARK                            x       y       z     vdW  Elec       q    Type
REMARK                         _______ _______ _______ _____ _____    ______ ____
ROOT
ATOM      1  C   UNL     1       3.932   5.029  18.656  0.00  0.00    +0.000 A 
ATOM      2  C   UNL     1       3.929   6.164  17.923  0.00  0.00    +0.000 A 
ATOM      3  C   UNL     1       3.155   7.319  18.310  0.00  0.00    +0.000 A 
ATOM      4  C   UNL     1       2.376   7.272  19.392  0.00  0.00    +0.000 A 
ATOM      5  N   UNL     1       2.347   6.141  20.160  0.00  0.00    +0.000 N 
ATOM      6  C   UNL     1       3.113   5.034  19.920  0.00  0.00    +0.000 A 
ATOM      7  O   UNL     1       3.127   4.099  20.716  0.00  0.00    +0.000 OA
ATOM      8  H   UNL     1       1.788   6.113  20.999  0.00  0.00    +0.000 HD
ENDROOT
BRANCH   4   9
ATOM      9  C   UNL     1       1.551   8.406  19.806  0.00  0.00    +0.000 A 
ATOM     10  C   UNL     1       1.247   9.426  18.903  0.00  0.00    +0.000 A 
ATOM     11  C   UNL     1       0.440  10.495  19.295  0.00  0.00    +0.000 A 
ATOM     12  C   UNL     1      -0.080  10.558  20.597  0.00  0.00    +0.000 A 
ATOM     13  C   UNL     1      -0.902  11.621  21.005  0.00  0.00    +0.000 A 
ATOM     14  C   UNL     1      -1.414  11.668  22.303  0.00  0.00    +0.000 A 
ATOM     15  C   UNL     1      -1.108  10.656  23.210  0.00  0.00    +0.000 A 
ATOM     16  C   UNL     1      -0.292   9.594  22.820  0.00  0.00    +0.000 A 
ATOM     17  C   UNL     1       0.225   9.532  21.519  0.00  0.00    +0.000 A 
ATOM     18  C   UNL     1       1.043   8.464  21.112  0.00  0.00    +0.000 A 
ENDBRANCH   4   9
BRANCH   1  19
ATOM     19  C   UNL     1       4.694   3.759  18.281  0.00  0.00    +0.000 C 
BRANCH  19  21
ATOM     20  C   UNL     1       3.498   1.437  18.464  0.00  0.00    +0.000 C 
ATOM     21  C   UNL     1       3.747   2.699  17.618  0.00  0.00    +0.000 C 
ATOM     22  C   UNL     1       2.362   3.281  17.277  0.00  0.00    +0.000 C 
ENDBRANCH  19  21
BRANCH  19  23
ATOM     23  O   UNL     1       5.241   3.218  19.507  0.00  0.00    +0.000 OA
ATOM     24  H   UNL     1       6.151   2.920  19.322  0.00  0.00    +0.000 HD
ENDBRANCH  19  23
BRANCH  19  25
ATOM     25  C   UNL     1       5.906   4.155  17.367  0.00  0.00    +0.000 C 
ATOM     26  O   UNL     1       5.858   4.276  16.149  0.00  0.00    +0.000 OA
BRANCH  25  27
ATOM     27  O   UNL     1       7.080   4.306  18.042  0.00  0.00    +0.000 OA
ATOM     28  H   UNL     1       7.020   4.934  18.790  0.00  0.00    +0.000 HD
ENDBRANCH  25  27
ENDBRANCH  19  25
ENDBRANCH   1  19
TORSDOF 6
ENDMDL
MODEL 2
REMARK VINA RESULT:      -8.5      6.109      7.733
REMARK  Name = 
REMARK  8 active torsions:
REMARK  status: ('A' for Active; 'I' for Inactive)
REMARK    1  A    between atoms: C_1  and  C_2
REMARK    2  A    between atoms: C_2  and  C_3
REMARK    3  A    between atoms: C_2  and  C_4
REMARK    4  A    between atoms: C_4  and  O_5
REMARK    5  A    between atoms: C_4  and  C_6
REMARK    6  A    between atoms: C_4  and  C_9
REMARK    7  A    between atoms: C_6  and  O_8
REMARK    8  A    between atoms: C_12  and  C_13
REMARK                            x       y       z     vdW  Elec       q    Type
REMARK                         _______ _______ _______ _____ _____    ______ ____
ROOT
ATOM      1  C   UNL     1       6.961   6.336  17.740  0.00  0.00    +0.000 A 
ATOM      2  C   UNL     1       6.776   7.497  17.074  0.00  0.00    +0.000 A 
ATOM      3  C   UNL     1       7.504   8.695  17.415  0.00  0.00    +0.000 A 
ATOM      4  C   UNL     1       8.353   8.693  18.444  0.00  0.00    +0.000 A 
ATOM      5  N   UNL     1       8.565   7.540  19.147  0.00  0.00    +0.000 N 
ATOM      6  C   UNL     1       7.989   6.339  18.840  0.00  0.00    +0.000 A 
ATOM      7  O   UNL     1       8.314   5.318  19.438  0.00  0.00    +0.000 OA
ATOM      8  H   UNL     1       9.233   7.524  19.903  0.00  0.00    +0.000 HD
ENDROOT
BRANCH   4   9
ATOM      9  C   UNL     1       9.088   9.891  18.846  0.00  0.00    +0.000 A 
ATOM     10  C   UNL     1       9.204  10.231  20.196  0.00  0.00    +0.000 A 
ATOM     11  C   UNL     1       9.927  11.362  20.577  0.00  0.00    +0.000 A 
ATOM     12  C   UNL     1      10.551  12.169  19.614  0.00  0.00    +0.000 A 
ATOM     13  C   UNL     1      11.291  13.305  19.980  0.00  0.00    +0.000 A 
ATOM     14  C   UNL     1      11.909  14.097  19.010  0.00  0.00    +0.000 A 
ATOM     15  C   UNL     1      11.791  13.766  17.663  0.00  0.00    +0.000 A 
ATOM     16  C   UNL     1      11.058  12.641  17.282  0.00  0.00    +0.000 A 
ATOM     17  C   UNL     1      10.437  11.835  18.246  0.00  0.00    +0.000 A 
ATOM     18  C   UNL     1       9.702  10.696  17.876  0.00  0.00    +0.000 A 
ENDBRANCH   4   9
BRANCH   1  19
ATOM     19  C   UNL     1       6.194   5.045  17.457  0.00  0.00    +0.000 C 
BRANCH  19  21
ATOM     20  C   UNL     1       3.815   3.950  17.516  0.00  0.00    +0.000 C 
ATOM     21  C   UNL     1       4.661   5.217  17.741  0.00  0.00    +0.000 C 
ATOM     22  C   UNL     1       4.379   5.683  19.182  0.00  0.00    +0.000 C 
ENDBRANCH  19  21
BRANCH  19  23
ATOM     23  O   UNL     1       6.737   4.031  18.335  0.00  0.00    +0.000 OA
ATOM     24  H   UNL     1       6.222   3.214  18.203  0.00  0.00    +0.000 HD
ENDBRANCH  19  23
BRANCH  19  25
ATOM     25  C   UNL     1       6.497   4.595  15.985  0.00  0.00    +0.000 C 
ATOM     26  O   UNL     1       5.651   4.279  15.158  0.00  0.00    +0.000 OA
BRANCH  25  27
ATOM     27  O   UNL     1       7.826   4.523  15.693  0.00  0.00    +0.000 OA
ATOM     28  H   UNL     1       8.197   3.623  15.788  0.00  0.00    +0.000 HD
ENDBRANCH  25  27
ENDBRANCH  19  25
ENDBRANCH   1  19
TORSDOF 6
ENDMDL
MODEL 3
REMARK VINA RESULT:      -8.4      1.404      1.933
REMARK  Name = 
REMARK  8 active torsions:
REMARK  status: ('A' for Active; 'I' for Inactive)
REMARK    1  A    between atoms: C_1  and  C_2
REMARK    2  A    between atoms: C_2  and  C_3
REMARK    3  A    between atoms: C_2  and  C_4
REMARK    4  A    between atoms: C_4  and  O_5
REMARK    5  A    between atoms: C_4  and  C_6
REMARK    6  A    between atoms: C_4  and  C_9
REMARK    7  A    between atoms: C_6  and  O_8
REMARK    8  A    between atoms: C_12  and  C_13
REMARK                            x       y       z     vdW  Elec       q    Type
REMARK                         _______ _______ _______ _____ _____    ______ ____
ROOT
ATOM      1  C   UNL     1       3.946   5.925  18.103  0.00  0.00    +0.000 A 
ATOM      2  C   UNL     1       3.896   7.113  17.462  0.00  0.00    +0.000 A 
ATOM      3  C   UNL     1       3.012   8.172  17.886  0.00  0.00    +0.000 A 
ATOM      4  C   UNL     1       2.176   7.977  18.908  0.00  0.00    +0.000 A 
ATOM      5  N   UNL     1       2.192   6.787  19.582  0.00  0.00    +0.000 N 
ATOM      6  C   UNL     1       3.056   5.764  19.307  0.00  0.00    +0.000 A 
ATOM      7  O   UNL     1       3.098   4.770  20.027  0.00  0.00    +0.000 OA
ATOM      8  H   UNL     1       1.589   6.648  20.378  0.00  0.00    +0.000 HD
ENDROOT
BRANCH   4   9
ATOM      9  C   UNL     1       1.241   9.008  19.354  0.00  0.00    +0.000 A 
ATOM     10  C   UNL     1       0.633   9.860  18.430  0.00  0.00    +0.000 A 
ATOM     11  C   UNL     1      -0.277  10.828  18.857  0.00  0.00    +0.000 A 
ATOM     12  C   UNL     1      -0.597  10.957  20.217  0.00  0.00    +0.000 A 
ATOM     13  C   UNL     1      -1.518  11.918  20.664  0.00  0.00    +0.000 A 
ATOM     14  C   UNL     1      -1.829  12.031  22.020  0.00  0.00    +0.000 A 
ATOM     15  C   UNL     1      -1.220  11.190  22.947  0.00  0.00    +0.000 A 
ATOM     16  C   UNL     1      -0.302  10.230  22.520  0.00  0.00    +0.000 A 
ATOM     17  C   UNL     1       0.015  10.102  21.161  0.00  0.00    +0.000 A 
ATOM     18  C   UNL     1       0.934   9.134  20.717  0.00  0.00    +0.000 A 
ENDBRANCH   4   9
BRANCH   1  19
ATOM     19  C   UNL     1       4.828   4.751  17.681  0.00  0.00    +0.000 C 
BRANCH  19  21
ATOM     20  C   UNL     1       7.176   4.676  16.525  0.00  0.00    +0.000 C 
ATOM     21  C   UNL     1       5.703   5.113  16.431  0.00  0.00    +0.000 C 
ATOM     22  C   UNL     1       5.147   4.508  15.128  0.00  0.00    +0.000 C 
ENDBRANCH  19  21
BRANCH  19  23
ATOM     23  O   UNL     1       3.940   3.657  17.347  0.00  0.00    +0.000 OA
ATOM     24  H   UNL     1       3.170   3.705  17.944  0.00  0.00    +0.000 HD
ENDBRANCH  19  23
BRANCH  19  25
ATOM     25  C   UNL     1       5.681   4.296  18.915  0.00  0.00    +0.000 C 
ATOM     26  O   UNL     1       6.513   4.988  19.489  0.00  0.00    +0.000 OA
BRANCH  25  27
ATOM     27  O   UNL     1       5.465   3.003  19.289  0.00  0.00    +0.000 OA
ATOM     28  H   UNL     1       4.821   2.536  18.720  0.00  0.00    +0.000 HD
ENDBRANCH  25  27
ENDBRANCH  19  25
ENDBRANCH   1  19
TORSDOF 6
ENDMDL
MODEL 4
REMARK VINA RESULT:      -8.2      1.417      2.469
REMARK  Name = 
REMARK  8 active torsions:
REMARK  status: ('A' for Active; 'I' for Inactive)
REMARK    1  A    between atoms: C_1  and  C_2
REMARK    2  A    between atoms: C_2  and  C_3
REMARK    3  A    between atoms: C_2  and  C_4
REMARK    4  A    between atoms: C_4  and  O_5
REMARK    5  A    between atoms: C_4  and  C_6
REMARK    6  A    between atoms: C_4  and  C_9
REMARK    7  A    between atoms: C_6  and  O_8
REMARK    8  A    between atoms: C_12  and  C_13
REMARK                            x       y       z     vdW  Elec       q    Type
REMARK                         _______ _______ _______ _____ _____    ______ ____
ROOT
ATOM      1  C   UNL     1       3.401   5.937  18.568  0.00  0.00    +0.000 A 
ATOM      2  C   UNL     1       3.165   7.174  18.079  0.00  0.00    +0.000 A 
ATOM      3  C   UNL     1       2.375   8.142  18.801  0.00  0.00    +0.000 A 
ATOM      4  C   UNL     1       1.811   7.812  19.965  0.00  0.00    +0.000 A 
ATOM      5  N   UNL     1       2.021   6.568  20.493  0.00  0.00    +0.000 N 
ATOM      6  C   UNL     1       2.826   5.621  19.923  0.00  0.00    +0.000 A 
ATOM      7  O   UNL     1       3.066   4.569  20.511  0.00  0.00    +0.000 OA
ATOM      8  H   UNL     1       1.628   6.326  21.390  0.00  0.00    +0.000 HD
ENDROOT
BRANCH   4   9
ATOM      9  C   UNL     1       0.978   8.747  20.717  0.00  0.00    +0.000 A 
ATOM     10  C   UNL     1       0.931   8.691  22.111  0.00  0.00    +0.000 A 
ATOM     11  C   UNL     1       0.152   9.601  22.826  0.00  0.00    +0.000 A 
ATOM     12  C   UNL     1      -0.590  10.587  22.158  0.00  0.00    +0.000 A 
ATOM     13  C   UNL     1      -1.371  11.518  22.862  0.00  0.00    +0.000 A 
ATOM     14  C   UNL     1      -2.102  12.494  22.183  0.00  0.00    +0.000 A 
ATOM     15  C   UNL     1      -2.065  12.551  20.792  0.00  0.00    +0.000 A 
ATOM     16  C   UNL     1      -1.295  11.633  20.077  0.00  0.00    +0.000 A 
ATOM     17  C   UNL     1      -0.553  10.650  20.747  0.00  0.00    +0.000 A 
ATOM     18  C   UNL     1       0.233   9.724  20.039  0.00  0.00    +0.000 A 
ENDBRANCH   4   9
BRANCH   1  19
ATOM     19  C   UNL     1       4.192   4.854  17.837  0.00  0.00    +0.000 C 
BRANCH  19  21
ATOM     20  C   UNL     1       5.945   6.366  16.613  0.00  0.00    +0.000 C 
ATOM     21  C   UNL     1       4.767   5.384  16.478  0.00  0.00    +0.000 C 
ATOM     22  C   UNL     1       5.246   4.246  15.557  0.00  0.00    +0.000 C 
ENDBRANCH  19  21
BRANCH  19  23
ATOM     23  O   UNL     1       3.275   3.763  17.580  0.00  0.00    +0.000 OA
ATOM     24  H   UNL     1       2.565   3.807  18.248  0.00  0.00    +0.000 HD
ENDBRANCH  19  23
BRANCH  19  25
ATOM     25  C   UNL     1       5.303   4.308  18.800  0.00  0.00    +0.000 C 
ATOM     26  O   UNL     1       6.209   4.979  19.279  0.00  0.00    +0.000 OA
BRANCH  25  27
ATOM     27  O   UNL     1       5.221   2.968  19.035  0.00  0.00    +0.000 OA
ATOM     28  H   UNL     1       4.376   2.573  18.741  0.00  0.00    +0.000 HD
ENDBRANCH  25  27
ENDBRANCH  19  25
ENDBRANCH   1  19
TORSDOF 6
ENDMDL
MODEL 5
REMARK VINA RESULT:      -8.2      1.229      2.471
REMARK  Name = 
REMARK  8 active torsions:
REMARK  status: ('A' for Active; 'I' for Inactive)
REMARK    1  A    between atoms: C_1  and  C_2
REMARK    2  A    between atoms: C_2  and  C_3
REMARK    3  A    between atoms: C_2  and  C_4
REMARK    4  A    between atoms: C_4  and  O_5
REMARK    5  A    between atoms: C_4  and  C_6
REMARK    6  A    between atoms: C_4  and  C_9
REMARK    7  A    between atoms: C_6  and  O_8
REMARK    8  A    between atoms: C_12  and  C_13
REMARK                            x       y       z     vdW  Elec       q    Type
REMARK                         _______ _______ _______ _____ _____    ______ ____
ROOT
ATOM      1  C   UNL     1       3.893   5.168  18.377  0.00  0.00    +0.000 A 
ATOM      2  C   UNL     1       3.104   5.055  19.467  0.00  0.00    +0.000 A 
ATOM      3  C   UNL     1       2.276   6.144  19.926  0.00  0.00    +0.000 A 
ATOM      4  C   UNL     1       2.311   7.322  19.299  0.00  0.00    +0.000 A 
ATOM      5  N   UNL     1       3.100   7.480  18.194  0.00  0.00    +0.000 N 
ATOM      6  C   UNL     1       3.847   6.478  17.638  0.00  0.00    +0.000 A 
ATOM      7  O   UNL     1       4.440   6.656  16.577  0.00  0.00    +0.000 OA
ATOM      8  H   UNL     1       3.103   8.356  17.694  0.00  0.00    +0.000 HD
ENDROOT
BRANCH   4   9
ATOM      9  C   UNL     1       1.514   8.463  19.745  0.00  0.00    +0.000 A 
ATOM     10  C   UNL     1       1.240   9.519  18.873  0.00  0.00    +0.000 A 
ATOM     11  C   UNL     1       0.460  10.596  19.295  0.00  0.00    +0.000 A 
ATOM     12  C   UNL     1      -0.064  10.632  20.596  0.00  0.00    +0.000 A 
ATOM     13  C   UNL     1      -0.860  11.702  21.035  0.00  0.00    +0.000 A 
ATOM     14  C   UNL     1      -1.377  11.722  22.332  0.00  0.00    +0.000 A 
ATOM     15  C   UNL     1      -1.101  10.675  23.208  0.00  0.00    +0.000 A 
ATOM     16  C   UNL     1      -0.311   9.604  22.788  0.00  0.00    +0.000 A 
ATOM     17  C   UNL     1       0.210   9.570  21.487  0.00  0.00    +0.000 A 
ATOM     18  C   UNL     1       1.002   8.493  21.050  0.00  0.00    +0.000 A 
ENDBRANCH   4   9
BRANCH   1  19
ATOM     19  C   UNL     1       4.823   4.069  17.865  0.00  0.00    +0.000 C 
BRANCH  19  21
ATOM     20  C   UNL     1       7.200   4.775  17.022  0.00  0.00    +0.000 C 
ATOM     21  C   UNL     1       6.320   4.375  18.220  0.00  0.00    +0.000 C 
ATOM     22  C   UNL     1       6.458   5.501  19.263  0.00  0.00    +0.000 C 
ENDBRANCH  19  21
BRANCH  19  23
ATOM     23  O   UNL     1       4.668   4.022  16.427  0.00  0.00    +0.000 OA
ATOM     24  H   UNL     1       3.905   4.582  16.190  0.00  0.00    +0.000 HD
ENDBRANCH  19  23
BRANCH  19  25
ATOM     25  C   UNL     1       4.329   2.692  18.430  0.00  0.00    +0.000 C 
ATOM     26  O   UNL     1       3.390   2.044  17.982  0.00  0.00    +0.000 OA
BRANCH  25  27
ATOM     27  O   UNL     1       5.009   2.273  19.534  0.00  0.00    +0.000 OA
ATOM     28  H   UNL     1       5.835   1.794  19.324  0.00  0.00    +0.000 HD
ENDBRANCH  25  27
ENDBRANCH  19  25
ENDBRANCH   1  19
TORSDOF 6
ENDMDL
MODEL 6
REMARK VINA RESULT:      -8.1      0.818      1.023
REMARK  Name = 
REMARK  8 active torsions:
REMARK  status: ('A' for Active; 'I' for Inactive)
REMARK    1  A    between atoms: C_1  and  C_2
REMARK    2  A    between atoms: C_2  and  C_3
REMARK    3  A    between atoms: C_2  and  C_4
REMARK    4  A    between atoms: C_4  and  O_5
REMARK    5  A    between atoms: C_4  and  C_6
REMARK    6  A    between atoms: C_4  and  C_9
REMARK    7  A    between atoms: C_6  and  O_8
REMARK    8  A    between atoms: C_12  and  C_13
REMARK                            x       y       z     vdW  Elec       q    Type
REMARK                         _______ _______ _______ _____ _____    ______ ____
ROOT
ATOM      1  C   UNL     1       3.397   5.262  19.187  0.00  0.00    +0.000 A 
ATOM      2  C   UNL     1       3.458   6.345  18.382  0.00  0.00    +0.000 A 
ATOM      3  C   UNL     1       2.731   7.556  18.675  0.00  0.00    +0.000 A 
ATOM      4  C   UNL     1       1.930   7.615  19.741  0.00  0.00    +0.000 A 
ATOM      5  N   UNL     1       1.836   6.539  20.580  0.00  0.00    +0.000 N 
ATOM      6  C   UNL     1       2.555   5.386  20.429  0.00  0.00    +0.000 A 
ATOM      7  O   UNL     1       2.512   4.506  21.285  0.00  0.00    +0.000 OA
ATOM      8  H   UNL     1       1.260   6.591  21.407  0.00  0.00    +0.000 HD
ENDROOT
BRANCH   4   9
ATOM      9  C   UNL     1       1.150   8.808  20.062  0.00  0.00    +0.000 A 
ATOM     10  C   UNL     1       0.944   9.799  19.099  0.00  0.00    +0.000 A 
ATOM     11  C   UNL     1       0.179  10.926  19.403  0.00  0.00    +0.000 A 
ATOM     12  C   UNL     1      -0.398  11.078  20.673  0.00  0.00    +0.000 A 
ATOM     13  C   UNL     1      -1.179  12.201  20.992  0.00  0.00    +0.000 A 
ATOM     14  C   UNL     1      -1.747  12.336  22.260  0.00  0.00    +0.000 A 
ATOM     15  C   UNL     1      -1.540  11.355  23.225  0.00  0.00    +0.000 A 
ATOM     16  C   UNL     1      -0.765  10.234  22.925  0.00  0.00    +0.000 A 
ATOM     17  C   UNL     1      -0.192  10.083  21.655  0.00  0.00    +0.000 A 
ATOM     18  C   UNL     1       0.585   8.955  21.337  0.00  0.00    +0.000 A 
ENDBRANCH   4   9
BRANCH   1  19
ATOM     19  C   UNL     1       4.108   3.938  18.912  0.00  0.00    +0.000 C 
BRANCH  19  21
ATOM     20  C   UNL     1       3.420   1.578  18.009  0.00  0.00    +0.000 C 
ATOM     21  C   UNL     1       3.358   3.104  17.816  0.00  0.00    +0.000 C 
ATOM     22  C   UNL     1       1.866   3.474  17.713  0.00  0.00    +0.000 C 
ENDBRANCH  19  21
BRANCH  19  23
ATOM     23  O   UNL     1       4.118   3.199  20.157  0.00  0.00    +0.000 OA
ATOM     24  H   UNL     1       4.412   3.806  20.862  0.00  0.00    +0.000 HD
ENDBRANCH  19  23
BRANCH  19  25
ATOM     25  C   UNL     1       5.601   4.240  18.538  0.00  0.00    +0.000 C 
ATOM     26  O   UNL     1       6.428   4.734  19.294  0.00  0.00    +0.000 OA
BRANCH  25  27
ATOM     27  O   UNL     1       5.914   3.954  17.243  0.00  0.00    +0.000 OA
ATOM     28  H   UNL     1       5.143   3.979  16.642  0.00  0.00    +0.000 HD
ENDBRANCH  25  27
ENDBRANCH  19  25
ENDBRANCH   1  19
TORSDOF 6
ENDMDL
MODEL 7
REMARK VINA RESULT:      -8.1      0.605      1.644
REMARK  Name = 
REMARK  8 active torsions:
REMARK  status: ('A' for Active; 'I' for Inactive)
REMARK    1  A    between atoms: C_1  and  C_2
REMARK    2  A    between atoms: C_2  and  C_3
REMARK    3  A    between atoms: C_2  and  C_4
REMARK    4  A    between atoms: C_4  and  O_5
REMARK    5  A    between atoms: C_4  and  C_6
REMARK    6  A    between atoms: C_4  and  C_9
REMARK    7  A    between atoms: C_6  and  O_8
REMARK    8  A    between atoms: C_12  and  C_13
REMARK                            x       y       z     vdW  Elec       q    Type
REMARK                         _______ _______ _______ _____ _____    ______ ____
ROOT
ATOM      1  C   UNL     1       3.814   5.085  18.578  0.00  0.00    +0.000 A 
ATOM      2  C   UNL     1       3.728   6.245  17.891  0.00  0.00    +0.000 A 
ATOM      3  C   UNL     1       2.980   7.374  18.390  0.00  0.00    +0.000 A 
ATOM      4  C   UNL     1       2.306   7.276  19.538  0.00  0.00    +0.000 A 
ATOM      5  N   UNL     1       2.364   6.117  20.263  0.00  0.00    +0.000 N 
ATOM      6  C   UNL     1       3.117   5.032  19.911  0.00  0.00    +0.000 A 
ATOM      7  O   UNL     1       3.217   4.069  20.667  0.00  0.00    +0.000 OA
ATOM      8  H   UNL     1       1.886   6.050  21.149  0.00  0.00    +0.000 HD
ENDROOT
BRANCH   4   9
ATOM      9  C   UNL     1       1.510   8.381  20.069  0.00  0.00    +0.000 A 
ATOM     10  C   UNL     1       1.203   8.443  21.429  0.00  0.00    +0.000 A 
ATOM     11  C   UNL     1       0.462   9.512  21.935  0.00  0.00    +0.000 A 
ATOM     12  C   UNL     1       0.021  10.540  21.089  0.00  0.00    +0.000 A 
ATOM     13  C   UNL     1      -0.717  11.628  21.582  0.00  0.00    +0.000 A 
ATOM     14  C   UNL     1      -1.146  12.645  20.727  0.00  0.00    +0.000 A 
ATOM     15  C   UNL     1      -0.849  12.585  19.369  0.00  0.00    +0.000 A 
ATOM     16  C   UNL     1      -0.118  11.509  18.862  0.00  0.00    +0.000 A 
ATOM     17  C   UNL     1       0.324  10.484  19.710  0.00  0.00    +0.000 A 
ATOM     18  C   UNL     1       1.067   9.399  19.213  0.00  0.00    +0.000 A 
ENDBRANCH   4   9
BRANCH   1  19
ATOM     19  C   UNL     1       4.553   3.842  18.086  0.00  0.00    +0.000 C 
BRANCH  19  21
ATOM     20  C   UNL     1       3.449   1.495  18.453  0.00  0.00    +0.000 C 
ATOM     21  C   UNL     1       3.553   2.750  17.568  0.00  0.00    +0.000 C 
ATOM     22  C   UNL     1       2.121   3.294  17.406  0.00  0.00    +0.000 C 
ENDBRANCH  19  21
BRANCH  19  23
ATOM     23  O   UNL     1       5.295   3.320  19.214  0.00  0.00    +0.000 OA
ATOM     24  H   UNL     1       5.077   2.373  19.302  0.00  0.00    +0.000 HD
ENDBRANCH  19  23
BRANCH  19  25
ATOM     25  C   UNL     1       5.600   4.277  17.003  0.00  0.00    +0.000 C 
ATOM     26  O   UNL     1       5.345   4.489  15.824  0.00  0.00    +0.000 OA
BRANCH  25  27
ATOM     27  O   UNL     1       6.878   4.354  17.470  0.00  0.00    +0.000 OA
ATOM     28  H   UNL     1       7.090   3.669  18.135  0.00  0.00    +0.000 HD
ENDBRANCH  25  27
ENDBRANCH  19  25
ENDBRANCH   1  19
TORSDOF 6
ENDMDL
MODEL 8
REMARK VINA RESULT:      -8.0      1.685      2.818
REMARK  Name = 
REMARK  8 active torsions:
REMARK  status: ('A' for Active; 'I' for Inactive)
REMARK    1  A    between atoms: C_1  and  C_2
REMARK    2  A    between atoms: C_2  and  C_3
REMARK    3  A    between atoms: C_2  and  C_4
REMARK    4  A    between atoms: C_4  and  O_5
REMARK    5  A    between atoms: C_4  and  C_6
REMARK    6  A    between atoms: C_4  and  C_9
REMARK    7  A    between atoms: C_6  and  O_8
REMARK    8  A    between atoms: C_12  and  C_13
REMARK                            x       y       z     vdW  Elec       q    Type
REMARK                         _______ _______ _______ _____ _____    ______ ____
ROOT
ATOM      1  C   UNL     1       5.009   5.695  17.134  0.00  0.00    +0.000 A 
ATOM      2  C   UNL     1       4.504   6.830  16.603  0.00  0.00    +0.000 A 
ATOM      3  C   UNL     1       3.544   7.642  17.311  0.00  0.00    +0.000 A 
ATOM      4  C   UNL     1       3.091   7.256  18.506  0.00  0.00    +0.000 A 
ATOM      5  N   UNL     1       3.574   6.111  19.077  0.00  0.00    +0.000 N 
ATOM      6  C   UNL     1       4.547   5.329  18.519  0.00  0.00    +0.000 A 
ATOM      7  O   UNL     1       5.020   4.381  19.140  0.00  0.00    +0.000 OA
ATOM      8  H   UNL     1       3.263   5.833  19.996  0.00  0.00    +0.000 HD
ENDROOT
BRANCH   4   9
ATOM      9  C   UNL     1       2.097   8.029  19.247  0.00  0.00    +0.000 A 
ATOM     10  C   UNL     1       1.748   7.668  20.550  0.00  0.00    +0.000 A 
ATOM     11  C   UNL     1       0.814   8.422  21.263  0.00  0.00    +0.000 A 
ATOM     12  C   UNL     1       0.219   9.554  20.685  0.00  0.00    +0.000 A 
ATOM     13  C   UNL     1      -0.714  10.330  21.391  0.00  0.00    +0.000 A 
ATOM     14  C   UNL     1      -1.295  11.455  20.803  0.00  0.00    +0.000 A 
ATOM     15  C   UNL     1      -0.956  11.816  19.502  0.00  0.00    +0.000 A 
ATOM     16  C   UNL     1      -0.031  11.054  18.786  0.00  0.00    +0.000 A 
ATOM     17  C   UNL     1       0.563   9.925  19.366  0.00  0.00    +0.000 A 
ATOM     18  C   UNL     1       1.501   9.153  18.658  0.00  0.00    +0.000 A 
ENDBRANCH   4   9
BRANCH   1  19
ATOM     19  C   UNL     1       5.994   4.770  16.420  0.00  0.00    +0.000 C 
BRANCH  19  21
ATOM     20  C   UNL     1       7.373   5.027  14.209  0.00  0.00    +0.000 C 
ATOM     21  C   UNL     1       5.983   5.010  14.870  0.00  0.00    +0.000 C 
ATOM     22  C   UNL     1       5.151   3.953  14.118  0.00  0.00    +0.000 C 
ENDBRANCH  19  21
BRANCH  19  23
ATOM     23  O   UNL     1       5.576   3.413  16.702  0.00  0.00    +0.000 OA
ATOM     24  H   UNL     1       6.239   3.014  17.296  0.00  0.00    +0.000 HD
ENDBRANCH  19  23
BRANCH  19  25
ATOM     25  C   UNL     1       7.413   4.962  17.060  0.00  0.00    +0.000 C 
ATOM     26  O   UNL     1       8.178   4.053  17.358  0.00  0.00    +0.000 OA
BRANCH  25  27
ATOM     27  O   UNL     1       7.728   6.261  17.324  0.00  0.00    +0.000 OA
ATOM     28  H   UNL     1       7.937   6.427  18.265  0.00  0.00    +0.000 HD
ENDBRANCH  25  27
ENDBRANCH  19  25
ENDBRANCH   1  19
TORSDOF 6
ENDMDL
MODEL 9
REMARK VINA RESULT:      -7.9      1.055      2.089
REMARK  Name = 
REMARK  8 active torsions:
REMARK  status: ('A' for Active; 'I' for Inactive)
REMARK    1  A    between atoms: C_1  and  C_2
REMARK    2  A    between atoms: C_2  and  C_3
REMARK    3  A    between atoms: C_2  and  C_4
REMARK    4  A    between atoms: C_4  and  O_5
REMARK    5  A    between atoms: C_4  and  C_6
REMARK    6  A    between atoms: C_4  and  C_9
REMARK    7  A    between atoms: C_6  and  O_8
REMARK    8  A    between atoms: C_12  and  C_13
REMARK                            x       y       z     vdW  Elec       q    Type
REMARK                         _______ _______ _______ _____ _____    ______ ____
ROOT
ATOM      1  C   UNL     1       3.983   5.664  18.059  0.00  0.00    +0.000 A 
ATOM      2  C   UNL     1       3.816   6.816  17.374  0.00  0.00    +0.000 A 
ATOM      3  C   UNL     1       2.989   7.888  17.875  0.00  0.00    +0.000 A 
ATOM      4  C   UNL     1       2.324   7.741  19.022  0.00  0.00    +0.000 A 
ATOM      5  N   UNL     1       2.462   6.588  19.744  0.00  0.00    +0.000 N 
ATOM      6  C   UNL     1       3.291   5.559  19.392  0.00  0.00    +0.000 A 
ATOM      7  O   UNL     1       3.458   4.605  20.147  0.00  0.00    +0.000 OA
ATOM      8  H   UNL     1       1.990   6.486  20.630  0.00  0.00    +0.000 HD
ENDROOT
BRANCH   4   9
ATOM      9  C   UNL     1       1.451   8.786  19.553  0.00  0.00    +0.000 A 
ATOM     10  C   UNL     1       1.014   9.827  18.733  0.00  0.00    +0.000 A 
ATOM     11  C   UNL     1       0.162  10.811  19.238  0.00  0.00    +0.000 A 
ATOM     12  C   UNL     1      -0.271  10.765  20.572  0.00  0.00    +0.000 A 
ATOM     13  C   UNL     1      -1.136  11.739  21.094  0.00  0.00    +0.000 A 
ATOM     14  C   UNL     1      -1.560  11.678  22.423  0.00  0.00    +0.000 A 
ATOM     15  C   UNL     1      -1.122  10.646  23.247  0.00  0.00    +0.000 A 
ATOM     16  C   UNL     1      -0.261   9.670  22.744  0.00  0.00    +0.000 A 
ATOM     17  C   UNL     1       0.169   9.716  21.411  0.00  0.00    +0.000 A 
ATOM     18  C   UNL     1       1.031   8.735  20.890  0.00  0.00    +0.000 A 
ENDBRANCH   4   9
BRANCH   1  19
ATOM     19  C   UNL     1       4.809   4.476  17.566  0.00  0.00    +0.000 C 
BRANCH  19  21
ATOM     20  C   UNL     1       7.398   4.524  17.177  0.00  0.00    +0.000 C 
ATOM     21  C   UNL     1       6.245   4.477  18.196  0.00  0.00    +0.000 C 
ATOM     22  C   UNL     1       6.463   5.658  19.162  0.00  0.00    +0.000 C 
ENDBRANCH  19  21
BRANCH  19  23
ATOM     23  O   UNL     1       4.912   4.604  16.128  0.00  0.00    +0.000 OA
ATOM     24  H   UNL     1       4.174   5.163  15.824  0.00  0.00    +0.000 HD
ENDBRANCH  19  23
BRANCH  19  25
ATOM     25  C   UNL     1       4.012   3.157  17.859  0.00  0.00    +0.000 C 
ATOM     26  O   UNL     1       2.939   2.857  17.351  0.00  0.00    +0.000 OA
BRANCH  25  27
ATOM     27  O   UNL     1       4.592   2.360  18.800  0.00  0.00    +0.000 OA
ATOM     28  H   UNL     1       3.959   2.012  19.458  0.00  0.00    +0.000 HD
ENDBRANCH  25  27
ENDBRANCH  19  25
ENDBRANCH   1  19
TORSDOF 6
ENDMDL
