MODEL 1
REMARK VINA RESULT:      -6.7      0.000      0.000
REMARK  Name = 
REMARK  15 active torsions:
REMARK  status: ('A' for Active; 'I' for Inactive)
REMARK    1  A    between atoms: C_1  and  O_2
REMARK    2  A    between atoms: O_2  and  C_3
REMARK    3  A    between atoms: C_3  and  C_5
REMARK    4  A    between atoms: C_5  and  O_6
REMARK    5  A    between atoms: O_6  and  C_7
REMARK    6  A    between atoms: C_10  and  O_11
REMARK    7  A    between atoms: O_11  and  C_12
REMARK    8  A    between atoms: C_12  and  C_13
REMARK    9  A    between atoms: C_13  and  N_14
REMARK   10  A    between atoms: N_14  and  C_15
REMARK   11  A    between atoms: C_15  and  C_16
REMARK   12  A    between atoms: C_16  and  O_17
REMARK   13  A    between atoms: C_16  and  C_18
REMARK   14  A    between atoms: C_18  and  O_19
REMARK   15  A    between atoms: O_19  and  C_20
REMARK                            x       y       z     vdW  Elec       q    Type
REMARK                         _______ _______ _______ _____ _____    ______ ____
ROOT
ATOM      1  C   UNL     1       3.397   7.370  17.501  0.00  0.00    +0.000 C 
ENDROOT
BRANCH   1   2
ATOM      2  N   UNL     1       4.707   6.711  17.664  0.00  0.00    +0.000 NA
ATOM      3  H   UNL     1       4.700   6.068  18.457  0.00  0.00    +0.000 HD
BRANCH   2   4
ATOM      4  C   UNL     1       5.105   5.964  16.466  0.00  0.00    +0.000 C 
BRANCH   4   5
ATOM      5  C   UNL     1       4.864   4.447  16.582  0.00  0.00    +0.000 C 
BRANCH   5   6
ATOM      6  O   UNL     1       5.794   3.752  15.735  0.00  0.00    +0.000 OA
ATOM      7  H   UNL     1       6.292   3.128  16.289  0.00  0.00    +0.000 HD
ENDBRANCH   5   6
BRANCH   5   8
ATOM      8  C   UNL     1       5.046   4.057  18.063  0.00  0.00    +0.000 C 
BRANCH   8   9
ATOM      9  O   UNL     1       4.221   2.942  18.386  0.00  0.00    +0.000 OA
BRANCH   9  10
ATOM     10  C   UNL     1       3.194   3.152  19.272  0.00  0.00    +0.000 A 
ATOM     11  C   UNL     1       3.463   2.627  20.545  0.00  0.00    +0.000 A 
ATOM     12  C   UNL     1       2.501   2.645  21.556  0.00  0.00    +0.000 A 
ATOM     13  C   UNL     1       1.244   3.184  21.309  0.00  0.00    +0.000 A 
ATOM     14  C   UNL     1       0.960   3.712  20.051  0.00  0.00    +0.000 A 
ATOM     15  C   UNL     1       1.923   3.695  19.028  0.00  0.00    +0.000 A 
ATOM     16 CL   UNL     1       1.368   4.299  17.508  0.00  0.00    +0.000 Cl
ENDBRANCH   9  10
ENDBRANCH   8   9
ENDBRANCH   5   8
ENDBRANCH   4   5
ENDBRANCH   2   4
ENDBRANCH   1   2
BRANCH   1  17
ATOM     17  C   UNL     1       2.520   7.428  18.767  0.00  0.00    +0.000 C 
BRANCH  17  18
ATOM     18  O   UNL     1       1.907   8.715  18.845  0.00  0.00    +0.000 OA
BRANCH  18  22
ATOM     19  C   UNL     1      -0.391   9.958  22.082  0.00  0.00    +0.000 A 
ATOM     20  C   UNL     1      -0.543  10.499  20.806  0.00  0.00    +0.000 A 
ATOM     21  C   UNL     1       0.224  10.025  19.745  0.00  0.00    +0.000 A 
ATOM     22  C   UNL     1       1.178   9.028  19.954  0.00  0.00    +0.000 A 
ATOM     23  C   UNL     1       1.307   8.460  21.219  0.00  0.00    +0.000 A 
ATOM     24  C   UNL     1       0.523   8.925  22.284  0.00  0.00    +0.000 A 
BRANCH  19  25
ATOM     25  O   UNL     1      -1.150  10.557  23.043  0.00  0.00    +0.000 OA
BRANCH  25  26
ATOM     26  C   UNL     1      -1.348  11.959  22.926  0.00  0.00    +0.000 C 
BRANCH  26  27
ATOM     27  C   UNL     1      -2.838  12.248  22.862  0.00  0.00    +0.000 C 
ATOM     28  O   UNL     1      -3.434  12.782  21.936  0.00  0.00    +0.000 OA
BRANCH  27  30
ATOM     29  C   UNL     1      -4.546  12.630  24.415  0.00  0.00    +0.000 C 
ATOM     30  O   UNL     1      -3.432  11.827  24.026  0.00  0.00    +0.000 OA
ENDBRANCH  27  30
ENDBRANCH  26  27
ENDBRANCH  25  26
ENDBRANCH  19  25
ENDBRANCH  18  22
ENDBRANCH  17  18
ENDBRANCH   1  17
TORSDOF 14
ENDMDL
MODEL 2
REMARK VINA RESULT:      -6.6      3.112      5.747
REMARK  Name = 
REMARK  15 active torsions:
REMARK  status: ('A' for Active; 'I' for Inactive)
REMARK    1  A    between atoms: C_1  and  O_2
REMARK    2  A    between atoms: O_2  and  C_3
REMARK    3  A    between atoms: C_3  and  C_5
REMARK    4  A    between atoms: C_5  and  O_6
REMARK    5  A    between atoms: O_6  and  C_7
REMARK    6  A    between atoms: C_10  and  O_11
REMARK    7  A    between atoms: O_11  and  C_12
REMARK    8  A    between atoms: C_12  and  C_13
REMARK    9  A    between atoms: C_13  and  N_14
REMARK   10  A    between atoms: N_14  and  C_15
REMARK   11  A    between atoms: C_15  and  C_16
REMARK   12  A    between atoms: C_16  and  O_17
REMARK   13  A    between atoms: C_16  and  C_18
REMARK   14  A    between atoms: C_18  and  O_19
REMARK   15  A    between atoms: O_19  and  C_20
REMARK                            x       y       z     vdW  Elec       q    Type
REMARK                         _______ _______ _______ _____ _____    ______ ____
ROOT
ATOM      1  C   UNL     1       4.235   2.645  19.467  0.00  0.00    +0.000 C 
ENDROOT
BRANCH   1   2
ATOM      2  N   UNL     1       5.531   3.275  19.148  0.00  0.00    +0.000 NA
ATOM      3  H   UNL     1       6.205   2.583  18.819  0.00  0.00    +0.000 HD
BRANCH   2   4
ATOM      4  C   UNL     1       5.403   4.319  18.126  0.00  0.00    +0.000 C 
BRANCH   4   5
ATOM      5  C   UNL     1       6.700   5.119  17.901  0.00  0.00    +0.000 C 
BRANCH   5   6
ATOM      6  O   UNL     1       7.821   4.220  17.913  0.00  0.00    +0.000 OA
ATOM      7  H   UNL     1       8.632   4.754  17.877  0.00  0.00    +0.000 HD
ENDBRANCH   5   6
BRANCH   5   8
ATOM      8  C   UNL     1       6.572   5.846  16.547  0.00  0.00    +0.000 C 
BRANCH   8   9
ATOM      9  O   UNL     1       7.554   5.369  15.633  0.00  0.00    +0.000 OA
BRANCH   9  10
ATOM     10  C   UNL     1       7.115   4.907  14.418  0.00  0.00    +0.000 A 
ATOM     11  C   UNL     1       6.010   4.049  14.534  0.00  0.00    +0.000 A 
ATOM     12  C   UNL     1       5.482   3.392  13.421  0.00  0.00    +0.000 A 
ATOM     13  C   UNL     1       6.056   3.576  12.169  0.00  0.00    +0.000 A 
ATOM     14  C   UNL     1       7.152   4.426  12.035  0.00  0.00    +0.000 A 
ATOM     15  C   UNL     1       7.690   5.088  13.150  0.00  0.00    +0.000 A 
ATOM     16 CL   UNL     1       9.106   6.022  12.819  0.00  0.00    +0.000 Cl
ENDBRANCH   9  10
ENDBRANCH   8   9
ENDBRANCH   5   8
ENDBRANCH   4   5
ENDBRANCH   2   4
ENDBRANCH   1   2
BRANCH   1  17
ATOM     17  C   UNL     1       3.059   3.047  18.556  0.00  0.00    +0.000 C 
BRANCH  17  18
ATOM     18  O   UNL     1       2.088   3.743  19.337  0.00  0.00    +0.000 OA
BRANCH  18  22
ATOM     19  C   UNL     1       1.875   7.893  19.524  0.00  0.00    +0.000 A 
ATOM     20  C   UNL     1       1.672   7.084  20.640  0.00  0.00    +0.000 A 
ATOM     21  C   UNL     1       1.790   5.700  20.537  0.00  0.00    +0.000 A 
ATOM     22  C   UNL     1       2.077   5.106  19.308  0.00  0.00    +0.000 A 
ATOM     23  C   UNL     1       2.316   5.913  18.198  0.00  0.00    +0.000 A 
ATOM     24  C   UNL     1       2.215   7.307  18.305  0.00  0.00    +0.000 A 
BRANCH  19  25
ATOM     25  O   UNL     1       1.663   9.222  19.743  0.00  0.00    +0.000 OA
BRANCH  25  26
ATOM     26  C   UNL     1       0.742   9.565  20.770  0.00  0.00    +0.000 C 
BRANCH  26  27
ATOM     27  C   UNL     1       0.473  11.059  20.718  0.00  0.00    +0.000 C 
ATOM     28  O   UNL     1       0.807  11.885  21.556  0.00  0.00    +0.000 OA
BRANCH  27  30
ATOM     29  C   UNL     1      -0.006  12.683  19.103  0.00  0.00    +0.000 C 
ATOM     30  O   UNL     1      -0.229  11.354  19.575  0.00  0.00    +0.000 OA
ENDBRANCH  27  30
ENDBRANCH  26  27
ENDBRANCH  25  26
ENDBRANCH  19  25
ENDBRANCH  18  22
ENDBRANCH  17  18
ENDBRANCH   1  17
TORSDOF 14
ENDMDL
MODEL 3
REMARK VINA RESULT:      -6.6      3.539      6.038
REMARK  Name = 
REMARK  15 active torsions:
REMARK  status: ('A' for Active; 'I' for Inactive)
REMARK    1  A    between atoms: C_1  and  O_2
REMARK    2  A    between atoms: O_2  and  C_3
REMARK    3  A    between atoms: C_3  and  C_5
REMARK    4  A    between atoms: C_5  and  O_6
REMARK    5  A    between atoms: O_6  and  C_7
REMARK    6  A    between atoms: C_10  and  O_11
REMARK    7  A    between atoms: O_11  and  C_12
REMARK    8  A    between atoms: C_12  and  C_13
REMARK    9  A    between atoms: C_13  and  N_14
REMARK   10  A    between atoms: N_14  and  C_15
REMARK   11  A    between atoms: C_15  and  C_16
REMARK   12  A    between atoms: C_16  and  O_17
REMARK   13  A    between atoms: C_16  and  C_18
REMARK   14  A    between atoms: C_18  and  O_19
REMARK   15  A    between atoms: O_19  and  C_20
REMARK                            x       y       z     vdW  Elec       q    Type
REMARK                         _______ _______ _______ _____ _____    ______ ____
ROOT
ATOM      1  C   UNL     1       4.477   3.487  19.575  0.00  0.00    +0.000 C 
ENDROOT
BRANCH   1   2
ATOM      2  N   UNL     1       5.661   3.628  18.707  0.00  0.00    +0.000 NA
ATOM      3  H   UNL     1       5.395   3.663  17.723  0.00  0.00    +0.000 HD
BRANCH   2   4
ATOM      4  C   UNL     1       6.439   4.831  19.021  0.00  0.00    +0.000 C 
BRANCH   4   5
ATOM      5  C   UNL     1       7.442   5.216  17.917  0.00  0.00    +0.000 C 
BRANCH   5   6
ATOM      6  O   UNL     1       8.285   4.090  17.626  0.00  0.00    +0.000 OA
ATOM      7  H   UNL     1       8.539   4.142  16.689  0.00  0.00    +0.000 HD
ENDBRANCH   5   6
BRANCH   5   8
ATOM      8  C   UNL     1       6.631   5.651  16.680  0.00  0.00    +0.000 C 
BRANCH   8   9
ATOM      9  O   UNL     1       7.481   5.756  15.542  0.00  0.00    +0.000 OA
BRANCH   9  10
ATOM     10  C   UNL     1       7.081   5.118  14.394  0.00  0.00    +0.000 A 
ATOM     11  C   UNL     1       6.000   4.249  14.608  0.00  0.00    +0.000 A 
ATOM     12  C   UNL     1       5.515   3.429  13.588  0.00  0.00    +0.000 A 
ATOM     13  C   UNL     1       6.110   3.458  12.332  0.00  0.00    +0.000 A 
ATOM     14  C   UNL     1       7.184   4.316  12.102  0.00  0.00    +0.000 A 
ATOM     15  C   UNL     1       7.678   5.142  13.124  0.00  0.00    +0.000 A 
ATOM     16 CL   UNL     1       9.072   6.066  12.692  0.00  0.00    +0.000 Cl
ENDBRANCH   9  10
ENDBRANCH   8   9
ENDBRANCH   5   8
ENDBRANCH   4   5
ENDBRANCH   2   4
ENDBRANCH   1   2
BRANCH   1  17
ATOM     17  C   UNL     1       3.453   2.423  19.135  0.00  0.00    +0.000 C 
BRANCH  17  18
ATOM     18  O   UNL     1       2.203   3.063  18.881  0.00  0.00    +0.000 OA
BRANCH  18  22
ATOM     19  C   UNL     1       2.005   7.181  19.436  0.00  0.00    +0.000 A 
ATOM     20  C   UNL     1       2.284   6.607  18.197  0.00  0.00    +0.000 A 
ATOM     21  C   UNL     1       2.303   5.222  18.051  0.00  0.00    +0.000 A 
ATOM     22  C   UNL     1       2.080   4.393  19.151  0.00  0.00    +0.000 A 
ATOM     23  C   UNL     1       1.765   4.964  20.383  0.00  0.00    +0.000 A 
ATOM     24  C   UNL     1       1.728   6.358  20.526  0.00  0.00    +0.000 A 
BRANCH  19  25
ATOM     25  O   UNL     1       2.085   8.542  19.458  0.00  0.00    +0.000 OA
BRANCH  25  26
ATOM     26  C   UNL     1       1.616   9.233  18.309  0.00  0.00    +0.000 C 
BRANCH  26  27
ATOM     27  C   UNL     1       0.471  10.148  18.712  0.00  0.00    +0.000 C 
ATOM     28  O   UNL     1      -0.560  10.339  18.082  0.00  0.00    +0.000 OA
BRANCH  27  30
ATOM     29  C   UNL     1       1.250  12.092  19.754  0.00  0.00    +0.000 C 
ATOM     30  O   UNL     1       0.775  10.755  19.906  0.00  0.00    +0.000 OA
ENDBRANCH  27  30
ENDBRANCH  26  27
ENDBRANCH  25  26
ENDBRANCH  19  25
ENDBRANCH  18  22
ENDBRANCH  17  18
ENDBRANCH   1  17
TORSDOF 14
ENDMDL
MODEL 4
REMARK VINA RESULT:      -6.5      2.530      4.513
REMARK  Name = 
REMARK  15 active torsions:
REMARK  status: ('A' for Active; 'I' for Inactive)
REMARK    1  A    between atoms: C_1  and  O_2
REMARK    2  A    between atoms: O_2  and  C_3
REMARK    3  A    between atoms: C_3  and  C_5
REMARK    4  A    between atoms: C_5  and  O_6
REMARK    5  A    between atoms: O_6  and  C_7
REMARK    6  A    between atoms: C_10  and  O_11
REMARK    7  A    between atoms: O_11  and  C_12
REMARK    8  A    between atoms: C_12  and  C_13
REMARK    9  A    between atoms: C_13  and  N_14
REMARK   10  A    between atoms: N_14  and  C_15
REMARK   11  A    between atoms: C_15  and  C_16
REMARK   12  A    between atoms: C_16  and  O_17
REMARK   13  A    between atoms: C_16  and  C_18
REMARK   14  A    between atoms: C_18  and  O_19
REMARK   15  A    between atoms: O_19  and  C_20
REMARK                            x       y       z     vdW  Elec       q    Type
REMARK                         _______ _______ _______ _____ _____    ______ ____
ROOT
ATOM      1  C   UNL     1       1.504   3.855  19.197  0.00  0.00    +0.000 C 
ENDROOT
BRANCH   1   2
ATOM      2  N   UNL     1       2.673   3.693  18.312  0.00  0.00    +0.000 NA
ATOM      3  H   UNL     1       3.317   4.479  18.405  0.00  0.00    +0.000 HD
BRANCH   2   4
ATOM      4  C   UNL     1       3.410   2.455  18.586  0.00  0.00    +0.000 C 
BRANCH   4   5
ATOM      5  C   UNL     1       4.335   2.551  19.813  0.00  0.00    +0.000 C 
BRANCH   5   6
ATOM      6  O   UNL     1       5.208   1.410  19.842  0.00  0.00    +0.000 OA
ATOM      7  H   UNL     1       5.977   1.609  19.281  0.00  0.00    +0.000 HD
ENDBRANCH   5   6
BRANCH   5   8
ATOM      8  C   UNL     1       5.129   3.869  19.698  0.00  0.00    +0.000 C 
BRANCH   8   9
ATOM      9  O   UNL     1       5.876   3.892  18.486  0.00  0.00    +0.000 OA
BRANCH   9  10
ATOM     10  C   UNL     1       6.460   5.081  18.127  0.00  0.00    +0.000 A 
ATOM     11  C   UNL     1       7.498   5.457  18.993  0.00  0.00    +0.000 A 
ATOM     12  C   UNL     1       8.145   6.687  18.859  0.00  0.00    +0.000 A 
ATOM     13  C   UNL     1       7.760   7.569  17.857  0.00  0.00    +0.000 A 
ATOM     14  C   UNL     1       6.733   7.210  16.986  0.00  0.00    +0.000 A 
ATOM     15  C   UNL     1       6.076   5.977  17.116  0.00  0.00    +0.000 A 
ATOM     16 CL   UNL     1       4.763   5.741  16.017  0.00  0.00    +0.000 Cl
ENDBRANCH   9  10
ENDBRANCH   8   9
ENDBRANCH   5   8
ENDBRANCH   4   5
ENDBRANCH   2   4
ENDBRANCH   1   2
BRANCH   1  17
ATOM     17  C   UNL     1       1.695   4.825  20.379  0.00  0.00    +0.000 C 
BRANCH  17  18
ATOM     18  O   UNL     1       2.650   5.820  20.009  0.00  0.00    +0.000 OA
BRANCH  18  22
ATOM     19  C   UNL     1       1.095   9.627  19.382  0.00  0.00    +0.000 A 
ATOM     20  C   UNL     1       0.983   8.967  20.605  0.00  0.00    +0.000 A 
ATOM     21  C   UNL     1       1.553   7.708  20.779  0.00  0.00    +0.000 A 
ATOM     22  C   UNL     1       2.209   7.077  19.721  0.00  0.00    +0.000 A 
ATOM     23  C   UNL     1       2.353   7.749  18.509  0.00  0.00    +0.000 A 
ATOM     24  C   UNL     1       1.795   9.024  18.339  0.00  0.00    +0.000 A 
BRANCH  19  25
ATOM     25  O   UNL     1       0.436  10.819  19.322  0.00  0.00    +0.000 OA
BRANCH  25  26
ATOM     26  C   UNL     1      -0.574  10.947  18.331  0.00  0.00    +0.000 C 
BRANCH  26  27
ATOM     27  C   UNL     1      -1.196  12.330  18.430  0.00  0.00    +0.000 C 
ATOM     28  O   UNL     1      -0.662  13.388  18.129  0.00  0.00    +0.000 OA
BRANCH  27  30
ATOM     29  C   UNL     1      -2.625  12.824  20.215  0.00  0.00    +0.000 C 
ATOM     30  O   UNL     1      -2.469  12.218  18.932  0.00  0.00    +0.000 OA
ENDBRANCH  27  30
ENDBRANCH  26  27
ENDBRANCH  25  26
ENDBRANCH  19  25
ENDBRANCH  18  22
ENDBRANCH  17  18
ENDBRANCH   1  17
TORSDOF 14
ENDMDL
MODEL 5
REMARK VINA RESULT:      -6.5      5.044      9.500
REMARK  Name = 
REMARK  15 active torsions:
REMARK  status: ('A' for Active; 'I' for Inactive)
REMARK    1  A    between atoms: C_1  and  O_2
REMARK    2  A    between atoms: O_2  and  C_3
REMARK    3  A    between atoms: C_3  and  C_5
REMARK    4  A    between atoms: C_5  and  O_6
REMARK    5  A    between atoms: O_6  and  C_7
REMARK    6  A    between atoms: C_10  and  O_11
REMARK    7  A    between atoms: O_11  and  C_12
REMARK    8  A    between atoms: C_12  and  C_13
REMARK    9  A    between atoms: C_13  and  N_14
REMARK   10  A    between atoms: N_14  and  C_15
REMARK   11  A    between atoms: C_15  and  C_16
REMARK   12  A    between atoms: C_16  and  O_17
REMARK   13  A    between atoms: C_16  and  C_18
REMARK   14  A    between atoms: C_18  and  O_19
REMARK   15  A    between atoms: O_19  and  C_20
REMARK                            x       y       z     vdW  Elec       q    Type
REMARK                         _______ _______ _______ _____ _____    ______ ____
ROOT
ATOM      1  C   UNL     1       5.264   4.734  19.505  0.00  0.00    +0.000 C 
ENDROOT
BRANCH   1   2
ATOM      2  N   UNL     1       5.361   3.363  18.969  0.00  0.00    +0.000 NA
ATOM      3  H   UNL     1       6.228   2.913  19.262  0.00  0.00    +0.000 HD
BRANCH   2   4
ATOM      4  C   UNL     1       4.236   2.521  19.390  0.00  0.00    +0.000 C 
BRANCH   4   5
ATOM      5  C   UNL     1       3.462   1.898  18.213  0.00  0.00    +0.000 C 
BRANCH   5   6
ATOM      6  O   UNL     1       2.345   1.150  18.721  0.00  0.00    +0.000 OA
ATOM      7  H   UNL     1       1.539   1.501  18.308  0.00  0.00    +0.000 HD
ENDBRANCH   5   6
BRANCH   5   8
ATOM      8  C   UNL     1       3.003   3.048  17.295  0.00  0.00    +0.000 C 
BRANCH   8   9
ATOM      9  O   UNL     1       1.756   3.572  17.742  0.00  0.00    +0.000 OA
BRANCH   9  10
ATOM     10  C   UNL     1       1.791   4.679  18.552  0.00  0.00    +0.000 A 
ATOM     11  C   UNL     1       2.219   5.831  17.875  0.00  0.00    +0.000 A 
ATOM     12  C   UNL     1       2.423   7.036  18.549  0.00  0.00    +0.000 A 
ATOM     13  C   UNL     1       2.207   7.109  19.920  0.00  0.00    +0.000 A 
ATOM     14  C   UNL     1       1.778   5.976  20.608  0.00  0.00    +0.000 A 
ATOM     15  C   UNL     1       1.574   4.760  19.937  0.00  0.00    +0.000 A 
ATOM     16 CL   UNL     1       1.141   3.437  20.960  0.00  0.00    +0.000 Cl
ENDBRANCH   9  10
ENDBRANCH   8   9
ENDBRANCH   5   8
ENDBRANCH   4   5
ENDBRANCH   2   4
ENDBRANCH   1   2
BRANCH   1  17
ATOM     17  C   UNL     1       6.396   5.692  19.088  0.00  0.00    +0.000 C 
BRANCH  17  18
ATOM     18  O   UNL     1       6.018   6.356  17.882  0.00  0.00    +0.000 OA
BRANCH  18  22
ATOM     19  C   UNL     1       6.354   4.344  14.257  0.00  0.00    +0.000 A 
ATOM     20  C   UNL     1       5.127   4.765  14.767  0.00  0.00    +0.000 A 
ATOM     21  C   UNL     1       5.068   5.468  15.968  0.00  0.00    +0.000 A 
ATOM     22  C   UNL     1       6.232   5.728  16.692  0.00  0.00    +0.000 A 
ATOM     23  C   UNL     1       7.463   5.340  16.168  0.00  0.00    +0.000 A 
ATOM     24  C   UNL     1       7.525   4.648  14.950  0.00  0.00    +0.000 A 
BRANCH  19  25
ATOM     25  O   UNL     1       6.267   3.608  13.113  0.00  0.00    +0.000 OA
BRANCH  25  26
ATOM     26  C   UNL     1       5.289   4.007  12.163  0.00  0.00    +0.000 C 
BRANCH  26  27
ATOM     27  C   UNL     1       4.771   2.779  11.435  0.00  0.00    +0.000 C 
ATOM     28  O   UNL     1       3.798   2.731  10.696  0.00  0.00    +0.000 OA
BRANCH  27  30
ATOM     29  C   UNL     1       6.449   1.329  10.687  0.00  0.00    +0.000 C 
ATOM     30  O   UNL     1       5.564   1.701  11.744  0.00  0.00    +0.000 OA
ENDBRANCH  27  30
ENDBRANCH  26  27
ENDBRANCH  25  26
ENDBRANCH  19  25
ENDBRANCH  18  22
ENDBRANCH  17  18
ENDBRANCH   1  17
TORSDOF 14
ENDMDL
MODEL 6
REMARK VINA RESULT:      -6.4      3.308      4.926
REMARK  Name = 
REMARK  15 active torsions:
REMARK  status: ('A' for Active; 'I' for Inactive)
REMARK    1  A    between atoms: C_1  and  O_2
REMARK    2  A    between atoms: O_2  and  C_3
REMARK    3  A    between atoms: C_3  and  C_5
REMARK    4  A    between atoms: C_5  and  O_6
REMARK    5  A    between atoms: O_6  and  C_7
REMARK    6  A    between atoms: C_10  and  O_11
REMARK    7  A    between atoms: O_11  and  C_12
REMARK    8  A    between atoms: C_12  and  C_13
REMARK    9  A    between atoms: C_13  and  N_14
REMARK   10  A    between atoms: N_14  and  C_15
REMARK   11  A    between atoms: C_15  and  C_16
REMARK   12  A    between atoms: C_16  and  O_17
REMARK   13  A    between atoms: C_16  and  C_18
REMARK   14  A    between atoms: C_18  and  O_19
REMARK   15  A    between atoms: O_19  and  C_20
REMARK                            x       y       z     vdW  Elec       q    Type
REMARK                         _______ _______ _______ _____ _____    ______ ____
ROOT
ATOM      1  C   UNL     1       0.961   3.909  20.469  0.00  0.00    +0.000 C 
ENDROOT
BRANCH   1   2
ATOM      2  N   UNL     1       0.844   2.848  19.451  0.00  0.00    +0.000 NA
ATOM      3  H   UNL     1       0.410   3.202  18.598  0.00  0.00    +0.000 HD
BRANCH   2   4
ATOM      4  C   UNL     1       2.145   2.267  19.103  0.00  0.00    +0.000 C 
BRANCH   4   5
ATOM      5  C   UNL     1       2.601   2.600  17.670  0.00  0.00    +0.000 C 
BRANCH   5   6
ATOM      6  O   UNL     1       1.794   3.669  17.150  0.00  0.00    +0.000 OA
ATOM      7  H   UNL     1       2.336   4.171  16.519  0.00  0.00    +0.000 HD
ENDBRANCH   5   6
BRANCH   5   8
ATOM      8  C   UNL     1       4.091   2.994  17.733  0.00  0.00    +0.000 C 
BRANCH   8   9
ATOM      9  O   UNL     1       4.345   4.108  16.883  0.00  0.00    +0.000 OA
BRANCH   9  10
ATOM     10  C   UNL     1       5.388   4.934  17.221  0.00  0.00    +0.000 A 
ATOM     11  C   UNL     1       6.061   4.510  18.377  0.00  0.00    +0.000 A 
ATOM     12  C   UNL     1       7.083   5.274  18.942  0.00  0.00    +0.000 A 
ATOM     13  C   UNL     1       7.448   6.483  18.364  0.00  0.00    +0.000 A 
ATOM     14  C   UNL     1       6.792   6.919  17.214  0.00  0.00    +0.000 A 
ATOM     15  C   UNL     1       5.761   6.157  16.641  0.00  0.00    +0.000 A 
ATOM     16 CL   UNL     1       4.992   6.894  15.280  0.00  0.00    +0.000 Cl
ENDBRANCH   9  10
ENDBRANCH   8   9
ENDBRANCH   5   8
ENDBRANCH   4   5
ENDBRANCH   2   4
ENDBRANCH   1   2
BRANCH   1  17
ATOM     17  C   UNL     1       2.395   4.389  20.767  0.00  0.00    +0.000 C 
BRANCH  17  18
ATOM     18  O   UNL     1       2.809   5.280  19.731  0.00  0.00    +0.000 OA
BRANCH  18  22
ATOM     19  C   UNL     1       1.418   9.184  19.386  0.00  0.00    +0.000 A 
ATOM     20  C   UNL     1       2.004   8.504  18.320  0.00  0.00    +0.000 A 
ATOM     21  C   UNL     1       2.421   7.184  18.473  0.00  0.00    +0.000 A 
ATOM     22  C   UNL     1       2.291   6.540  19.704  0.00  0.00    +0.000 A 
ATOM     23  C   UNL     1       1.673   7.206  20.761  0.00  0.00    +0.000 A 
ATOM     24  C   UNL     1       1.236   8.528  20.602  0.00  0.00    +0.000 A 
BRANCH  19  25
ATOM     25  O   UNL     1       1.118  10.489  19.125  0.00  0.00    +0.000 OA
BRANCH  25  26
ATOM     26  C   UNL     1       1.941  11.163  18.184  0.00  0.00    +0.000 C 
BRANCH  26  27
ATOM     27  C   UNL     1       2.088  12.616  18.602  0.00  0.00    +0.000 C 
ATOM     28  O   UNL     1       3.033  13.351  18.350  0.00  0.00    +0.000 OA
BRANCH  27  30
ATOM     29  C   UNL     1       0.055  13.774  18.587  0.00  0.00    +0.000 C 
ATOM     30  O   UNL     1       0.987  12.991  19.333  0.00  0.00    +0.000 OA
ENDBRANCH  27  30
ENDBRANCH  26  27
ENDBRANCH  25  26
ENDBRANCH  19  25
ENDBRANCH  18  22
ENDBRANCH  17  18
ENDBRANCH   1  17
TORSDOF 14
ENDMDL
MODEL 7
REMARK VINA RESULT:      -6.4      4.158      8.145
REMARK  Name = 
REMARK  15 active torsions:
REMARK  status: ('A' for Active; 'I' for Inactive)
REMARK    1  A    between atoms: C_1  and  O_2
REMARK    2  A    between atoms: O_2  and  C_3
REMARK    3  A    between atoms: C_3  and  C_5
REMARK    4  A    between atoms: C_5  and  O_6
REMARK    5  A    between atoms: O_6  and  C_7
REMARK    6  A    between atoms: C_10  and  O_11
REMARK    7  A    between atoms: O_11  and  C_12
REMARK    8  A    between atoms: C_12  and  C_13
REMARK    9  A    between atoms: C_13  and  N_14
REMARK   10  A    between atoms: N_14  and  C_15
REMARK   11  A    between atoms: C_15  and  C_16
REMARK   12  A    between atoms: C_16  and  O_17
REMARK   13  A    between atoms: C_16  and  C_18
REMARK   14  A    between atoms: C_18  and  O_19
REMARK   15  A    between atoms: O_19  and  C_20
REMARK                            x       y       z     vdW  Elec       q    Type
REMARK                         _______ _______ _______ _____ _____    ______ ____
ROOT
ATOM      1  C   UNL     1       2.192   2.667  17.538  0.00  0.00    +0.000 C 
ENDROOT
BRANCH   1   2
ATOM      2  N   UNL     1       1.714   3.441  18.699  0.00  0.00    +0.000 NA
ATOM      3  H   UNL     1       0.750   3.749  18.565  0.00  0.00    +0.000 HD
BRANCH   2   4
ATOM      4  C   UNL     1       1.788   2.673  19.946  0.00  0.00    +0.000 C 
BRANCH   4   5
ATOM      5  C   UNL     1       1.368   3.481  21.188  0.00  0.00    +0.000 C 
BRANCH   5   6
ATOM      6  O   UNL     1       2.437   3.468  22.149  0.00  0.00    +0.000 OA
ATOM      7  H   UNL     1       3.244   3.178  21.692  0.00  0.00    +0.000 HD
ENDBRANCH   5   6
BRANCH   5   8
ATOM      8  C   UNL     1       1.041   4.916  20.725  0.00  0.00    +0.000 C 
BRANCH   8   9
ATOM      9  O   UNL     1       2.241   5.633  20.450  0.00  0.00    +0.000 OA
BRANCH   9  10
ATOM     10  C   UNL     1       2.131   6.796  19.730  0.00  0.00    +0.000 A 
ATOM     11  C   UNL     1       2.796   6.732  18.496  0.00  0.00    +0.000 A 
ATOM     12  C   UNL     1       2.891   7.849  17.664  0.00  0.00    +0.000 A 
ATOM     13  C   UNL     1       2.326   9.056  18.056  0.00  0.00    +0.000 A 
ATOM     14  C   UNL     1       1.659   9.137  19.277  0.00  0.00    +0.000 A 
ATOM     15  C   UNL     1       1.562   8.018  20.120  0.00  0.00    +0.000 A 
ATOM     16 CL   UNL     1       0.790   8.324  21.635  0.00  0.00    +0.000 Cl
ENDBRANCH   9  10
ENDBRANCH   8   9
ENDBRANCH   5   8
ENDBRANCH   4   5
ENDBRANCH   2   4
ENDBRANCH   1   2
BRANCH   1  17
ATOM     17  C   UNL     1       3.683   2.278  17.566  0.00  0.00    +0.000 C 
BRANCH  17  18
ATOM     18  O   UNL     1       4.360   3.115  18.503  0.00  0.00    +0.000 OA
BRANCH  18  22
ATOM     19  C   UNL     1       6.660   6.392  17.376  0.00  0.00    +0.000 A 
ATOM     20  C   UNL     1       6.544   5.982  18.703  0.00  0.00    +0.000 A 
ATOM     21  C   UNL     1       5.792   4.856  19.028  0.00  0.00    +0.000 A 
ATOM     22  C   UNL     1       5.116   4.147  18.034  0.00  0.00    +0.000 A 
ATOM     23  C   UNL     1       5.259   4.533  16.703  0.00  0.00    +0.000 A 
ATOM     24  C   UNL     1       6.031   5.656  16.374  0.00  0.00    +0.000 A 
BRANCH  19  25
ATOM     25  O   UNL     1       7.366   7.545  17.201  0.00  0.00    +0.000 OA
BRANCH  25  26
ATOM     26  C   UNL     1       8.293   7.893  18.220  0.00  0.00    +0.000 C 
BRANCH  26  27
ATOM     27  C   UNL     1       8.443   9.404  18.262  0.00  0.00    +0.000 C 
ATOM     28  O   UNL     1       7.927  10.205  17.495  0.00  0.00    +0.000 OA
BRANCH  27  30
ATOM     29  C   UNL     1       9.973  10.973  19.082  0.00  0.00    +0.000 C 
ATOM     30  O   UNL     1       9.273   9.749  19.301  0.00  0.00    +0.000 OA
ENDBRANCH  27  30
ENDBRANCH  26  27
ENDBRANCH  25  26
ENDBRANCH  19  25
ENDBRANCH  18  22
ENDBRANCH  17  18
ENDBRANCH   1  17
TORSDOF 14
ENDMDL
MODEL 8
REMARK VINA RESULT:      -6.4      3.321      4.938
REMARK  Name = 
REMARK  15 active torsions:
REMARK  status: ('A' for Active; 'I' for Inactive)
REMARK    1  A    between atoms: C_1  and  O_2
REMARK    2  A    between atoms: O_2  and  C_3
REMARK    3  A    between atoms: C_3  and  C_5
REMARK    4  A    between atoms: C_5  and  O_6
REMARK    5  A    between atoms: O_6  and  C_7
REMARK    6  A    between atoms: C_10  and  O_11
REMARK    7  A    between atoms: O_11  and  C_12
REMARK    8  A    between atoms: C_12  and  C_13
REMARK    9  A    between atoms: C_13  and  N_14
REMARK   10  A    between atoms: N_14  and  C_15
REMARK   11  A    between atoms: C_15  and  C_16
REMARK   12  A    between atoms: C_16  and  O_17
REMARK   13  A    between atoms: C_16  and  C_18
REMARK   14  A    between atoms: C_18  and  O_19
REMARK   15  A    between atoms: O_19  and  C_20
REMARK                            x       y       z     vdW  Elec       q    Type
REMARK                         _______ _______ _______ _____ _____    ______ ____
ROOT
ATOM      1  C   UNL     1       0.754   4.696  20.397  0.00  0.00    +0.000 C 
ENDROOT
BRANCH   1   2
ATOM      2  N   UNL     1       0.905   3.250  20.148  0.00  0.00    +0.000 NA
ATOM      3  H   UNL     1       0.055   2.742  20.396  0.00  0.00    +0.000 HD
BRANCH   2   4
ATOM      4  C   UNL     1       1.226   2.959  18.746  0.00  0.00    +0.000 C 
BRANCH   4   5
ATOM      5  C   UNL     1       2.708   2.608  18.517  0.00  0.00    +0.000 C 
BRANCH   5   6
ATOM      6  O   UNL     1       2.866   1.179  18.524  0.00  0.00    +0.000 OA
ATOM      7  H   UNL     1       2.084   0.795  18.955  0.00  0.00    +0.000 HD
ENDBRANCH   5   6
BRANCH   5   8
ATOM      8  C   UNL     1       3.129   3.217  17.164  0.00  0.00    +0.000 C 
BRANCH   8   9
ATOM      9  O   UNL     1       3.676   4.517  17.355  0.00  0.00    +0.000 OA
BRANCH   9  10
ATOM     10  C   UNL     1       5.033   4.611  17.540  0.00  0.00    +0.000 A 
ATOM     11  C   UNL     1       5.371   5.144  18.793  0.00  0.00    +0.000 A 
ATOM     12  C   UNL     1       6.698   5.417  19.131  0.00  0.00    +0.000 A 
ATOM     13  C   UNL     1       7.713   5.167  18.216  0.00  0.00    +0.000 A 
ATOM     14  C   UNL     1       7.396   4.634  16.968  0.00  0.00    +0.000 A 
ATOM     15  C   UNL     1       6.063   4.360  16.620  0.00  0.00    +0.000 A 
ATOM     16 CL   UNL     1       5.843   3.799  15.001  0.00  0.00    +0.000 Cl
ENDBRANCH   9  10
ENDBRANCH   8   9
ENDBRANCH   5   8
ENDBRANCH   4   5
ENDBRANCH   2   4
ENDBRANCH   1   2
BRANCH   1  17
ATOM     17  C   UNL     1       2.052   5.449  20.748  0.00  0.00    +0.000 C 
BRANCH  17  18
ATOM     18  O   UNL     1       2.422   6.272  19.642  0.00  0.00    +0.000 OA
BRANCH  18  22
ATOM     19  C   UNL     1       1.132  10.200  19.190  0.00  0.00    +0.000 A 
ATOM     20  C   UNL     1       1.736   9.489  18.155  0.00  0.00    +0.000 A 
ATOM     21  C   UNL     1       2.118   8.163  18.342  0.00  0.00    +0.000 A 
ATOM     22  C   UNL     1       1.934   7.543  19.578  0.00  0.00    +0.000 A 
ATOM     23  C   UNL     1       1.297   8.240  20.603  0.00  0.00    +0.000 A 
ATOM     24  C   UNL     1       0.896   9.569  20.410  0.00  0.00    +0.000 A 
BRANCH  19  25
ATOM     25  O   UNL     1       0.870  11.507  18.899  0.00  0.00    +0.000 OA
BRANCH  25  26
ATOM     26  C   UNL     1       1.988  12.346  18.648  0.00  0.00    +0.000 C 
BRANCH  26  27
ATOM     27  C   UNL     1       2.234  13.225  19.862  0.00  0.00    +0.000 C 
ATOM     28  O   UNL     1       2.082  12.903  21.032  0.00  0.00    +0.000 OA
BRANCH  27  30
ATOM     29  C   UNL     1       3.587  14.419  18.373  0.00  0.00    +0.000 C 
ATOM     30  O   UNL     1       2.647  14.467  19.446  0.00  0.00    +0.000 OA
ENDBRANCH  27  30
ENDBRANCH  26  27
ENDBRANCH  25  26
ENDBRANCH  19  25
ENDBRANCH  18  22
ENDBRANCH  17  18
ENDBRANCH   1  17
TORSDOF 14
ENDMDL
MODEL 9
REMARK VINA RESULT:      -6.4      6.727      8.558
REMARK  Name = 
REMARK  15 active torsions:
REMARK  status: ('A' for Active; 'I' for Inactive)
REMARK    1  A    between atoms: C_1  and  O_2
REMARK    2  A    between atoms: O_2  and  C_3
REMARK    3  A    between atoms: C_3  and  C_5
REMARK    4  A    between atoms: C_5  and  O_6
REMARK    5  A    between atoms: O_6  and  C_7
REMARK    6  A    between atoms: C_10  and  O_11
REMARK    7  A    between atoms: O_11  and  C_12
REMARK    8  A    between atoms: C_12  and  C_13
REMARK    9  A    between atoms: C_13  and  N_14
REMARK   10  A    between atoms: N_14  and  C_15
REMARK   11  A    between atoms: C_15  and  C_16
REMARK   12  A    between atoms: C_16  and  O_17
REMARK   13  A    between atoms: C_16  and  C_18
REMARK   14  A    between atoms: C_18  and  O_19
REMARK   15  A    between atoms: O_19  and  C_20
REMARK                            x       y       z     vdW  Elec       q    Type
REMARK                         _______ _______ _______ _____ _____    ______ ____
ROOT
ATOM      1  C   UNL     1       7.997   7.196  17.731  0.00  0.00    +0.000 C 
ENDROOT
BRANCH   1   2
ATOM      2  N   UNL     1       7.485   6.680  16.447  0.00  0.00    +0.000 NA
ATOM      3  H   UNL     1       8.230   6.246  15.901  0.00  0.00    +0.000 HD
BRANCH   2   4
ATOM      4  C   UNL     1       6.413   5.696  16.633  0.00  0.00    +0.000 C 
BRANCH   4   5
ATOM      5  C   UNL     1       5.638   5.876  17.952  0.00  0.00    +0.000 C 
BRANCH   5   6
ATOM      6  O   UNL     1       4.398   6.552  17.687  0.00  0.00    +0.000 OA
ATOM      7  H   UNL     1       3.955   6.087  16.958  0.00  0.00    +0.000 HD
ENDBRANCH   5   6
BRANCH   5   8
ATOM      8  C   UNL     1       5.402   4.474  18.551  0.00  0.00    +0.000 C 
BRANCH   8   9
ATOM      9  O   UNL     1       4.495   4.550  19.646  0.00  0.00    +0.000 OA
BRANCH   9  10
ATOM     10  C   UNL     1       3.307   3.871  19.530  0.00  0.00    +0.000 A 
ATOM     11  C   UNL     1       3.445   2.654  18.846  0.00  0.00    +0.000 A 
ATOM     12  C   UNL     1       2.335   1.867  18.533  0.00  0.00    +0.000 A 
ATOM     13  C   UNL     1       1.061   2.290  18.893  0.00  0.00    +0.000 A 
ATOM     14  C   UNL     1       0.906   3.495  19.575  0.00  0.00    +0.000 A 
ATOM     15  C   UNL     1       2.018   4.293  19.890  0.00  0.00    +0.000 A 
ATOM     16 CL   UNL     1       1.632   5.798  20.646  0.00  0.00    +0.000 Cl
ENDBRANCH   9  10
ENDBRANCH   8   9
ENDBRANCH   5   8
ENDBRANCH   4   5
ENDBRANCH   2   4
ENDBRANCH   1   2
BRANCH   1  17
ATOM     17  C   UNL     1       8.111   8.729  17.833  0.00  0.00    +0.000 C 
BRANCH  17  18
ATOM     18  O   UNL     1       8.752   9.064  19.064  0.00  0.00    +0.000 OA
BRANCH  18  22
ATOM     19  C   UNL     1      10.676  12.751  19.109  0.00  0.00    +0.000 A 
ATOM     20  C   UNL     1      10.270  12.135  17.927  0.00  0.00    +0.000 A 
ATOM     21  C   UNL     1       9.596  10.917  17.963  0.00  0.00    +0.000 A 
ATOM     22  C   UNL     1       9.351  10.282  19.182  0.00  0.00    +0.000 A 
ATOM     23  C   UNL     1       9.724  10.912  20.367  0.00  0.00    +0.000 A 
ATOM     24  C   UNL     1      10.387  12.146  20.331  0.00  0.00    +0.000 A 
BRANCH  19  25
ATOM     25  O   UNL     1      11.385  13.902  18.931  0.00  0.00    +0.000 OA
BRANCH  25  26
ATOM     26  C   UNL     1      10.838  15.088  19.489  0.00  0.00    +0.000 C 
BRANCH  26  27
ATOM     27  C   UNL     1      10.278  15.952  18.372  0.00  0.00    +0.000 C 
ATOM     28  O   UNL     1      10.573  15.884  17.187  0.00  0.00    +0.000 OA
BRANCH  27  30
ATOM     29  C   UNL     1       9.244  18.035  18.115  0.00  0.00    +0.000 C 
ATOM     30  O   UNL     1       9.383  16.850  18.900  0.00  0.00    +0.000 OA
ENDBRANCH  27  30
ENDBRANCH  26  27
ENDBRANCH  25  26
ENDBRANCH  19  25
ENDBRANCH  18  22
ENDBRANCH  17  18
ENDBRANCH   1  17
TORSDOF 14
ENDMDL
