MODEL 1
REMARK VINA RESULT:      -9.1      0.000      0.000
REMARK  Name = 
REMARK  5 active torsions:
REMARK  status: ('A' for Active; 'I' for Inactive)
REMARK    1  A    between atoms: C_1  and  C_2
REMARK    2  A    between atoms: C_4  and  C_5
REMARK    3  A    between atoms: N_7  and  C_8
REMARK    4  A    between atoms: C_8  and  C_9
REMARK    5  A    between atoms: C_12  and  C_13
REMARK                            x       y       z     vdW  Elec       q    Type
REMARK                         _______ _______ _______ _____ _____    ______ ____
ROOT
ATOM      1  C   UNL     1       2.829   4.856  18.648  0.00  0.00    +0.000 C 
ATOM      2  C   UNL     1       2.519   4.548  20.143  0.00  0.00    +0.000 C 
ATOM      3  C   UNL     1       1.083   4.124  20.464  0.00  0.00    +0.000 C 
ATOM      4  C   UNL     1       0.854   2.617  20.316  0.00  0.00    +0.000 C 
ATOM      5  C   UNL     1       0.781   2.099  18.885  0.00  0.00    +0.000 C 
ATOM      6  C   UNL     1       1.971   2.473  18.010  0.00  0.00    +0.000 C 
ATOM      7  C   UNL     1       1.998   3.965  17.678  0.00  0.00    +0.000 C 
ENDROOT
BRANCH   1   8
ATOM      8  C   UNL     1       4.330   4.643  18.414  0.00  0.00    +0.000 A 
ATOM      9  N   UNL     1       5.117   3.922  19.231  0.00  0.00    +0.000 NA
ATOM     10  O   UNL     1       6.404   4.365  18.898  0.00  0.00    +0.000 OA
ATOM     11  C   UNL     1       6.243   5.289  17.904  0.00  0.00    +0.000 A 
ATOM     12  N   UNL     1       5.012   5.366  17.467  0.00  0.00    +0.000 NA
BRANCH  11  13
ATOM     13  C   UNL     1       7.304   6.293  17.698  0.00  0.00    +0.000 C 
ATOM     14  C   UNL     1       6.712   7.636  17.315  0.00  0.00    +0.000 C 
ATOM     15  C   UNL     1       7.854   8.574  17.612  0.00  0.00    +0.000 C 
ATOM     16  O   UNL     1       8.581   8.008  18.712  0.00  0.00    +0.000 OA
ATOM     17  C   UNL     1       8.141   6.649  18.903  0.00  0.00    +0.000 C 
ENDBRANCH  11  13
ENDBRANCH   1   8
BRANCH   1  20
ATOM     18  C   UNL     1       2.277   7.223  19.338  0.00  0.00    +0.000 C 
ATOM     19  O   UNL     1       2.353   6.964  20.537  0.00  0.00    +0.000 OA
ATOM     20  N   UNL     1       2.525   6.295  18.347  0.00  0.00    +0.000 N 
ATOM     21  H   UNL     1       2.440   6.616  17.389  0.00  0.00    +0.000 HD
BRANCH  18  25
ATOM     22  C   UNL     1       0.498  11.913  19.132  0.00  0.00    +0.000 C 
ATOM     23  C   UNL     1       1.121  10.595  18.857  0.00  0.00    +0.000 A 
ATOM     24  N   UNL     1       1.177   9.528  19.637  0.00  0.00    +0.000 NA
ATOM     25  C   UNL     1       1.895   8.577  18.913  0.00  0.00    +0.000 A 
ATOM     26  C   UNL     1       2.247   9.103  17.684  0.00  0.00    +0.000 A 
ATOM     27  N   UNL     1       1.748  10.367  17.658  0.00  0.00    +0.000 N 
ATOM     28  H   UNL     1       1.841  11.030  16.901  0.00  0.00    +0.000 HD
ENDBRANCH  18  25
ENDBRANCH   1  20
TORSDOF 4
ENDMDL
MODEL 2
REMARK VINA RESULT:      -8.8      2.229      6.103
REMARK  Name = 
REMARK  5 active torsions:
REMARK  status: ('A' for Active; 'I' for Inactive)
REMARK    1  A    between atoms: C_1  and  C_2
REMARK    2  A    between atoms: C_4  and  C_5
REMARK    3  A    between atoms: N_7  and  C_8
REMARK    4  A    between atoms: C_8  and  C_9
REMARK    5  A    between atoms: C_12  and  C_13
REMARK                            x       y       z     vdW  Elec       q    Type
REMARK                         _______ _______ _______ _____ _____    ______ ____
ROOT
ATOM      1  C   UNL     1       2.781   5.460  18.681  0.00  0.00    +0.000 C 
ATOM      2  C   UNL     1       1.462   4.883  18.086  0.00  0.00    +0.000 C 
ATOM      3  C   UNL     1       1.338   3.356  18.066  0.00  0.00    +0.000 C 
ATOM      4  C   UNL     1       0.764   2.783  19.364  0.00  0.00    +0.000 C 
ATOM      5  C   UNL     1       1.712   2.780  20.558  0.00  0.00    +0.000 C 
ATOM      6  C   UNL     1       2.331   4.131  20.885  0.00  0.00    +0.000 C 
ATOM      7  C   UNL     1       3.346   4.573  19.830  0.00  0.00    +0.000 C 
ENDROOT
BRANCH   1   8
ATOM      8  C   UNL     1       2.499   6.878  19.192  0.00  0.00    +0.000 A 
ATOM      9  N   UNL     1       1.957   7.144  20.394  0.00  0.00    +0.000 NA
ATOM     10  O   UNL     1       1.486   8.455  20.243  0.00  0.00    +0.000 OA
ATOM     11  C   UNL     1       1.816   8.834  18.972  0.00  0.00    +0.000 A 
ATOM     12  N   UNL     1       2.578   7.964  18.357  0.00  0.00    +0.000 NA
BRANCH  11  13
ATOM     13  C   UNL     1       1.040   9.914  18.335  0.00  0.00    +0.000 C 
ATOM     14  C   UNL     1      -0.367   9.975  18.899  0.00  0.00    +0.000 C 
ATOM     15  C   UNL     1      -0.803  11.361  18.494  0.00  0.00    +0.000 C 
ATOM     16  O   UNL     1       0.375  12.180  18.485  0.00  0.00    +0.000 OA
ATOM     17  C   UNL     1       1.532  11.324  18.559  0.00  0.00    +0.000 C 
ENDBRANCH  11  13
ENDBRANCH   1   8
BRANCH   1  20
ATOM     18  C   UNL     1       4.615   4.498  17.234  0.00  0.00    +0.000 C 
ATOM     19  O   UNL     1       4.480   3.368  17.696  0.00  0.00    +0.000 OA
ATOM     20  N   UNL     1       3.825   5.566  17.608  0.00  0.00    +0.000 N 
ATOM     21  H   UNL     1       4.017   6.455  17.160  0.00  0.00    +0.000 HD
BRANCH  18  25
ATOM     22  C   UNL     1       7.326   4.800  13.020  0.00  0.00    +0.000 C 
ATOM     23  C   UNL     1       6.810   4.871  14.408  0.00  0.00    +0.000 A 
ATOM     24  N   UNL     1       5.677   4.388  14.896  0.00  0.00    +0.000 NA
ATOM     25  C   UNL     1       5.668   4.753  16.241  0.00  0.00    +0.000 A 
ATOM     26  C   UNL     1       6.826   5.448  16.538  0.00  0.00    +0.000 A 
ATOM     27  N   UNL     1       7.537   5.507  15.382  0.00  0.00    +0.000 N 
ATOM     28  H   UNL     1       8.432   5.959  15.254  0.00  0.00    +0.000 HD
ENDBRANCH  18  25
ENDBRANCH   1  20
TORSDOF 4
ENDMDL
MODEL 3
REMARK VINA RESULT:      -8.7      1.583      1.978
REMARK  Name = 
REMARK  5 active torsions:
REMARK  status: ('A' for Active; 'I' for Inactive)
REMARK    1  A    between atoms: C_1  and  C_2
REMARK    2  A    between atoms: C_4  and  C_5
REMARK    3  A    between atoms: N_7  and  C_8
REMARK    4  A    between atoms: C_8  and  C_9
REMARK    5  A    between atoms: C_12  and  C_13
REMARK                            x       y       z     vdW  Elec       q    Type
REMARK                         _______ _______ _______ _____ _____    ______ ____
ROOT
ATOM      1  C   UNL     1       2.762   4.992  18.771  0.00  0.00    +0.000 C 
ATOM      2  C   UNL     1       2.377   4.688  20.249  0.00  0.00    +0.000 C 
ATOM      3  C   UNL     1       0.931   4.245  20.495  0.00  0.00    +0.000 C 
ATOM      4  C   UNL     1       0.731   2.735  20.344  0.00  0.00    +0.000 C 
ATOM      5  C   UNL     1       0.742   2.209  18.914  0.00  0.00    +0.000 C 
ATOM      6  C   UNL     1       1.971   2.594  18.102  0.00  0.00    +0.000 C 
ATOM      7  C   UNL     1       1.996   4.085  17.763  0.00  0.00    +0.000 C 
ENDROOT
BRANCH   1   8
ATOM      8  C   UNL     1       4.276   4.799  18.618  0.00  0.00    +0.000 A 
ATOM      9  N   UNL     1       5.191   5.577  19.222  0.00  0.00    +0.000 NA
ATOM     10  O   UNL     1       6.350   5.338  18.471  0.00  0.00    +0.000 OA
ATOM     11  C   UNL     1       6.002   4.428  17.512  0.00  0.00    +0.000 A 
ATOM     12  N   UNL     1       4.793   3.951  17.670  0.00  0.00    +0.000 NA
BRANCH  11  13
ATOM     13  C   UNL     1       6.810   4.359  16.281  0.00  0.00    +0.000 C 
ATOM     14  C   UNL     1       5.957   3.955  15.094  0.00  0.00    +0.000 C 
ATOM     15  C   UNL     1       6.814   4.392  13.933  0.00  0.00    +0.000 C 
ATOM     16  O   UNL     1       7.549   5.544  14.370  0.00  0.00    +0.000 OA
ATOM     17  C   UNL     1       7.425   5.653  15.802  0.00  0.00    +0.000 C 
ENDBRANCH  11  13
ENDBRANCH   1   8
BRANCH   1  20
ATOM     18  C   UNL     1       2.168   7.362  19.418  0.00  0.00    +0.000 C 
ATOM     19  O   UNL     1       2.210   7.115  20.621  0.00  0.00    +0.000 OA
ATOM     20  N   UNL     1       2.455   6.426  18.445  0.00  0.00    +0.000 N 
ATOM     21  H   UNL     1       2.396   6.735  17.481  0.00  0.00    +0.000 HD
BRANCH  18  25
ATOM     22  C   UNL     1       0.399  12.050  19.124  0.00  0.00    +0.000 C 
ATOM     23  C   UNL     1       1.018  10.726  18.873  0.00  0.00    +0.000 A 
ATOM     24  N   UNL     1       1.075   9.674  19.675  0.00  0.00    +0.000 NA
ATOM     25  C   UNL     1       1.788   8.707  18.967  0.00  0.00    +0.000 A 
ATOM     26  C   UNL     1       2.135   9.208  17.725  0.00  0.00    +0.000 A 
ATOM     27  N   UNL     1       1.639  10.472  17.676  0.00  0.00    +0.000 N 
ATOM     28  H   UNL     1       1.730  11.119  16.906  0.00  0.00    +0.000 HD
ENDBRANCH  18  25
ENDBRANCH   1  20
TORSDOF 4
ENDMDL
MODEL 4
REMARK VINA RESULT:      -8.4      2.923      3.531
REMARK  Name = 
REMARK  5 active torsions:
REMARK  status: ('A' for Active; 'I' for Inactive)
REMARK    1  A    between atoms: C_1  and  C_2
REMARK    2  A    between atoms: C_4  and  C_5
REMARK    3  A    between atoms: N_7  and  C_8
REMARK    4  A    between atoms: C_8  and  C_9
REMARK    5  A    between atoms: C_12  and  C_13
REMARK                            x       y       z     vdW  Elec       q    Type
REMARK                         _______ _______ _______ _____ _____    ______ ____
ROOT
ATOM      1  C   UNL     1       4.094   5.137  18.137  0.00  0.00    +0.000 C 
ATOM      2  C   UNL     1       4.921   4.403  19.234  0.00  0.00    +0.000 C 
ATOM      3  C   UNL     1       4.154   3.404  20.105  0.00  0.00    +0.000 C 
ATOM      4  C   UNL     1       4.092   1.999  19.497  0.00  0.00    +0.000 C 
ATOM      5  C   UNL     1       3.143   1.834  18.317  0.00  0.00    +0.000 C 
ATOM      6  C   UNL     1       3.364   2.820  17.178  0.00  0.00    +0.000 C 
ATOM      7  C   UNL     1       2.957   4.244  17.558  0.00  0.00    +0.000 C 
ENDROOT
BRANCH   1   8
ATOM      8  C   UNL     1       5.052   5.570  17.020  0.00  0.00    +0.000 A 
ATOM      9  N   UNL     1       4.840   6.634  16.227  0.00  0.00    +0.000 NA
ATOM     10  O   UNL     1       5.677   6.381  15.131  0.00  0.00    +0.000 OA
ATOM     11  C   UNL     1       6.312   5.201  15.402  0.00  0.00    +0.000 A 
ATOM     12  N   UNL     1       6.084   4.760  16.613  0.00  0.00    +0.000 NA
BRANCH  11  13
ATOM     13  C   UNL     1       6.841   4.412  14.275  0.00  0.00    +0.000 C 
ATOM     14  C   UNL     1       5.717   3.756  13.496  0.00  0.00    +0.000 C 
ATOM     15  C   UNL     1       6.395   3.425  12.191  0.00  0.00    +0.000 C 
ATOM     16  O   UNL     1       7.390   4.435  11.973  0.00  0.00    +0.000 OA
ATOM     17  C   UNL     1       7.568   5.178  13.195  0.00  0.00    +0.000 C 
ENDBRANCH  11  13
ENDBRANCH   1   8
BRANCH   1  20
ATOM     18  C   UNL     1       2.344   6.350  19.497  0.00  0.00    +0.000 C 
ATOM     19  O   UNL     1       1.799   5.308  19.851  0.00  0.00    +0.000 OA
ATOM     20  N   UNL     1       3.475   6.381  18.707  0.00  0.00    +0.000 N 
ATOM     21  H   UNL     1       3.848   7.295  18.478  0.00  0.00    +0.000 HD
BRANCH  18  25
ATOM     22  C   UNL     1       0.307  10.132  22.095  0.00  0.00    +0.000 C 
ATOM     23  C   UNL     1       0.902   9.251  21.061  0.00  0.00    +0.000 A 
ATOM     24  N   UNL     1       1.241   7.975  21.156  0.00  0.00    +0.000 NA
ATOM     25  C   UNL     1       1.778   7.641  19.914  0.00  0.00    +0.000 A 
ATOM     26  C   UNL     1       1.733   8.743  19.080  0.00  0.00    +0.000 A 
ATOM     27  N   UNL     1       1.174   9.744  19.810  0.00  0.00    +0.000 N 
ATOM     28  H   UNL     1       1.009  10.691  19.496  0.00  0.00    +0.000 HD
ENDBRANCH  18  25
ENDBRANCH   1  20
TORSDOF 4
ENDMDL
MODEL 5
REMARK VINA RESULT:      -8.4      3.545      7.575
REMARK  Name = 
REMARK  5 active torsions:
REMARK  status: ('A' for Active; 'I' for Inactive)
REMARK    1  A    between atoms: C_1  and  C_2
REMARK    2  A    between atoms: C_4  and  C_5
REMARK    3  A    between atoms: N_7  and  C_8
REMARK    4  A    between atoms: C_8  and  C_9
REMARK    5  A    between atoms: C_12  and  C_13
REMARK                            x       y       z     vdW  Elec       q    Type
REMARK                         _______ _______ _______ _____ _____    ______ ____
ROOT
ATOM      1  C   UNL     1       5.269   5.161  16.807  0.00  0.00    +0.000 C 
ATOM      2  C   UNL     1       6.130   4.433  17.881  0.00  0.00    +0.000 C 
ATOM      3  C   UNL     1       7.639   4.693  17.831  0.00  0.00    +0.000 C 
ATOM      4  C   UNL     1       8.061   5.933  18.625  0.00  0.00    +0.000 C 
ATOM      5  C   UNL     1       7.718   7.273  17.986  0.00  0.00    +0.000 C 
ATOM      6  C   UNL     1       6.253   7.444  17.609  0.00  0.00    +0.000 C 
ATOM      7  C   UNL     1       5.851   6.556  16.431  0.00  0.00    +0.000 C 
ENDROOT
BRANCH   1   8
ATOM      8  C   UNL     1       3.843   5.308  17.351  0.00  0.00    +0.000 A 
ATOM      9  N   UNL     1       3.260   6.493  17.605  0.00  0.00    +0.000 NA
ATOM     10  O   UNL     1       2.212   6.148  18.468  0.00  0.00    +0.000 OA
ATOM     11  C   UNL     1       2.272   4.790  18.617  0.00  0.00    +0.000 A 
ATOM     12  N   UNL     1       3.147   4.224  17.825  0.00  0.00    +0.000 NA
BRANCH  11  13
ATOM     13  C   UNL     1       1.670   4.187  19.821  0.00  0.00    +0.000 C 
ATOM     14  C   UNL     1       1.892   2.687  19.845  0.00  0.00    +0.000 C 
ATOM     15  C   UNL     1       1.644   2.360  21.296  0.00  0.00    +0.000 C 
ATOM     16  O   UNL     1       2.053   3.507  22.055  0.00  0.00    +0.000 OA
ATOM     17  C   UNL     1       2.245   4.613  21.151  0.00  0.00    +0.000 C 
ENDBRANCH  11  13
ENDBRANCH   1   8
BRANCH   1  20
ATOM     18  C   UNL     1       6.043   4.518  14.488  0.00  0.00    +0.000 C 
ATOM     19  O   UNL     1       6.966   5.328  14.498  0.00  0.00    +0.000 OA
ATOM     20  N   UNL     1       5.193   4.328  15.559  0.00  0.00    +0.000 N 
ATOM     21  H   UNL     1       4.467   3.629  15.449  0.00  0.00    +0.000 HD
BRANCH  18  25
ATOM     22  C   UNL     1       6.371   1.166  10.766  0.00  0.00    +0.000 C 
ATOM     23  C   UNL     1       5.973   2.249  11.698  0.00  0.00    +0.000 A 
ATOM     24  N   UNL     1       6.629   2.720  12.747  0.00  0.00    +0.000 NA
ATOM     25  C   UNL     1       5.804   3.706  13.287  0.00  0.00    +0.000 A 
ATOM     26  C   UNL     1       4.656   3.815  12.524  0.00  0.00    +0.000 A 
ATOM     27  N   UNL     1       4.778   2.901  11.526  0.00  0.00    +0.000 N 
ATOM     28  H   UNL     1       4.101   2.717  10.799  0.00  0.00    +0.000 HD
ENDBRANCH  18  25
ENDBRANCH   1  20
TORSDOF 4
ENDMDL
MODEL 6
REMARK VINA RESULT:      -8.3      3.379      7.342
REMARK  Name = 
REMARK  5 active torsions:
REMARK  status: ('A' for Active; 'I' for Inactive)
REMARK    1  A    between atoms: C_1  and  C_2
REMARK    2  A    between atoms: C_4  and  C_5
REMARK    3  A    between atoms: N_7  and  C_8
REMARK    4  A    between atoms: C_8  and  C_9
REMARK    5  A    between atoms: C_12  and  C_13
REMARK                            x       y       z     vdW  Elec       q    Type
REMARK                         _______ _______ _______ _____ _____    ______ ____
ROOT
ATOM      1  C   UNL     1       5.196   5.325  16.900  0.00  0.00    +0.000 C 
ATOM      2  C   UNL     1       6.038   4.479  17.900  0.00  0.00    +0.000 C 
ATOM      3  C   UNL     1       7.560   4.631  17.803  0.00  0.00    +0.000 C 
ATOM      4  C   UNL     1       8.103   5.792  18.641  0.00  0.00    +0.000 C 
ATOM      5  C   UNL     1       7.838   7.186  18.084  0.00  0.00    +0.000 C 
ATOM      6  C   UNL     1       6.377   7.484  17.777  0.00  0.00    +0.000 C 
ATOM      7  C   UNL     1       5.866   6.692  16.572  0.00  0.00    +0.000 C 
ENDROOT
BRANCH   1   8
ATOM      8  C   UNL     1       3.805   5.547  17.509  0.00  0.00    +0.000 A 
ATOM      9  N   UNL     1       3.334   6.752  17.871  0.00  0.00    +0.000 NA
ATOM     10  O   UNL     1       2.288   6.430  18.746  0.00  0.00    +0.000 OA
ATOM     11  C   UNL     1       2.239   5.065  18.794  0.00  0.00    +0.000 A 
ATOM     12  N   UNL     1       3.036   4.490  17.929  0.00  0.00    +0.000 NA
BRANCH  11  13
ATOM     13  C   UNL     1       1.627   4.423  19.973  0.00  0.00    +0.000 C 
ATOM     14  C   UNL     1       1.623   2.913  19.828  0.00  0.00    +0.000 C 
ATOM     15  C   UNL     1       1.418   2.466  21.253  0.00  0.00    +0.000 C 
ATOM     16  O   UNL     1       2.039   3.452  22.091  0.00  0.00    +0.000 OA
ATOM     17  C   UNL     1       2.338   4.613  21.291  0.00  0.00    +0.000 C 
ENDBRANCH  11  13
ENDBRANCH   1   8
BRANCH   1  20
ATOM     18  C   UNL     1       5.922   4.631  14.581  0.00  0.00    +0.000 C 
ATOM     19  O   UNL     1       6.981   5.249  14.655  0.00  0.00    +0.000 OA
ATOM     20  N   UNL     1       5.011   4.568  15.616  0.00  0.00    +0.000 N 
ATOM     21  H   UNL     1       4.171   4.025  15.454  0.00  0.00    +0.000 HD
BRANCH  18  25
ATOM     22  C   UNL     1       3.589   2.840  10.514  0.00  0.00    +0.000 C 
ATOM     23  C   UNL     1       4.549   3.171  11.594  0.00  0.00    +0.000 A 
ATOM     24  N   UNL     1       4.355   3.907  12.677  0.00  0.00    +0.000 NA
ATOM     25  C   UNL     1       5.581   3.923  13.340  0.00  0.00    +0.000 A 
ATOM     26  C   UNL     1       6.498   3.168  12.632  0.00  0.00    +0.000 A 
ATOM     27  N   UNL     1       5.835   2.695  11.543  0.00  0.00    +0.000 N 
ATOM     28  H   UNL     1       6.225   2.116  10.813  0.00  0.00    +0.000 HD
ENDBRANCH  18  25
ENDBRANCH   1  20
TORSDOF 4
ENDMDL
MODEL 7
REMARK VINA RESULT:      -8.2      2.017      2.504
REMARK  Name = 
REMARK  5 active torsions:
REMARK  status: ('A' for Active; 'I' for Inactive)
REMARK    1  A    between atoms: C_1  and  C_2
REMARK    2  A    between atoms: C_4  and  C_5
REMARK    3  A    between atoms: N_7  and  C_8
REMARK    4  A    between atoms: C_8  and  C_9
REMARK    5  A    between atoms: C_12  and  C_13
REMARK                            x       y       z     vdW  Elec       q    Type
REMARK                         _______ _______ _______ _____ _____    ______ ____
ROOT
ATOM      1  C   UNL     1       2.554   5.102  18.498  0.00  0.00    +0.000 C 
ATOM      2  C   UNL     1       2.623   4.807  20.025  0.00  0.00    +0.000 C 
ATOM      3  C   UNL     1       1.326   4.320  20.681  0.00  0.00    +0.000 C 
ATOM      4  C   UNL     1       1.146   2.802  20.601  0.00  0.00    +0.000 C 
ATOM      5  C   UNL     1       0.763   2.256  19.230  0.00  0.00    +0.000 C 
ATOM      6  C   UNL     1       1.691   2.670  18.096  0.00  0.00    +0.000 C 
ATOM      7  C   UNL     1       1.563   4.156  17.758  0.00  0.00    +0.000 C 
ENDROOT
BRANCH   1   8
ATOM      8  C   UNL     1       3.965   4.957  17.915  0.00  0.00    +0.000 A 
ATOM      9  N   UNL     1       5.045   5.587  18.410  0.00  0.00    +0.000 NA
ATOM     10  O   UNL     1       5.957   5.528  17.348  0.00  0.00    +0.000 OA
ATOM     11  C   UNL     1       5.327   4.851  16.342  0.00  0.00    +0.000 A 
ATOM     12  N   UNL     1       4.176   4.344  16.705  0.00  0.00    +0.000 NA
BRANCH  11  13
ATOM     13  C   UNL     1       5.786   5.062  14.957  0.00  0.00    +0.000 C 
ATOM     14  C   UNL     1       7.297   5.178  14.898  0.00  0.00    +0.000 C 
ATOM     15  C   UNL     1       7.572   4.916  13.439  0.00  0.00    +0.000 C 
ATOM     16  O   UNL     1       6.558   4.010  12.983  0.00  0.00    +0.000 OA
ATOM     17  C   UNL     1       5.517   3.944  13.977  0.00  0.00    +0.000 C 
ENDBRANCH  11  13
ENDBRANCH   1   8
BRANCH   1  20
ATOM     18  C   UNL     1       2.172   7.483  19.256  0.00  0.00    +0.000 C 
ATOM     19  O   UNL     1       2.649   7.276  20.369  0.00  0.00    +0.000 OA
ATOM     20  N   UNL     1       2.114   6.520  18.268  0.00  0.00    +0.000 N 
ATOM     21  H   UNL     1       1.707   6.798  17.383  0.00  0.00    +0.000 HD
BRANCH  18  25
ATOM     22  C   UNL     1      -0.277  11.863  19.369  0.00  0.00    +0.000 C 
ATOM     23  C   UNL     1       0.556  10.688  19.018  0.00  0.00    +0.000 A 
ATOM     24  N   UNL     1       0.717   9.557  19.688  0.00  0.00    +0.000 NA
ATOM     25  C   UNL     1       1.622   8.807  18.938  0.00  0.00    +0.000 A 
ATOM     26  C   UNL     1       1.979   9.515  17.804  0.00  0.00    +0.000 A 
ATOM     27  N   UNL     1       1.297  10.689  17.863  0.00  0.00    +0.000 N 
ATOM     28  H   UNL     1       1.343  11.440  17.188  0.00  0.00    +0.000 HD
ENDBRANCH  18  25
ENDBRANCH   1  20
TORSDOF 4
ENDMDL
MODEL 8
REMARK VINA RESULT:      -8.2      2.283      6.235
REMARK  Name = 
REMARK  5 active torsions:
REMARK  status: ('A' for Active; 'I' for Inactive)
REMARK    1  A    between atoms: C_1  and  C_2
REMARK    2  A    between atoms: C_4  and  C_5
REMARK    3  A    between atoms: N_7  and  C_8
REMARK    4  A    between atoms: C_8  and  C_9
REMARK    5  A    between atoms: C_12  and  C_13
REMARK                            x       y       z     vdW  Elec       q    Type
REMARK                         _______ _______ _______ _____ _____    ______ ____
ROOT
ATOM      1  C   UNL     1       2.627   5.587  18.499  0.00  0.00    +0.000 C 
ATOM      2  C   UNL     1       1.423   4.697  18.071  0.00  0.00    +0.000 C 
ATOM      3  C   UNL     1       1.471   3.232  18.518  0.00  0.00    +0.000 C 
ATOM      4  C   UNL     1       0.881   3.009  19.913  0.00  0.00    +0.000 C 
ATOM      5  C   UNL     1       1.742   3.485  21.076  0.00  0.00    +0.000 C 
ATOM      6  C   UNL     1       2.184   4.939  20.990  0.00  0.00    +0.000 C 
ATOM      7  C   UNL     1       3.211   5.167  19.880  0.00  0.00    +0.000 C 
ENDROOT
BRANCH   1   8
ATOM      8  C   UNL     1       2.156   7.047  18.541  0.00  0.00    +0.000 A 
ATOM      9  N   UNL     1       2.749   8.042  17.860  0.00  0.00    +0.000 NA
ATOM     10  O   UNL     1       2.299   9.190  18.526  0.00  0.00    +0.000 OA
ATOM     11  C   UNL     1       1.470   8.752  19.521  0.00  0.00    +0.000 A 
ATOM     12  N   UNL     1       1.226   7.468  19.460  0.00  0.00    +0.000 NA
BRANCH  11  13
ATOM     13  C   UNL     1       1.252   9.625  20.689  0.00  0.00    +0.000 C 
ATOM     14  C   UNL     1      -0.171  10.148  20.718  0.00  0.00    +0.000 C 
ATOM     15  C   UNL     1      -0.311  10.589  22.153  0.00  0.00    +0.000 C 
ATOM     16  O   UNL     1       0.516   9.718  22.936  0.00  0.00    +0.000 OA
ATOM     17  C   UNL     1       1.378   8.979  22.049  0.00  0.00    +0.000 C 
ENDBRANCH  11  13
ENDBRANCH   1   8
BRANCH   1  20
ATOM     18  C   UNL     1       4.687   4.511  17.508  0.00  0.00    +0.000 C 
ATOM     19  O   UNL     1       4.687   3.597  18.329  0.00  0.00    +0.000 OA
ATOM     20  N   UNL     1       3.721   5.497  17.475  0.00  0.00    +0.000 N 
ATOM     21  H   UNL     1       3.812   6.201  16.752  0.00  0.00    +0.000 HD
BRANCH  18  25
ATOM     22  C   UNL     1       7.324   4.890  13.253  0.00  0.00    +0.000 C 
ATOM     23  C   UNL     1       6.868   4.755  14.658  0.00  0.00    +0.000 A 
ATOM     24  N   UNL     1       5.632   4.667  15.122  0.00  0.00    +0.000 NA
ATOM     25  C   UNL     1       5.761   4.587  16.508  0.00  0.00    +0.000 A 
ATOM     26  C   UNL     1       7.101   4.613  16.848  0.00  0.00    +0.000 A 
ATOM     27  N   UNL     1       7.785   4.711  15.678  0.00  0.00    +0.000 N 
ATOM     28  H   UNL     1       8.789   4.765  15.576  0.00  0.00    +0.000 HD
ENDBRANCH  18  25
ENDBRANCH   1  20
TORSDOF 4
ENDMDL
MODEL 9
REMARK VINA RESULT:      -7.9      1.774      2.278
REMARK  Name = 
REMARK  5 active torsions:
REMARK  status: ('A' for Active; 'I' for Inactive)
REMARK    1  A    between atoms: C_1  and  C_2
REMARK    2  A    between atoms: C_4  and  C_5
REMARK    3  A    between atoms: N_7  and  C_8
REMARK    4  A    between atoms: C_8  and  C_9
REMARK    5  A    between atoms: C_12  and  C_13
REMARK                            x       y       z     vdW  Elec       q    Type
REMARK                         _______ _______ _______ _____ _____    ______ ____
ROOT
ATOM      1  C   UNL     1       2.778   5.104  19.251  0.00  0.00    +0.000 C 
ATOM      2  C   UNL     1       2.478   4.368  20.591  0.00  0.00    +0.000 C 
ATOM      3  C   UNL     1       1.073   3.777  20.740  0.00  0.00    +0.000 C 
ATOM      4  C   UNL     1       0.953   2.361  20.170  0.00  0.00    +0.000 C 
ATOM      5  C   UNL     1       0.929   2.263  18.649  0.00  0.00    +0.000 C 
ATOM      6  C   UNL     1       2.095   2.945  17.948  0.00  0.00    +0.000 C 
ATOM      7  C   UNL     1       2.020   4.469  18.048  0.00  0.00    +0.000 C 
ENDROOT
BRANCH   1   8
ATOM      8  C   UNL     1       4.292   5.064  19.008  0.00  0.00    +0.000 A 
ATOM      9  N   UNL     1       5.129   6.055  19.360  0.00  0.00    +0.000 NA
ATOM     10  O   UNL     1       6.261   5.803  18.573  0.00  0.00    +0.000 OA
ATOM     11  C   UNL     1       5.981   4.677  17.852  0.00  0.00    +0.000 A 
ATOM     12  N   UNL     1       4.859   4.103  18.208  0.00  0.00    +0.000 NA
BRANCH  11  13
ATOM     13  C   UNL     1       6.714   4.446  16.593  0.00  0.00    +0.000 C 
ATOM     14  C   UNL     1       5.784   3.938  15.509  0.00  0.00    +0.000 C 
ATOM     15  C   UNL     1       6.581   4.216  14.260  0.00  0.00    +0.000 C 
ATOM     16  O   UNL     1       7.367   5.387  14.523  0.00  0.00    +0.000 OA
ATOM     17  C   UNL     1       7.330   5.659  15.938  0.00  0.00    +0.000 C 
ENDBRANCH  11  13
ENDBRANCH   1   8
BRANCH   1  20
ATOM     18  C   UNL     1       2.410   7.407  18.278  0.00  0.00    +0.000 C 
ATOM     19  O   UNL     1       2.703   7.046  17.140  0.00  0.00    +0.000 OA
ATOM     20  N   UNL     1       2.375   6.547  19.357  0.00  0.00    +0.000 N 
ATOM     21  H   UNL     1       2.115   6.946  20.251  0.00  0.00    +0.000 HD
BRANCH  18  25
ATOM     22  C   UNL     1       2.018  12.405  18.026  0.00  0.00    +0.000 C 
ATOM     23  C   UNL     1       1.934  10.970  18.393  0.00  0.00    +0.000 A 
ATOM     24  N   UNL     1       2.519   9.933  17.815  0.00  0.00    +0.000 NA
ATOM     25  C   UNL     1       2.086   8.817  18.530  0.00  0.00    +0.000 A 
ATOM     26  C   UNL     1       1.246   9.222  19.551  0.00  0.00    +0.000 A 
ATOM     27  N   UNL     1       1.165  10.575  19.458  0.00  0.00    +0.000 N 
ATOM     28  H   UNL     1       0.619  11.183  20.053  0.00  0.00    +0.000 HD
ENDBRANCH  18  25
ENDBRANCH   1  20
TORSDOF 4
ENDMDL
