MODEL 1
REMARK VINA RESULT:      -6.5      0.000      0.000
REMARK  Name = 
REMARK  13 active torsions:
REMARK  status: ('A' for Active; 'I' for Inactive)
REMARK    1  A    between atoms: C_1  and  C_2
REMARK    2  A    between atoms: C_2  and  C_3
REMARK    3  A    between atoms: C_2  and  C_4
REMARK    4  A    between atoms: C_4  and  C_5
REMARK    5  A    between atoms: C_5  and  C_6
REMARK    6  A    between atoms: C_6  and  C_7
REMARK    7  A    between atoms: C_7  and  C_8
REMARK    8  A    between atoms: C_7  and  C_9
REMARK    9  A    between atoms: C_18  and  O_19
REMARK   10  A    between atoms: O_19  and  C_20
REMARK   11  A    between atoms: C_20  and  S_22
REMARK   12  A    between atoms: C_25  and  C_26
REMARK   13  A    between atoms: C_30  and  C_31
REMARK                            x       y       z     vdW  Elec       q    Type
REMARK                         _______ _______ _______ _____ _____    ______ ____
ROOT
ATOM      1  C   UNL     1       4.117   5.849  17.963  0.00  0.00    +0.000 C 
ATOM      2  C   UNL     1       4.243   6.785  16.724  0.00  0.00    +0.000 C 
ATOM      3  C   UNL     1       3.224   7.918  16.893  0.00  0.00    +0.000 C 
ATOM      4  C   UNL     1       2.896   7.877  18.375  0.00  0.00    +0.000 C 
ATOM      5  C   UNL     1       1.649   8.613  18.872  0.00  0.00    +0.000 C 
ATOM      6  C   UNL     1       1.625  10.092  18.460  0.00  0.00    +0.000 C 
ATOM      7  C   UNL     1       0.424  10.832  19.051  0.00  0.00    +0.000 C 
ATOM      8  C   UNL     1       0.353  10.658  20.575  0.00  0.00    +0.000 C 
ATOM      9  C   UNL     1      -0.778  11.491  21.186  0.00  0.00    +0.000 C 
ATOM     10  C   UNL     1      -0.792  11.394  22.717  0.00  0.00    +0.000 C 
ATOM     11  C   UNL     1      -0.809   9.943  23.197  0.00  0.00    +0.000 C 
ATOM     12  C   UNL     1       0.294   9.104  22.557  0.00  0.00    +0.000 C 
ATOM     13  C   UNL     1       0.287   9.160  21.004  0.00  0.00    +0.000 C 
ATOM     14  C   UNL     1      -1.006   8.466  20.497  0.00  0.00    +0.000 C 
ATOM     15  C   UNL     1       1.565   8.458  20.423  0.00  0.00    +0.000 C 
ATOM     16  C   UNL     1       1.747   6.999  20.907  0.00  0.00    +0.000 C 
ATOM     17  C   UNL     1       2.900   6.252  20.226  0.00  0.00    +0.000 C 
ATOM     18  C   UNL     1       2.836   6.359  18.692  0.00  0.00    +0.000 C 
ATOM     19  C   UNL     1       1.554   5.683  18.136  0.00  0.00    +0.000 C 
ENDROOT
BRANCH   1  20
ATOM     20  C   UNL     1       4.202   4.336  17.583  0.00  0.00    +0.000 C 
ATOM     21  C   UNL     1       4.529   3.452  18.797  0.00  0.00    +0.000 C 
BRANCH  20  22
ATOM     22  C   UNL     1       5.264   4.115  16.478  0.00  0.00    +0.000 C 
BRANCH  22  23
ATOM     23  C   UNL     1       6.708   4.306  16.964  0.00  0.00    +0.000 C 
BRANCH  23  24
ATOM     24  C   UNL     1       7.199   5.731  16.706  0.00  0.00    +0.000 C 
BRANCH  24  26
ATOM     25  C   UNL     1       7.737   7.887  17.858  0.00  0.00    +0.000 C 
ATOM     26  C   UNL     1       7.906   6.368  17.917  0.00  0.00    +0.000 C 
ATOM     27  C   UNL     1       7.383   5.841  19.255  0.00  0.00    +0.000 C 
ENDBRANCH  24  26
ENDBRANCH  23  24
ENDBRANCH  22  23
ENDBRANCH  20  22
ENDBRANCH   1  20
BRANCH  10  28
ATOM     28  O   UNL     1      -2.000  12.068  23.151  0.00  0.00    +0.000 OA
BRANCH  28  29
ATOM     29  C   UNL     1      -2.236  13.405  23.085  0.00  0.00    +0.000 C 
ATOM     30  S   UNL     1      -1.078  14.564  23.397  0.00  0.00    +0.000 S 
BRANCH  29  31
ATOM     31  S   UNL     1      -3.874  13.830  22.628  0.00  0.00    +0.000 S 
ATOM     32  H   UNL     1      -3.614  15.133  22.464  0.00  0.00    +0.000 HD
ENDBRANCH  29  31
ENDBRANCH  28  29
ENDBRANCH  10  28
TORSDOF 8
ENDMDL
MODEL 2
REMARK VINA RESULT:      -6.4      4.073     10.802
REMARK  Name = 
REMARK  13 active torsions:
REMARK  status: ('A' for Active; 'I' for Inactive)
REMARK    1  A    between atoms: C_1  and  C_2
REMARK    2  A    between atoms: C_2  and  C_3
REMARK    3  A    between atoms: C_2  and  C_4
REMARK    4  A    between atoms: C_4  and  C_5
REMARK    5  A    between atoms: C_5  and  C_6
REMARK    6  A    between atoms: C_6  and  C_7
REMARK    7  A    between atoms: C_7  and  C_8
REMARK    8  A    between atoms: C_7  and  C_9
REMARK    9  A    between atoms: C_18  and  O_19
REMARK   10  A    between atoms: O_19  and  C_20
REMARK   11  A    between atoms: C_20  and  S_22
REMARK   12  A    between atoms: C_25  and  C_26
REMARK   13  A    between atoms: C_30  and  C_31
REMARK                            x       y       z     vdW  Elec       q    Type
REMARK                         _______ _______ _______ _____ _____    ______ ____
ROOT
ATOM      1  C   UNL     1      -2.295  14.970  22.487  0.00  0.00    +0.000 C 
ATOM      2  C   UNL     1      -2.581  14.231  23.828  0.00  0.00    +0.000 C 
ATOM      3  C   UNL     1      -2.222  12.754  23.629  0.00  0.00    +0.000 C 
ATOM      4  C   UNL     1      -1.329  12.772  22.402  0.00  0.00    +0.000 C 
ATOM      5  C   UNL     1      -1.060  11.454  21.669  0.00  0.00    +0.000 C 
ATOM      6  C   UNL     1      -0.508  10.359  22.594  0.00  0.00    +0.000 C 
ATOM      7  C   UNL     1      -0.151   9.086  21.827  0.00  0.00    +0.000 C 
ATOM      8  C   UNL     1       0.800   9.385  20.658  0.00  0.00    +0.000 C 
ATOM      9  C   UNL     1       1.253   8.101  19.957  0.00  0.00    +0.000 C 
ATOM     10  C   UNL     1       2.275   8.387  18.851  0.00  0.00    +0.000 C 
ATOM     11  C   UNL     1       1.772   9.443  17.867  0.00  0.00    +0.000 C 
ATOM     12  C   UNL     1       1.283  10.708  18.569  0.00  0.00    +0.000 C 
ATOM     13  C   UNL     1       0.212  10.430  19.661  0.00  0.00    +0.000 C 
ATOM     14  C   UNL     1      -1.073   9.911  18.962  0.00  0.00    +0.000 C 
ATOM     15  C   UNL     1      -0.084  11.734  20.483  0.00  0.00    +0.000 C 
ATOM     16  C   UNL     1      -0.510  12.938  19.607  0.00  0.00    +0.000 C 
ATOM     17  C   UNL     1      -0.954  14.168  20.407  0.00  0.00    +0.000 C 
ATOM     18  C   UNL     1      -2.005  13.819  21.476  0.00  0.00    +0.000 C 
ATOM     19  C   UNL     1      -3.310  13.286  20.825  0.00  0.00    +0.000 C 
ENDROOT
BRANCH   1  20
ATOM     20  C   UNL     1      -3.402  16.011  22.128  0.00  0.00    +0.000 C 
ATOM     21  C   UNL     1      -2.820  17.412  21.875  0.00  0.00    +0.000 C 
BRANCH  20  22
ATOM     22  C   UNL     1      -4.461  16.085  23.255  0.00  0.00    +0.000 C 
BRANCH  22  23
ATOM     23  C   UNL     1      -5.897  15.845  22.769  0.00  0.00    +0.000 C 
BRANCH  23  24
ATOM     24  C   UNL     1      -6.718  15.084  23.811  0.00  0.00    +0.000 C 
BRANCH  24  26
ATOM     25  C   UNL     1      -6.841  13.411  21.953  0.00  0.00    +0.000 C 
ATOM     26  C   UNL     1      -6.921  13.595  23.469  0.00  0.00    +0.000 C 
ATOM     27  C   UNL     1      -5.902  12.684  24.155  0.00  0.00    +0.000 C 
ENDBRANCH  24  26
ENDBRANCH  23  24
ENDBRANCH  22  23
ENDBRANCH  20  22
ENDBRANCH   1  20
BRANCH  10  28
ATOM     28  O   UNL     1       2.481   7.131  18.157  0.00  0.00    +0.000 OA
BRANCH  28  29
ATOM     29  C   UNL     1       3.638   6.419  18.121  0.00  0.00    +0.000 C 
ATOM     30  S   UNL     1       4.791   6.589  16.928  0.00  0.00    +0.000 S 
BRANCH  29  31
ATOM     31  S   UNL     1       3.840   5.296  19.452  0.00  0.00    +0.000 S 
ATOM     32  H   UNL     1       3.986   4.217  18.672  0.00  0.00    +0.000 HD
ENDBRANCH  29  31
ENDBRANCH  28  29
ENDBRANCH  10  28
TORSDOF 8
ENDMDL
MODEL 3
REMARK VINA RESULT:      -6.3      4.153     10.275
REMARK  Name = 
REMARK  13 active torsions:
REMARK  status: ('A' for Active; 'I' for Inactive)
REMARK    1  A    between atoms: C_1  and  C_2
REMARK    2  A    between atoms: C_2  and  C_3
REMARK    3  A    between atoms: C_2  and  C_4
REMARK    4  A    between atoms: C_4  and  C_5
REMARK    5  A    between atoms: C_5  and  C_6
REMARK    6  A    between atoms: C_6  and  C_7
REMARK    7  A    between atoms: C_7  and  C_8
REMARK    8  A    between atoms: C_7  and  C_9
REMARK    9  A    between atoms: C_18  and  O_19
REMARK   10  A    between atoms: O_19  and  C_20
REMARK   11  A    between atoms: C_20  and  S_22
REMARK   12  A    between atoms: C_25  and  C_26
REMARK   13  A    between atoms: C_30  and  C_31
REMARK                            x       y       z     vdW  Elec       q    Type
REMARK                         _______ _______ _______ _____ _____    ______ ____
ROOT
ATOM      1  C   UNL     1      -1.044  14.646  21.821  0.00  0.00    +0.000 C 
ATOM      2  C   UNL     1      -1.436  14.005  23.185  0.00  0.00    +0.000 C 
ATOM      3  C   UNL     1      -1.246  12.489  23.057  0.00  0.00    +0.000 C 
ATOM      4  C   UNL     1      -0.336  12.350  21.850  0.00  0.00    +0.000 C 
ATOM      5  C   UNL     1      -0.208  10.978  21.181  0.00  0.00    +0.000 C 
ATOM      6  C   UNL     1       0.199   9.870  22.163  0.00  0.00    +0.000 C 
ATOM      7  C   UNL     1       0.419   8.532  21.458  0.00  0.00    +0.000 C 
ATOM      8  C   UNL     1       1.418   8.667  20.299  0.00  0.00    +0.000 C 
ATOM      9  C   UNL     1       1.732   7.310  19.663  0.00  0.00    +0.000 C 
ATOM     10  C   UNL     1       2.800   7.427  18.569  0.00  0.00    +0.000 C 
ATOM     11  C   UNL     1       2.438   8.489  17.531  0.00  0.00    +0.000 C 
ATOM     12  C   UNL     1       2.086   9.832  18.168  0.00  0.00    +0.000 C 
ATOM     13  C   UNL     1       0.972   9.727  19.246  0.00  0.00    +0.000 C 
ATOM     14  C   UNL     1      -0.353   9.327  18.542  0.00  0.00    +0.000 C 
ATOM     15  C   UNL     1       0.813  11.092  20.005  0.00  0.00    +0.000 C 
ATOM     16  C   UNL     1       0.545  12.296  19.070  0.00  0.00    +0.000 C 
ATOM     17  C   UNL     1       0.231  13.603  19.807  0.00  0.00    +0.000 C 
ATOM     18  C   UNL     1      -0.871  13.425  20.866  0.00  0.00    +0.000 C 
ATOM     19  C   UNL     1      -2.217  13.016  20.210  0.00  0.00    +0.000 C 
ENDROOT
BRANCH   1  20
ATOM     20  C   UNL     1      -2.017  15.790  21.393  0.00  0.00    +0.000 C 
ATOM     21  C   UNL     1      -1.269  17.084  21.034  0.00  0.00    +0.000 C 
BRANCH  20  22
ATOM     22  C   UNL     1      -3.041  16.077  22.519  0.00  0.00    +0.000 C 
BRANCH  22  23
ATOM     23  C   UNL     1      -4.499  15.833  22.105  0.00  0.00    +0.000 C 
BRANCH  23  24
ATOM     24  C   UNL     1      -5.211  14.907  23.092  0.00  0.00    +0.000 C 
BRANCH  24  26
ATOM     25  C   UNL     1      -4.842  12.704  24.222  0.00  0.00    +0.000 C 
ATOM     26  C   UNL     1      -4.904  13.414  22.869  0.00  0.00    +0.000 C 
ATOM     27  C   UNL     1      -5.932  12.724  21.969  0.00  0.00    +0.000 C 
ENDBRANCH  24  26
ENDBRANCH  23  24
ENDBRANCH  22  23
ENDBRANCH  20  22
ENDBRANCH   1  20
BRANCH  10  28
ATOM     28  O   UNL     1       2.871   6.126  17.934  0.00  0.00    +0.000 OA
BRANCH  28  29
ATOM     29  C   UNL     1       3.989   5.366  17.796  0.00  0.00    +0.000 C 
ATOM     30  S   UNL     1       5.026   5.476  16.494  0.00  0.00    +0.000 S 
BRANCH  29  31
ATOM     31  S   UNL     1       4.273   4.248  19.116  0.00  0.00    +0.000 S 
ATOM     32  H   UNL     1       5.602   4.415  19.125  0.00  0.00    +0.000 HD
ENDBRANCH  29  31
ENDBRANCH  28  29
ENDBRANCH  10  28
TORSDOF 8
ENDMDL
MODEL 4
REMARK VINA RESULT:      -6.3      1.364      2.809
REMARK  Name = 
REMARK  13 active torsions:
REMARK  status: ('A' for Active; 'I' for Inactive)
REMARK    1  A    between atoms: C_1  and  C_2
REMARK    2  A    between atoms: C_2  and  C_3
REMARK    3  A    between atoms: C_2  and  C_4
REMARK    4  A    between atoms: C_4  and  C_5
REMARK    5  A    between atoms: C_5  and  C_6
REMARK    6  A    between atoms: C_6  and  C_7
REMARK    7  A    between atoms: C_7  and  C_8
REMARK    8  A    between atoms: C_7  and  C_9
REMARK    9  A    between atoms: C_18  and  O_19
REMARK   10  A    between atoms: O_19  and  C_20
REMARK   11  A    between atoms: C_20  and  S_22
REMARK   12  A    between atoms: C_25  and  C_26
REMARK   13  A    between atoms: C_30  and  C_31
REMARK                            x       y       z     vdW  Elec       q    Type
REMARK                         _______ _______ _______ _____ _____    ______ ____
ROOT
ATOM      1  C   UNL     1       4.221   5.609  17.872  0.00  0.00    +0.000 C 
ATOM      2  C   UNL     1       4.428   6.551  16.649  0.00  0.00    +0.000 C 
ATOM      3  C   UNL     1       3.460   7.730  16.803  0.00  0.00    +0.000 C 
ATOM      4  C   UNL     1       3.088   7.689  18.274  0.00  0.00    +0.000 C 
ATOM      5  C   UNL     1       1.863   8.478  18.745  0.00  0.00    +0.000 C 
ATOM      6  C   UNL     1       1.921   9.961  18.351  0.00  0.00    +0.000 C 
ATOM      7  C   UNL     1       0.741  10.752  18.915  0.00  0.00    +0.000 C 
ATOM      8  C   UNL     1       0.618  10.566  20.435  0.00  0.00    +0.000 C 
ATOM      9  C   UNL     1      -0.490  11.445  21.024  0.00  0.00    +0.000 C 
ATOM     10  C   UNL     1      -0.553  11.333  22.552  0.00  0.00    +0.000 C 
ATOM     11  C   UNL     1      -0.653   9.879  23.014  0.00  0.00    +0.000 C 
ATOM     12  C   UNL     1       0.427   8.995  22.395  0.00  0.00    +0.000 C 
ATOM     13  C   UNL     1       0.467   9.068  20.844  0.00  0.00    +0.000 C 
ATOM     14  C   UNL     1      -0.842   8.442  20.292  0.00  0.00    +0.000 C 
ATOM     15  C   UNL     1       1.727   8.311  20.291  0.00  0.00    +0.000 C 
ATOM     16  C   UNL     1       1.825   6.839  20.762  0.00  0.00    +0.000 C 
ATOM     17  C   UNL     1       2.960   6.046  20.105  0.00  0.00    +0.000 C 
ATOM     18  C   UNL     1       2.946   6.172  18.571  0.00  0.00    +0.000 C 
ATOM     19  C   UNL     1       1.649   5.565  17.971  0.00  0.00    +0.000 C 
ENDROOT
BRANCH   1  20
ATOM     20  C   UNL     1       4.244   4.098  17.477  0.00  0.00    +0.000 C 
ATOM     21  C   UNL     1       5.015   3.853  16.170  0.00  0.00    +0.000 C 
BRANCH  20  22
ATOM     22  C   UNL     1       2.801   3.554  17.338  0.00  0.00    +0.000 C 
BRANCH  22  23
ATOM     23  C   UNL     1       2.631   2.118  17.853  0.00  0.00    +0.000 C 
BRANCH  23  24
ATOM     24  C   UNL     1       1.769   2.077  19.116  0.00  0.00    +0.000 C 
BRANCH  24  26
ATOM     25  C   UNL     1       1.502   2.633  21.542  0.00  0.00    +0.000 C 
ATOM     26  C   UNL     1       2.402   2.804  20.318  0.00  0.00    +0.000 C 
ATOM     27  C   UNL     1       3.812   2.303  20.640  0.00  0.00    +0.000 C 
ENDBRANCH  24  26
ENDBRANCH  23  24
ENDBRANCH  22  23
ENDBRANCH  20  22
ENDBRANCH   1  20
BRANCH  10  28
ATOM     28  O   UNL     1      -1.739  12.059  22.960  0.00  0.00    +0.000 OA
BRANCH  28  29
ATOM     29  C   UNL     1      -2.067  13.325  22.590  0.00  0.00    +0.000 C 
ATOM     30  S   UNL     1      -1.124  14.659  22.927  0.00  0.00    +0.000 S 
BRANCH  29  31
ATOM     31  S   UNL     1      -3.574  13.454  21.704  0.00  0.00    +0.000 S 
ATOM     32  H   UNL     1      -3.478  12.245  21.135  0.00  0.00    +0.000 HD
ENDBRANCH  29  31
ENDBRANCH  28  29
ENDBRANCH  10  28
TORSDOF 8
ENDMDL
MODEL 5
REMARK VINA RESULT:      -6.2      4.081     10.547
REMARK  Name = 
REMARK  13 active torsions:
REMARK  status: ('A' for Active; 'I' for Inactive)
REMARK    1  A    between atoms: C_1  and  C_2
REMARK    2  A    between atoms: C_2  and  C_3
REMARK    3  A    between atoms: C_2  and  C_4
REMARK    4  A    between atoms: C_4  and  C_5
REMARK    5  A    between atoms: C_5  and  C_6
REMARK    6  A    between atoms: C_6  and  C_7
REMARK    7  A    between atoms: C_7  and  C_8
REMARK    8  A    between atoms: C_7  and  C_9
REMARK    9  A    between atoms: C_18  and  O_19
REMARK   10  A    between atoms: O_19  and  C_20
REMARK   11  A    between atoms: C_20  and  S_22
REMARK   12  A    between atoms: C_25  and  C_26
REMARK   13  A    between atoms: C_30  and  C_31
REMARK                            x       y       z     vdW  Elec       q    Type
REMARK                         _______ _______ _______ _____ _____    ______ ____
ROOT
ATOM      1  C   UNL     1      -1.996  14.615  22.255  0.00  0.00    +0.000 C 
ATOM      2  C   UNL     1      -2.426  13.814  23.519  0.00  0.00    +0.000 C 
ATOM      3  C   UNL     1      -2.113  12.336  23.261  0.00  0.00    +0.000 C 
ATOM      4  C   UNL     1      -1.119  12.383  22.114  0.00  0.00    +0.000 C 
ATOM      5  C   UNL     1      -0.843  11.099  21.327  0.00  0.00    +0.000 C 
ATOM      6  C   UNL     1      -0.417   9.928  22.226  0.00  0.00    +0.000 C 
ATOM      7  C   UNL     1      -0.049   8.686  21.414  0.00  0.00    +0.000 C 
ATOM      8  C   UNL     1       1.010   9.007  20.348  0.00  0.00    +0.000 C 
ATOM      9  C   UNL     1       1.467   7.746  19.609  0.00  0.00    +0.000 C 
ATOM     10  C   UNL     1       2.591   8.048  18.611  0.00  0.00    +0.000 C 
ATOM     11  C   UNL     1       2.218   9.182  17.656  0.00  0.00    +0.000 C 
ATOM     12  C   UNL     1       1.723  10.425  18.392  0.00  0.00    +0.000 C 
ATOM     13  C   UNL     1       0.553  10.135  19.372  0.00  0.00    +0.000 C 
ATOM     14  C   UNL     1      -0.689   9.717  18.539  0.00  0.00    +0.000 C 
ATOM     15  C   UNL     1       0.241  11.401  20.245  0.00  0.00    +0.000 C 
ATOM     16  C   UNL     1      -0.057  12.673  19.413  0.00  0.00    +0.000 C 
ATOM     17  C   UNL     1      -0.517  13.873  20.248  0.00  0.00    +0.000 C 
ATOM     18  C   UNL     1      -1.669  13.512  21.203  0.00  0.00    +0.000 C 
ATOM     19  C   UNL     1      -2.935  13.079  20.414  0.00  0.00    +0.000 C 
ENDROOT
BRANCH   1  20
ATOM     20  C   UNL     1      -3.025  15.726  21.870  0.00  0.00    +0.000 C 
ATOM     21  C   UNL     1      -2.346  16.947  21.229  0.00  0.00    +0.000 C 
BRANCH  20  22
ATOM     22  C   UNL     1      -3.829  16.174  23.116  0.00  0.00    +0.000 C 
BRANCH  22  23
ATOM     23  C   UNL     1      -5.351  16.091  22.930  0.00  0.00    +0.000 C 
BRANCH  23  24
ATOM     24  C   UNL     1      -5.727  15.062  21.863  0.00  0.00    +0.000 C 
BRANCH  24  26
ATOM     25  C   UNL     1      -6.224  12.610  21.782  0.00  0.00    +0.000 C 
ATOM     26  C   UNL     1      -6.657  13.949  22.381  0.00  0.00    +0.000 C 
ATOM     27  C   UNL     1      -6.674  13.851  23.908  0.00  0.00    +0.000 C 
ENDBRANCH  24  26
ENDBRANCH  23  24
ENDBRANCH  22  23
ENDBRANCH  20  22
ENDBRANCH   1  20
BRANCH  10  28
ATOM     28  O   UNL     1       2.803   6.826  17.861  0.00  0.00    +0.000 OA
BRANCH  28  29
ATOM     29  C   UNL     1       3.026   5.594  18.389  0.00  0.00    +0.000 C 
ATOM     30  S   UNL     1       4.325   5.231  19.371  0.00  0.00    +0.000 S 
BRANCH  29  31
ATOM     31  S   UNL     1       1.820   4.394  17.965  0.00  0.00    +0.000 S 
ATOM     32  H   UNL     1       1.353   4.255  19.213  0.00  0.00    +0.000 HD
ENDBRANCH  29  31
ENDBRANCH  28  29
ENDBRANCH  10  28
TORSDOF 8
ENDMDL
MODEL 6
REMARK VINA RESULT:      -6.2      1.329      2.938
REMARK  Name = 
REMARK  13 active torsions:
REMARK  status: ('A' for Active; 'I' for Inactive)
REMARK    1  A    between atoms: C_1  and  C_2
REMARK    2  A    between atoms: C_2  and  C_3
REMARK    3  A    between atoms: C_2  and  C_4
REMARK    4  A    between atoms: C_4  and  C_5
REMARK    5  A    between atoms: C_5  and  C_6
REMARK    6  A    between atoms: C_6  and  C_7
REMARK    7  A    between atoms: C_7  and  C_8
REMARK    8  A    between atoms: C_7  and  C_9
REMARK    9  A    between atoms: C_18  and  O_19
REMARK   10  A    between atoms: O_19  and  C_20
REMARK   11  A    between atoms: C_20  and  S_22
REMARK   12  A    between atoms: C_25  and  C_26
REMARK   13  A    between atoms: C_30  and  C_31
REMARK                            x       y       z     vdW  Elec       q    Type
REMARK                         _______ _______ _______ _____ _____    ______ ____
ROOT
ATOM      1  C   UNL     1       4.331   5.711  17.816  0.00  0.00    +0.000 C 
ATOM      2  C   UNL     1       4.472   6.649  16.580  0.00  0.00    +0.000 C 
ATOM      3  C   UNL     1       3.456   7.785  16.740  0.00  0.00    +0.000 C 
ATOM      4  C   UNL     1       3.114   7.743  18.218  0.00  0.00    +0.000 C 
ATOM      5  C   UNL     1       1.864   8.483  18.705  0.00  0.00    +0.000 C 
ATOM      6  C   UNL     1       1.849   9.963  18.295  0.00  0.00    +0.000 C 
ATOM      7  C   UNL     1       0.646  10.706  18.875  0.00  0.00    +0.000 C 
ATOM      8  C   UNL     1       0.560  10.531  20.398  0.00  0.00    +0.000 C 
ATOM      9  C   UNL     1      -0.574  11.367  21.000  0.00  0.00    +0.000 C 
ATOM     10  C   UNL     1      -0.603  11.269  22.530  0.00  0.00    +0.000 C 
ATOM     11  C   UNL     1      -0.629   9.818  23.008  0.00  0.00    +0.000 C 
ATOM     12  C   UNL     1       0.477   8.975  22.378  0.00  0.00    +0.000 C 
ATOM     13  C   UNL     1       0.484   9.033  20.825  0.00  0.00    +0.000 C 
ATOM     14  C   UNL     1      -0.806   8.344  20.305  0.00  0.00    +0.000 C 
ATOM     15  C   UNL     1       1.765   8.327  20.255  0.00  0.00    +0.000 C 
ATOM     16  C   UNL     1       1.938   6.866  20.739  0.00  0.00    +0.000 C 
ATOM     17  C   UNL     1       3.094   6.117  20.068  0.00  0.00    +0.000 C 
ATOM     18  C   UNL     1       3.046   6.226  18.534  0.00  0.00    +0.000 C 
ATOM     19  C   UNL     1       1.766   5.555  17.965  0.00  0.00    +0.000 C 
ENDROOT
BRANCH   1  20
ATOM     20  C   UNL     1       4.414   4.199  17.435  0.00  0.00    +0.000 C 
ATOM     21  C   UNL     1       5.183   3.973  16.123  0.00  0.00    +0.000 C 
BRANCH  20  22
ATOM     22  C   UNL     1       2.993   3.594  17.315  0.00  0.00    +0.000 C 
BRANCH  22  23
ATOM     23  C   UNL     1       2.871   2.184  17.912  0.00  0.00    +0.000 C 
BRANCH  23  24
ATOM     24  C   UNL     1       1.606   2.047  18.760  0.00  0.00    +0.000 C 
BRANCH  24  26
ATOM     25  C   UNL     1       3.345   2.467  20.511  0.00  0.00    +0.000 C 
ATOM     26  C   UNL     1       1.855   2.221  20.270  0.00  0.00    +0.000 C 
ATOM     27  C   UNL     1       1.038   3.363  20.879  0.00  0.00    +0.000 C 
ENDBRANCH  24  26
ENDBRANCH  23  24
ENDBRANCH  22  23
ENDBRANCH  20  22
ENDBRANCH   1  20
BRANCH  10  28
ATOM     28  O   UNL     1      -1.812  11.946  22.954  0.00  0.00    +0.000 OA
BRANCH  28  29
ATOM     29  C   UNL     1      -2.160  13.224  22.648  0.00  0.00    +0.000 C 
ATOM     30  S   UNL     1      -3.507  13.625  21.749  0.00  0.00    +0.000 S 
BRANCH  29  31
ATOM     31  S   UNL     1      -1.077  14.443  23.290  0.00  0.00    +0.000 S 
ATOM     32  H   UNL     1      -1.479  14.299  24.560  0.00  0.00    +0.000 HD
ENDBRANCH  29  31
ENDBRANCH  28  29
ENDBRANCH  10  28
TORSDOF 8
ENDMDL
MODEL 7
REMARK VINA RESULT:      -6.1      4.883      9.834
REMARK  Name = 
REMARK  13 active torsions:
REMARK  status: ('A' for Active; 'I' for Inactive)
REMARK    1  A    between atoms: C_1  and  C_2
REMARK    2  A    between atoms: C_2  and  C_3
REMARK    3  A    between atoms: C_2  and  C_4
REMARK    4  A    between atoms: C_4  and  C_5
REMARK    5  A    between atoms: C_5  and  C_6
REMARK    6  A    between atoms: C_6  and  C_7
REMARK    7  A    between atoms: C_7  and  C_8
REMARK    8  A    between atoms: C_7  and  C_9
REMARK    9  A    between atoms: C_18  and  O_19
REMARK   10  A    between atoms: O_19  and  C_20
REMARK   11  A    between atoms: C_20  and  S_22
REMARK   12  A    between atoms: C_25  and  C_26
REMARK   13  A    between atoms: C_30  and  C_31
REMARK                            x       y       z     vdW  Elec       q    Type
REMARK                         _______ _______ _______ _____ _____    ______ ____
ROOT
ATOM      1  C   UNL     1      -0.588  12.246  20.957  0.00  0.00    +0.000 C 
ATOM      2  C   UNL     1      -1.035  11.489  22.242  0.00  0.00    +0.000 C 
ATOM      3  C   UNL     1      -0.611  10.023  22.089  0.00  0.00    +0.000 C 
ATOM      4  C   UNL     1       0.441  10.075  20.995  0.00  0.00    +0.000 C 
ATOM      5  C   UNL     1       0.844   8.771  20.302  0.00  0.00    +0.000 C 
ATOM      6  C   UNL     1       1.294   7.684  21.289  0.00  0.00    +0.000 C 
ATOM      7  C   UNL     1       1.788   6.427  20.573  0.00  0.00    +0.000 C 
ATOM      8  C   UNL     1       2.882   6.760  19.547  0.00  0.00    +0.000 C 
ATOM      9  C   UNL     1       3.463   5.494  18.910  0.00  0.00    +0.000 C 
ATOM     10  C   UNL     1       4.619   5.817  17.956  0.00  0.00    +0.000 C 
ATOM     11  C   UNL     1       4.227   6.867  16.917  0.00  0.00    +0.000 C 
ATOM     12  C   UNL     1       3.611   8.112  17.551  0.00  0.00    +0.000 C 
ATOM     13  C   UNL     1       2.408   7.798  18.483  0.00  0.00    +0.000 C 
ATOM     14  C   UNL     1       1.246   7.249  17.612  0.00  0.00    +0.000 C 
ATOM     15  C   UNL     1       1.966   9.086  19.262  0.00  0.00    +0.000 C 
ATOM     16  C   UNL     1       1.632  10.286  18.341  0.00  0.00    +0.000 C 
ATOM     17  C   UNL     1       1.048  11.497  19.078  0.00  0.00    +0.000 C 
ATOM     18  C   UNL     1      -0.130  11.111  19.990  0.00  0.00    +0.000 C 
ATOM     19  C   UNL     1      -1.318  10.549  19.163  0.00  0.00    +0.000 C 
ENDROOT
BRANCH   1  20
ATOM     20  C   UNL     1      -1.664  13.260  20.452  0.00  0.00    +0.000 C 
ATOM     21  C   UNL     1      -1.069  14.654  20.193  0.00  0.00    +0.000 C 
BRANCH  20  22
ATOM     22  C   UNL     1      -2.822  13.372  21.475  0.00  0.00    +0.000 C 
BRANCH  22  23
ATOM     23  C   UNL     1      -4.031  12.488  21.136  0.00  0.00    +0.000 C 
BRANCH  23  24
ATOM     24  C   UNL     1      -4.342  12.520  19.639  0.00  0.00    +0.000 C 
BRANCH  24  26
ATOM     25  C   UNL     1      -6.013  11.589  18.024  0.00  0.00    +0.000 C 
ATOM     26  C   UNL     1      -5.843  12.386  19.319  0.00  0.00    +0.000 C 
ATOM     27  C   UNL     1      -6.633  11.717  20.445  0.00  0.00    +0.000 C 
ENDBRANCH  24  26
ENDBRANCH  23  24
ENDBRANCH  22  23
ENDBRANCH  20  22
ENDBRANCH   1  20
BRANCH  10  28
ATOM     28  O   UNL     1       4.952   4.572  17.292  0.00  0.00    +0.000 OA
BRANCH  28  29
ATOM     29  C   UNL     1       6.094   4.318  16.599  0.00  0.00    +0.000 C 
ATOM     30  S   UNL     1       6.117   3.824  15.006  0.00  0.00    +0.000 S 
BRANCH  29  31
ATOM     31  S   UNL     1       7.568   4.565  17.515  0.00  0.00    +0.000 S 
ATOM     32  H   UNL     1       8.056   3.340  17.282  0.00  0.00    +0.000 HD
ENDBRANCH  29  31
ENDBRANCH  28  29
ENDBRANCH  10  28
TORSDOF 8
ENDMDL
MODEL 8
REMARK VINA RESULT:      -6.0      0.480      1.098
REMARK  Name = 
REMARK  13 active torsions:
REMARK  status: ('A' for Active; 'I' for Inactive)
REMARK    1  A    between atoms: C_1  and  C_2
REMARK    2  A    between atoms: C_2  and  C_3
REMARK    3  A    between atoms: C_2  and  C_4
REMARK    4  A    between atoms: C_4  and  C_5
REMARK    5  A    between atoms: C_5  and  C_6
REMARK    6  A    between atoms: C_6  and  C_7
REMARK    7  A    between atoms: C_7  and  C_8
REMARK    8  A    between atoms: C_7  and  C_9
REMARK    9  A    between atoms: C_18  and  O_19
REMARK   10  A    between atoms: O_19  and  C_20
REMARK   11  A    between atoms: C_20  and  S_22
REMARK   12  A    between atoms: C_25  and  C_26
REMARK   13  A    between atoms: C_30  and  C_31
REMARK                            x       y       z     vdW  Elec       q    Type
REMARK                         _______ _______ _______ _____ _____    ______ ____
ROOT
ATOM      1  C   UNL     1       4.210   5.654  17.766  0.00  0.00    +0.000 C 
ATOM      2  C   UNL     1       4.317   6.604  16.536  0.00  0.00    +0.000 C 
ATOM      3  C   UNL     1       3.308   7.740  16.738  0.00  0.00    +0.000 C 
ATOM      4  C   UNL     1       3.009   7.683  18.226  0.00  0.00    +0.000 C 
ATOM      5  C   UNL     1       1.776   8.420  18.756  0.00  0.00    +0.000 C 
ATOM      6  C   UNL     1       1.752   9.904  18.363  0.00  0.00    +0.000 C 
ATOM      7  C   UNL     1       0.567  10.643  18.985  0.00  0.00    +0.000 C 
ATOM      8  C   UNL     1       0.525  10.452  20.509  0.00  0.00    +0.000 C 
ATOM      9  C   UNL     1      -0.589  11.283  21.152  0.00  0.00    +0.000 C 
ATOM     10  C   UNL     1      -0.573  11.169  22.681  0.00  0.00    +0.000 C 
ATOM     11  C   UNL     1      -0.589   9.712  23.145  0.00  0.00    +0.000 C 
ATOM     12  C   UNL     1       0.497   8.875  22.473  0.00  0.00    +0.000 C 
ATOM     13  C   UNL     1       0.459   8.949  20.921  0.00  0.00    +0.000 C 
ATOM     14  C   UNL     1      -0.847   8.268  20.432  0.00  0.00    +0.000 C 
ATOM     15  C   UNL     1       1.721   8.247  20.307  0.00  0.00    +0.000 C 
ATOM     16  C   UNL     1       1.905   6.781  20.770  0.00  0.00    +0.000 C 
ATOM     17  C   UNL     1       3.039   6.036  20.057  0.00  0.00    +0.000 C 
ATOM     18  C   UNL     1       2.947   6.162  18.526  0.00  0.00    +0.000 C 
ATOM     19  C   UNL     1       1.649   5.500  17.988  0.00  0.00    +0.000 C 
ENDROOT
BRANCH   1  20
ATOM     20  C   UNL     1       4.278   4.145  17.367  0.00  0.00    +0.000 C 
ATOM     21  C   UNL     1       4.414   3.227  18.593  0.00  0.00    +0.000 C 
BRANCH  20  22
ATOM     22  C   UNL     1       5.461   3.895  16.398  0.00  0.00    +0.000 C 
BRANCH  22  23
ATOM     23  C   UNL     1       6.558   4.966  16.476  0.00  0.00    +0.000 C 
BRANCH  23  24
ATOM     24  C   UNL     1       7.463   4.751  17.690  0.00  0.00    +0.000 C 
BRANCH  24  26
ATOM     25  C   UNL     1       8.290   5.554  19.911  0.00  0.00    +0.000 C 
ATOM     26  C   UNL     1       7.413   5.905  18.709  0.00  0.00    +0.000 C 
ATOM     27  C   UNL     1       7.862   7.242  18.114  0.00  0.00    +0.000 C 
ENDBRANCH  24  26
ENDBRANCH  23  24
ENDBRANCH  22  23
ENDBRANCH  20  22
ENDBRANCH   1  20
BRANCH  10  28
ATOM     28  O   UNL     1      -1.768  11.843  23.147  0.00  0.00    +0.000 OA
BRANCH  28  29
ATOM     29  C   UNL     1      -2.172  13.091  22.789  0.00  0.00    +0.000 C 
ATOM     30  S   UNL     1      -3.527  13.394  21.865  0.00  0.00    +0.000 S 
BRANCH  29  31
ATOM     31  S   UNL     1      -1.151  14.383  23.390  0.00  0.00    +0.000 S 
ATOM     32  H   UNL     1      -2.106  15.321  23.333  0.00  0.00    +0.000 HD
ENDBRANCH  29  31
ENDBRANCH  28  29
ENDBRANCH  10  28
TORSDOF 8
ENDMDL
MODEL 9
REMARK VINA RESULT:      -6.0      1.355      2.902
REMARK  Name = 
REMARK  13 active torsions:
REMARK  status: ('A' for Active; 'I' for Inactive)
REMARK    1  A    between atoms: C_1  and  C_2
REMARK    2  A    between atoms: C_2  and  C_3
REMARK    3  A    between atoms: C_2  and  C_4
REMARK    4  A    between atoms: C_4  and  C_5
REMARK    5  A    between atoms: C_5  and  C_6
REMARK    6  A    between atoms: C_6  and  C_7
REMARK    7  A    between atoms: C_7  and  C_8
REMARK    8  A    between atoms: C_7  and  C_9
REMARK    9  A    between atoms: C_18  and  O_19
REMARK   10  A    between atoms: O_19  and  C_20
REMARK   11  A    between atoms: C_20  and  S_22
REMARK   12  A    between atoms: C_25  and  C_26
REMARK   13  A    between atoms: C_30  and  C_31
REMARK                            x       y       z     vdW  Elec       q    Type
REMARK                         _______ _______ _______ _____ _____    ______ ____
ROOT
ATOM      1  C   UNL     1       4.398   5.785  17.830  0.00  0.00    +0.000 C 
ATOM      2  C   UNL     1       4.471   6.690  16.565  0.00  0.00    +0.000 C 
ATOM      3  C   UNL     1       3.410   7.786  16.716  0.00  0.00    +0.000 C 
ATOM      4  C   UNL     1       3.102   7.773  18.202  0.00  0.00    +0.000 C 
ATOM      5  C   UNL     1       1.832   8.472  18.696  0.00  0.00    +0.000 C 
ATOM      6  C   UNL     1       1.743   9.937  18.244  0.00  0.00    +0.000 C 
ATOM      7  C   UNL     1       0.520  10.645  18.830  0.00  0.00    +0.000 C 
ATOM      8  C   UNL     1       0.475  10.511  20.360  0.00  0.00    +0.000 C 
ATOM      9  C   UNL     1      -0.681  11.314  20.962  0.00  0.00    +0.000 C 
ATOM     10  C   UNL     1      -0.673  11.261  22.495  0.00  0.00    +0.000 C 
ATOM     11  C   UNL     1      -0.625   9.824  23.015  0.00  0.00    +0.000 C 
ATOM     12  C   UNL     1       0.503   9.012  22.384  0.00  0.00    +0.000 C 
ATOM     13  C   UNL     1       0.475   9.024  20.830  0.00  0.00    +0.000 C 
ATOM     14  C   UNL     1      -0.795   8.265  20.360  0.00  0.00    +0.000 C 
ATOM     15  C   UNL     1       1.773   8.358  20.252  0.00  0.00    +0.000 C 
ATOM     16  C   UNL     1       2.020   6.921  20.774  0.00  0.00    +0.000 C 
ATOM     17  C   UNL     1       3.193   6.203  20.098  0.00  0.00    +0.000 C 
ATOM     18  C   UNL     1       3.107   6.264  18.562  0.00  0.00    +0.000 C 
ATOM     19  C   UNL     1       1.846   5.522  18.043  0.00  0.00    +0.000 C 
ENDROOT
BRANCH   1  20
ATOM     20  C   UNL     1       4.539   4.267  17.491  0.00  0.00    +0.000 C 
ATOM     21  C   UNL     1       3.254   3.689  16.876  0.00  0.00    +0.000 C 
BRANCH  20  22
ATOM     22  C   UNL     1       4.913   3.462  18.761  0.00  0.00    +0.000 C 
BRANCH  22  23
ATOM     23  C   UNL     1       3.916   2.345  19.099  0.00  0.00    +0.000 C 
BRANCH  23  24
ATOM     24  C   UNL     1       3.228   2.600  20.442  0.00  0.00    +0.000 C 
BRANCH  24  26
ATOM     25  C   UNL     1       0.984   3.431  21.176  0.00  0.00    +0.000 C 
ATOM     26  C   UNL     1       1.714   2.319  20.422  0.00  0.00    +0.000 C 
ATOM     27  C   UNL     1       1.150   2.201  19.004  0.00  0.00    +0.000 C 
ENDBRANCH  24  26
ENDBRANCH  23  24
ENDBRANCH  22  23
ENDBRANCH  20  22
ENDBRANCH   1  20
BRANCH  10  28
ATOM     28  O   UNL     1      -1.901  11.897  22.927  0.00  0.00    +0.000 OA
BRANCH  28  29
ATOM     29  C   UNL     1      -2.041  13.200  23.289  0.00  0.00    +0.000 C 
ATOM     30  S   UNL     1      -0.876  14.363  23.020  0.00  0.00    +0.000 S 
BRANCH  29  31
ATOM     31  S   UNL     1      -3.568  13.578  24.062  0.00  0.00    +0.000 S 
ATOM     32  H   UNL     1      -3.529  14.882  23.762  0.00  0.00    +0.000 HD
ENDBRANCH  29  31
ENDBRANCH  28  29
ENDBRANCH  10  28
TORSDOF 8
ENDMDL
