MODEL 1
REMARK VINA RESULT:      -6.2      0.000      0.000
REMARK  Name = 
REMARK  12 active torsions:
REMARK  status: ('A' for Active; 'I' for Inactive)
REMARK    1  A    between atoms: C_1  and  O_2
REMARK    2  A    between atoms: O_2  and  C_3
REMARK    3  A    between atoms: C_6  and  C_7
REMARK    4  A    between atoms: C_8  and  C_9
REMARK    5  A    between atoms: C_9  and  O_11
REMARK    6  A    between atoms: C_13  and  S_14
REMARK    7  A    between atoms: S_14  and  C_15
REMARK    8  A    between atoms: C_15  and  C_16
REMARK    9  A    between atoms: C_15  and  C_17
REMARK   10  A    between atoms: C_18  and  C_19
REMARK   11  A    between atoms: C_22  and  O_23
REMARK   12  A    between atoms: O_23  and  C_24
REMARK                            x       y       z     vdW  Elec       q    Type
REMARK                         _______ _______ _______ _____ _____    ______ ____
ROOT
ATOM      1  C   UNL     1       3.578   5.465  18.764  0.00  0.00    +0.000 A 
ATOM      2  C   UNL     1       3.445   4.530  19.790  0.00  0.00    +0.000 A 
ATOM      3  S   UNL     1       2.196   4.960  20.886  0.00  0.00    +0.000 S 
ATOM      4  C   UNL     1       1.809   6.386  20.031  0.00  0.00    +0.000 A 
ATOM      5  C   UNL     1       2.652   6.568  18.953  0.00  0.00    +0.000 A 
ENDROOT
BRANCH   1   9
ATOM      6  C   UNL     1       6.481   5.298  15.585  0.00  0.00    +0.000 A 
ATOM      7  C   UNL     1       5.340   4.486  15.563  0.00  0.00    +0.000 A 
ATOM      8  C   UNL     1       4.411   4.514  16.611  0.00  0.00    +0.000 A 
ATOM      9  C   UNL     1       4.604   5.362  17.701  0.00  0.00    +0.000 A 
ATOM     10  C   UNL     1       5.781   6.117  17.748  0.00  0.00    +0.000 A 
ATOM     11  C   UNL     1       6.738   6.076  16.720  0.00  0.00    +0.000 A 
BRANCH   6  13
ATOM     12  C   UNL     1       6.972   4.514  13.412  0.00  0.00    +0.000 C 
ATOM     13  O   UNL     1       7.353   5.316  14.529  0.00  0.00    +0.000 OA
ENDBRANCH   6  13
BRANCH  11  14
ATOM     14  O   UNL     1       7.814   6.872  17.002  0.00  0.00    +0.000 OA
ATOM     15  C   UNL     1       7.605   8.161  17.555  0.00  0.00    +0.000 C 
ENDBRANCH  11  14
ENDBRANCH   1   9
BRANCH   2  16
ATOM     16  C   UNL     1       4.154   3.281  20.035  0.00  0.00    +0.000 C 
ATOM     17  O   UNL     1       5.295   3.020  19.688  0.00  0.00    +0.000 OA
BRANCH  16  18
ATOM     18  O   UNL     1       3.420   2.400  20.771  0.00  0.00    +0.000 OA
ATOM     19  H   UNL     1       3.798   1.501  20.760  0.00  0.00    +0.000 HD
ENDBRANCH  16  18
ENDBRANCH   2  16
BRANCH   5  20
ATOM     20  C   UNL     1       2.606   7.746  18.135  0.00  0.00    +0.000 C 
ATOM     21  N   UNL     1       2.585   8.686  17.458  0.00  0.00    +0.000 NA
ENDBRANCH   5  20
BRANCH   4  22
ATOM     22  S   UNL     1       0.538   7.433  20.668  0.00  0.00    +0.000 S 
BRANCH  22  23
ATOM     23  C   UNL     1       1.411   8.988  21.082  0.00  0.00    +0.000 C 
ATOM     24  C   UNL     1       0.848  10.194  20.332  0.00  0.00    +0.000 C 
ATOM     25  C   UNL     1       1.276   9.213  22.590  0.00  0.00    +0.000 C 
ENDBRANCH  22  23
ENDBRANCH   4  22
TORSDOF 8
ENDMDL
MODEL 2
REMARK VINA RESULT:      -6.1      3.225      6.735
REMARK  Name = 
REMARK  12 active torsions:
REMARK  status: ('A' for Active; 'I' for Inactive)
REMARK    1  A    between atoms: C_1  and  O_2
REMARK    2  A    between atoms: O_2  and  C_3
REMARK    3  A    between atoms: C_6  and  C_7
REMARK    4  A    between atoms: C_8  and  C_9
REMARK    5  A    between atoms: C_9  and  O_11
REMARK    6  A    between atoms: C_13  and  S_14
REMARK    7  A    between atoms: S_14  and  C_15
REMARK    8  A    between atoms: C_15  and  C_16
REMARK    9  A    between atoms: C_15  and  C_17
REMARK   10  A    between atoms: C_18  and  C_19
REMARK   11  A    between atoms: C_22  and  O_23
REMARK   12  A    between atoms: O_23  and  C_24
REMARK                            x       y       z     vdW  Elec       q    Type
REMARK                         _______ _______ _______ _____ _____    ______ ____
ROOT
ATOM      1  C   UNL     1       3.544   6.002  17.836  0.00  0.00    +0.000 A 
ATOM      2  C   UNL     1       2.985   4.728  17.740  0.00  0.00    +0.000 A 
ATOM      3  S   UNL     1       4.075   3.603  17.041  0.00  0.00    +0.000 S 
ATOM      4  C   UNL     1       5.305   4.772  16.849  0.00  0.00    +0.000 A 
ATOM      5  C   UNL     1       4.878   6.020  17.261  0.00  0.00    +0.000 A 
ENDROOT
BRANCH   1   9
ATOM      6  C   UNL     1       1.258   9.337  19.323  0.00  0.00    +0.000 A 
ATOM      7  C   UNL     1       1.809   9.357  18.035  0.00  0.00    +0.000 A 
ATOM      8  C   UNL     1       2.581   8.288  17.561  0.00  0.00    +0.000 A 
ATOM      9  C   UNL     1       2.810   7.173  18.366  0.00  0.00    +0.000 A 
ATOM     10  C   UNL     1       2.315   7.193  19.675  0.00  0.00    +0.000 A 
ATOM     11  C   UNL     1       1.567   8.271  20.176  0.00  0.00    +0.000 A 
BRANCH   6  13
ATOM     12  C   UNL     1       1.065  11.641  19.804  0.00  0.00    +0.000 C 
ATOM     13  O   UNL     1       0.451  10.353  19.759  0.00  0.00    +0.000 OA
ENDBRANCH   6  13
BRANCH  11  14
ATOM     14  O   UNL     1       1.220   8.078  21.485  0.00  0.00    +0.000 OA
ATOM     15  C   UNL     1       1.496   9.089  22.439  0.00  0.00    +0.000 C 
ENDBRANCH  11  14
ENDBRANCH   1   9
BRANCH   2  16
ATOM     16  C   UNL     1       1.683   4.229  18.161  0.00  0.00    +0.000 C 
ATOM     17  O   UNL     1       1.371   3.893  19.294  0.00  0.00    +0.000 OA
BRANCH  16  18
ATOM     18  O   UNL     1       0.773   4.221  17.147  0.00  0.00    +0.000 OA
ATOM     19  H   UNL     1       0.209   3.426  17.160  0.00  0.00    +0.000 HD
ENDBRANCH  16  18
ENDBRANCH   2  16
BRANCH   5  20
ATOM     20  C   UNL     1       5.685   7.196  17.103  0.00  0.00    +0.000 C 
ATOM     21  N   UNL     1       6.332   8.144  16.951  0.00  0.00    +0.000 NA
ENDBRANCH   5  20
BRANCH   4  22
ATOM     22  S   UNL     1       6.822   4.285  16.089  0.00  0.00    +0.000 S 
BRANCH  22  23
ATOM     23  C   UNL     1       6.640   4.828  14.350  0.00  0.00    +0.000 C 
ATOM     24  C   UNL     1       7.974   5.215  13.714  0.00  0.00    +0.000 C 
ATOM     25  C   UNL     1       6.013   3.674  13.563  0.00  0.00    +0.000 C 
ENDBRANCH  22  23
ENDBRANCH   4  22
TORSDOF 8
ENDMDL
MODEL 3
REMARK VINA RESULT:      -6.1      3.291      6.643
REMARK  Name = 
REMARK  12 active torsions:
REMARK  status: ('A' for Active; 'I' for Inactive)
REMARK    1  A    between atoms: C_1  and  O_2
REMARK    2  A    between atoms: O_2  and  C_3
REMARK    3  A    between atoms: C_6  and  C_7
REMARK    4  A    between atoms: C_8  and  C_9
REMARK    5  A    between atoms: C_9  and  O_11
REMARK    6  A    between atoms: C_13  and  S_14
REMARK    7  A    between atoms: S_14  and  C_15
REMARK    8  A    between atoms: C_15  and  C_16
REMARK    9  A    between atoms: C_15  and  C_17
REMARK   10  A    between atoms: C_18  and  C_19
REMARK   11  A    between atoms: C_22  and  O_23
REMARK   12  A    between atoms: O_23  and  C_24
REMARK                            x       y       z     vdW  Elec       q    Type
REMARK                         _______ _______ _______ _____ _____    ______ ____
ROOT
ATOM      1  C   UNL     1       3.653   5.607  17.783  0.00  0.00    +0.000 A 
ATOM      2  C   UNL     1       3.140   4.331  17.548  0.00  0.00    +0.000 A 
ATOM      3  S   UNL     1       4.255   3.341  16.700  0.00  0.00    +0.000 S 
ATOM      4  C   UNL     1       5.435   4.574  16.624  0.00  0.00    +0.000 A 
ATOM      5  C   UNL     1       4.970   5.746  17.188  0.00  0.00    +0.000 A 
ENDROOT
BRANCH   1   9
ATOM      6  C   UNL     1       1.579   8.790  19.815  0.00  0.00    +0.000 A 
ATOM      7  C   UNL     1       1.815   7.563  20.449  0.00  0.00    +0.000 A 
ATOM      8  C   UNL     1       2.460   6.515  19.779  0.00  0.00    +0.000 A 
ATOM      9  C   UNL     1       2.888   6.677  18.462  0.00  0.00    +0.000 A 
ATOM     10  C   UNL     1       2.584   7.880  17.814  0.00  0.00    +0.000 A 
ATOM     11  C   UNL     1       1.910   8.929  18.461  0.00  0.00    +0.000 A 
BRANCH   6  13
ATOM     12  C   UNL     1       0.744   9.591  21.874  0.00  0.00    +0.000 C 
ATOM     13  O   UNL     1       1.007   9.834  20.492  0.00  0.00    +0.000 OA
ENDBRANCH   6  13
BRANCH  11  14
ATOM     14  O   UNL     1       1.700   9.987  17.621  0.00  0.00    +0.000 OA
ATOM     15  C   UNL     1       2.369  11.214  17.860  0.00  0.00    +0.000 C 
ENDBRANCH  11  14
ENDBRANCH   1   9
BRANCH   2  16
ATOM     16  C   UNL     1       1.868   3.734  17.933  0.00  0.00    +0.000 C 
ATOM     17  O   UNL     1       1.688   2.955  18.856  0.00  0.00    +0.000 OA
BRANCH  16  18
ATOM     18  O   UNL     1       0.830   4.183  17.175  0.00  0.00    +0.000 OA
ATOM     19  H   UNL     1       1.091   4.355  16.251  0.00  0.00    +0.000 HD
ENDBRANCH  16  18
ENDBRANCH   2  16
BRANCH   5  20
ATOM     20  C   UNL     1       5.728   6.964  17.155  0.00  0.00    +0.000 C 
ATOM     21  N   UNL     1       6.361   7.934  17.128  0.00  0.00    +0.000 NA
ENDBRANCH   5  20
BRANCH   4  22
ATOM     22  S   UNL     1       6.950   4.241  15.782  0.00  0.00    +0.000 S 
BRANCH  22  23
ATOM     23  C   UNL     1       6.646   4.825  14.074  0.00  0.00    +0.000 C 
ATOM     24  C   UNL     1       7.926   5.269  13.369  0.00  0.00    +0.000 C 
ATOM     25  C   UNL     1       6.003   3.675  13.294  0.00  0.00    +0.000 C 
ENDBRANCH  22  23
ENDBRANCH   4  22
TORSDOF 8
ENDMDL
MODEL 4
REMARK VINA RESULT:      -5.4      3.126      6.487
REMARK  Name = 
REMARK  12 active torsions:
REMARK  status: ('A' for Active; 'I' for Inactive)
REMARK    1  A    between atoms: C_1  and  O_2
REMARK    2  A    between atoms: O_2  and  C_3
REMARK    3  A    between atoms: C_6  and  C_7
REMARK    4  A    between atoms: C_8  and  C_9
REMARK    5  A    between atoms: C_9  and  O_11
REMARK    6  A    between atoms: C_13  and  S_14
REMARK    7  A    between atoms: S_14  and  C_15
REMARK    8  A    between atoms: C_15  and  C_16
REMARK    9  A    between atoms: C_15  and  C_17
REMARK   10  A    between atoms: C_18  and  C_19
REMARK   11  A    between atoms: C_22  and  O_23
REMARK   12  A    between atoms: O_23  and  C_24
REMARK                            x       y       z     vdW  Elec       q    Type
REMARK                         _______ _______ _______ _____ _____    ______ ____
ROOT
ATOM      1  C   UNL     1       3.566   6.177  18.800  0.00  0.00    +0.000 A 
ATOM      2  C   UNL     1       3.206   4.946  19.347  0.00  0.00    +0.000 A 
ATOM      3  S   UNL     1       4.396   3.745  19.052  0.00  0.00    +0.000 S 
ATOM      4  C   UNL     1       5.406   4.823  18.196  0.00  0.00    +0.000 A 
ATOM      5  C   UNL     1       4.826   6.072  18.086  0.00  0.00    +0.000 A 
ENDROOT
BRANCH   1   9
ATOM      6  C   UNL     1       0.923   9.575  18.976  0.00  0.00    +0.000 A 
ATOM      7  C   UNL     1       1.571   9.226  17.784  0.00  0.00    +0.000 A 
ATOM      8  C   UNL     1       2.456   8.142  17.732  0.00  0.00    +0.000 A 
ATOM      9  C   UNL     1       2.705   7.380  18.873  0.00  0.00    +0.000 A 
ATOM     10  C   UNL     1       2.109   7.778  20.075  0.00  0.00    +0.000 A 
ATOM     11  C   UNL     1       1.244   8.883  20.150  0.00  0.00    +0.000 A 
BRANCH   6  13
ATOM     12  C   UNL     1      -1.315  10.236  18.613  0.00  0.00    +0.000 C 
ATOM     13  O   UNL     1       0.009  10.594  19.009  0.00  0.00    +0.000 OA
ENDBRANCH   6  13
BRANCH  11  14
ATOM     14  O   UNL     1       0.810   9.096  21.430  0.00  0.00    +0.000 OA
ATOM     15  C   UNL     1      -0.425   8.542  21.851  0.00  0.00    +0.000 C 
ENDBRANCH  11  14
ENDBRANCH   1   9
BRANCH   2  16
ATOM     16  C   UNL     1       2.039   4.558  20.128  0.00  0.00    +0.000 C 
ATOM     17  O   UNL     1       0.983   4.135  19.684  0.00  0.00    +0.000 OA
BRANCH  16  18
ATOM     18  O   UNL     1       2.253   4.657  21.470  0.00  0.00    +0.000 OA
ATOM     19  H   UNL     1       3.191   4.536  21.707  0.00  0.00    +0.000 HD
ENDBRANCH  16  18
ENDBRANCH   2  16
BRANCH   5  20
ATOM     20  C   UNL     1       5.423   7.128  17.319  0.00  0.00    +0.000 C 
ATOM     21  N   UNL     1       5.916   7.964  16.687  0.00  0.00    +0.000 NA
ENDBRANCH   5  20
BRANCH   4  22
ATOM     22  S   UNL     1       6.910   4.205  17.509  0.00  0.00    +0.000 S 
BRANCH  22  23
ATOM     23  C   UNL     1       6.508   3.922  15.745  0.00  0.00    +0.000 C 
ATOM     24  C   UNL     1       5.007   3.984  15.469  0.00  0.00    +0.000 C 
ATOM     25  C   UNL     1       7.225   4.996  14.923  0.00  0.00    +0.000 C 
ENDBRANCH  22  23
ENDBRANCH   4  22
TORSDOF 8
ENDMDL
MODEL 5
REMARK VINA RESULT:      -5.4      3.284      6.535
REMARK  Name = 
REMARK  12 active torsions:
REMARK  status: ('A' for Active; 'I' for Inactive)
REMARK    1  A    between atoms: C_1  and  O_2
REMARK    2  A    between atoms: O_2  and  C_3
REMARK    3  A    between atoms: C_6  and  C_7
REMARK    4  A    between atoms: C_8  and  C_9
REMARK    5  A    between atoms: C_9  and  O_11
REMARK    6  A    between atoms: C_13  and  S_14
REMARK    7  A    between atoms: S_14  and  C_15
REMARK    8  A    between atoms: C_15  and  C_16
REMARK    9  A    between atoms: C_15  and  C_17
REMARK   10  A    between atoms: C_18  and  C_19
REMARK   11  A    between atoms: C_22  and  O_23
REMARK   12  A    between atoms: O_23  and  C_24
REMARK                            x       y       z     vdW  Elec       q    Type
REMARK                         _______ _______ _______ _____ _____    ______ ____
ROOT
ATOM      1  C   UNL     1       3.516   6.218  18.603  0.00  0.00    +0.000 A 
ATOM      2  C   UNL     1       4.725   6.116  17.915  0.00  0.00    +0.000 A 
ATOM      3  S   UNL     1       5.408   4.548  18.052  0.00  0.00    +0.000 S 
ATOM      4  C   UNL     1       4.125   3.973  19.022  0.00  0.00    +0.000 A 
ATOM      5  C   UNL     1       3.211   4.974  19.288  0.00  0.00    +0.000 A 
ENDROOT
BRANCH   1   9
ATOM      6  C   UNL     1       1.087   9.770  18.800  0.00  0.00    +0.000 A 
ATOM      7  C   UNL     1       1.729   9.401  17.611  0.00  0.00    +0.000 A 
ATOM      8  C   UNL     1       2.546   8.264  17.554  0.00  0.00    +0.000 A 
ATOM      9  C   UNL     1       2.731   7.470  18.684  0.00  0.00    +0.000 A 
ATOM     10  C   UNL     1       2.143   7.886  19.884  0.00  0.00    +0.000 A 
ATOM     11  C   UNL     1       1.348   9.041  19.967  0.00  0.00    +0.000 A 
BRANCH   6  13
ATOM     12  C   UNL     1      -1.060  10.611  18.290  0.00  0.00    +0.000 C 
ATOM     13  O   UNL     1       0.237  10.843  18.838  0.00  0.00    +0.000 OA
ENDBRANCH   6  13
BRANCH  11  14
ATOM     14  O   UNL     1       0.909   9.260  21.244  0.00  0.00    +0.000 OA
ATOM     15  C   UNL     1      -0.320   8.695  21.668  0.00  0.00    +0.000 C 
ENDBRANCH  11  14
ENDBRANCH   1   9
BRANCH   2  16
ATOM     16  C   UNL     1       5.440   7.092  17.104  0.00  0.00    +0.000 C 
ATOM     17  O   UNL     1       6.274   7.890  17.504  0.00  0.00    +0.000 OA
BRANCH  16  18
ATOM     18  O   UNL     1       5.129   7.000  15.781  0.00  0.00    +0.000 OA
ATOM     19  H   UNL     1       4.278   6.550  15.629  0.00  0.00    +0.000 HD
ENDBRANCH  16  18
ENDBRANCH   2  16
BRANCH   5  20
ATOM     20  C   UNL     1       2.097   4.778  20.171  0.00  0.00    +0.000 C 
ATOM     21  N   UNL     1       1.184   4.634  20.868  0.00  0.00    +0.000 NA
ENDBRANCH   5  20
BRANCH   4  22
ATOM     22  S   UNL     1       4.196   2.312  19.615  0.00  0.00    +0.000 S 
BRANCH  22  23
ATOM     23  C   UNL     1       2.869   1.454  18.688  0.00  0.00    +0.000 C 
ATOM     24  C   UNL     1       1.511   1.554  19.381  0.00  0.00    +0.000 C 
ATOM     25  C   UNL     1       2.783   2.090  17.298  0.00  0.00    +0.000 C 
ENDBRANCH  22  23
ENDBRANCH   4  22
TORSDOF 8
ENDMDL
MODEL 6
REMARK VINA RESULT:      -5.3      3.163      6.418
REMARK  Name = 
REMARK  12 active torsions:
REMARK  status: ('A' for Active; 'I' for Inactive)
REMARK    1  A    between atoms: C_1  and  O_2
REMARK    2  A    between atoms: O_2  and  C_3
REMARK    3  A    between atoms: C_6  and  C_7
REMARK    4  A    between atoms: C_8  and  C_9
REMARK    5  A    between atoms: C_9  and  O_11
REMARK    6  A    between atoms: C_13  and  S_14
REMARK    7  A    between atoms: S_14  and  C_15
REMARK    8  A    between atoms: C_15  and  C_16
REMARK    9  A    between atoms: C_15  and  C_17
REMARK   10  A    between atoms: C_18  and  C_19
REMARK   11  A    between atoms: C_22  and  O_23
REMARK   12  A    between atoms: O_23  and  C_24
REMARK                            x       y       z     vdW  Elec       q    Type
REMARK                         _______ _______ _______ _____ _____    ______ ____
ROOT
ATOM      1  C   UNL     1       3.019   6.024  18.554  0.00  0.00    +0.000 A 
ATOM      2  C   UNL     1       2.734   4.865  19.275  0.00  0.00    +0.000 A 
ATOM      3  S   UNL     1       3.634   3.521  18.704  0.00  0.00    +0.000 S 
ATOM      4  C   UNL     1       4.416   4.439  17.496  0.00  0.00    +0.000 A 
ATOM      5  C   UNL     1       3.962   5.743  17.485  0.00  0.00    +0.000 A 
ENDROOT
BRANCH   1   9
ATOM      6  C   UNL     1       0.934   9.725  19.274  0.00  0.00    +0.000 A 
ATOM      7  C   UNL     1       1.378   9.386  17.990  0.00  0.00    +0.000 A 
ATOM      8  C   UNL     1       2.086   8.198  17.759  0.00  0.00    +0.000 A 
ATOM      9  C   UNL     1       2.356   7.323  18.810  0.00  0.00    +0.000 A 
ATOM     10  C   UNL     1       1.970   7.704  20.100  0.00  0.00    +0.000 A 
ATOM     11  C   UNL     1       1.289   8.906  20.353  0.00  0.00    +0.000 A 
BRANCH   6  13
ATOM     12  C   UNL     1      -1.170  10.773  19.050  0.00  0.00    +0.000 C 
ATOM     13  O   UNL     1       0.187  10.853  19.486  0.00  0.00    +0.000 OA
ENDBRANCH   6  13
BRANCH  11  14
ATOM     14  O   UNL     1       1.045   9.075  21.688  0.00  0.00    +0.000 OA
ATOM     15  C   UNL     1      -0.255   8.833  22.198  0.00  0.00    +0.000 C 
ENDBRANCH  11  14
ENDBRANCH   1   9
BRANCH   2  16
ATOM     16  C   UNL     1       1.850   4.648  20.413  0.00  0.00    +0.000 C 
ATOM     17  O   UNL     1       0.666   4.356  20.361  0.00  0.00    +0.000 OA
BRANCH  16  18
ATOM     18  O   UNL     1       2.502   4.748  21.605  0.00  0.00    +0.000 OA
ATOM     19  H   UNL     1       3.262   5.357  21.564  0.00  0.00    +0.000 HD
ENDBRANCH  16  18
ENDBRANCH   2  16
BRANCH   5  20
ATOM     20  C   UNL     1       4.381   6.693  16.494  0.00  0.00    +0.000 C 
ATOM     21  N   UNL     1       4.741   7.463  15.708  0.00  0.00    +0.000 NA
ENDBRANCH   5  20
BRANCH   4  22
ATOM     22  S   UNL     1       5.545   3.621  16.412  0.00  0.00    +0.000 S 
BRANCH  22  23
ATOM     23  C   UNL     1       7.167   4.369  16.815  0.00  0.00    +0.000 C 
ATOM     24  C   UNL     1       7.557   5.483  15.844  0.00  0.00    +0.000 C 
ATOM     25  C   UNL     1       7.082   4.933  18.235  0.00  0.00    +0.000 C 
ENDBRANCH  22  23
ENDBRANCH   4  22
TORSDOF 8
ENDMDL
MODEL 7
REMARK VINA RESULT:      -5.3      6.039      8.644
REMARK  Name = 
REMARK  12 active torsions:
REMARK  status: ('A' for Active; 'I' for Inactive)
REMARK    1  A    between atoms: C_1  and  O_2
REMARK    2  A    between atoms: O_2  and  C_3
REMARK    3  A    between atoms: C_6  and  C_7
REMARK    4  A    between atoms: C_8  and  C_9
REMARK    5  A    between atoms: C_9  and  O_11
REMARK    6  A    between atoms: C_13  and  S_14
REMARK    7  A    between atoms: S_14  and  C_15
REMARK    8  A    between atoms: C_15  and  C_16
REMARK    9  A    between atoms: C_15  and  C_17
REMARK   10  A    between atoms: C_18  and  C_19
REMARK   11  A    between atoms: C_22  and  O_23
REMARK   12  A    between atoms: O_23  and  C_24
REMARK                            x       y       z     vdW  Elec       q    Type
REMARK                         _______ _______ _______ _____ _____    ______ ____
ROOT
ATOM      1  C   UNL     1      -1.779  12.038  20.252  0.00  0.00    +0.000 A 
ATOM      2  C   UNL     1      -1.760  12.659  21.501  0.00  0.00    +0.000 A 
ATOM      3  S   UNL     1      -3.282  13.345  21.896  0.00  0.00    +0.000 S 
ATOM      4  C   UNL     1      -3.996  12.839  20.430  0.00  0.00    +0.000 A 
ATOM      5  C   UNL     1      -3.077  12.201  19.620  0.00  0.00    +0.000 A 
ENDROOT
BRANCH   1   9
ATOM      6  C   UNL     1       1.595  10.171  18.332  0.00  0.00    +0.000 A 
ATOM      7  C   UNL     1       0.606   9.402  18.957  0.00  0.00    +0.000 A 
ATOM      8  C   UNL     1      -0.475  10.008  19.611  0.00  0.00    +0.000 A 
ATOM      9  C   UNL     1      -0.591  11.397  19.645  0.00  0.00    +0.000 A 
ATOM     10  C   UNL     1       0.439  12.157  19.079  0.00  0.00    +0.000 A 
ATOM     11  C   UNL     1       1.546  11.566  18.449  0.00  0.00    +0.000 A 
BRANCH   6  13
ATOM     12  C   UNL     1       2.709   8.161  17.790  0.00  0.00    +0.000 C 
ATOM     13  O   UNL     1       2.616   9.577  17.638  0.00  0.00    +0.000 OA
ENDBRANCH   6  13
BRANCH  11  14
ATOM     14  O   UNL     1       2.432  12.507  18.000  0.00  0.00    +0.000 OA
ATOM     15  C   UNL     1       2.406  13.812  18.552  0.00  0.00    +0.000 C 
ENDBRANCH  11  14
ENDBRANCH   1   9
BRANCH   2  16
ATOM     16  C   UNL     1      -0.694  12.772  22.488  0.00  0.00    +0.000 C 
ATOM     17  O   UNL     1      -0.045  13.776  22.735  0.00  0.00    +0.000 OA
BRANCH  16  18
ATOM     18  O   UNL     1      -0.509  11.620  23.190  0.00  0.00    +0.000 OA
ATOM     19  H   UNL     1      -0.474  11.773  24.153  0.00  0.00    +0.000 HD
ENDBRANCH  16  18
ENDBRANCH   2  16
BRANCH   5  20
ATOM     20  C   UNL     1      -3.396  11.775  18.287  0.00  0.00    +0.000 C 
ATOM     21  N   UNL     1      -3.671  11.450  17.210  0.00  0.00    +0.000 NA
ENDBRANCH   5  20
BRANCH   4  22
ATOM     22  S   UNL     1      -5.678  13.274  20.115  0.00  0.00    +0.000 S 
BRANCH  22  23
ATOM     23  C   UNL     1      -6.604  11.728  20.439  0.00  0.00    +0.000 C 
ATOM     24  C   UNL     1      -7.828  11.951  21.324  0.00  0.00    +0.000 C 
ATOM     25  C   UNL     1      -7.045  11.156  19.088  0.00  0.00    +0.000 C 
ENDBRANCH  22  23
ENDBRANCH   4  22
TORSDOF 8
ENDMDL
MODEL 8
REMARK VINA RESULT:      -5.2      7.800     10.164
REMARK  Name = 
REMARK  12 active torsions:
REMARK  status: ('A' for Active; 'I' for Inactive)
REMARK    1  A    between atoms: C_1  and  O_2
REMARK    2  A    between atoms: O_2  and  C_3
REMARK    3  A    between atoms: C_6  and  C_7
REMARK    4  A    between atoms: C_8  and  C_9
REMARK    5  A    between atoms: C_9  and  O_11
REMARK    6  A    between atoms: C_13  and  S_14
REMARK    7  A    between atoms: S_14  and  C_15
REMARK    8  A    between atoms: C_15  and  C_16
REMARK    9  A    between atoms: C_15  and  C_17
REMARK   10  A    between atoms: C_18  and  C_19
REMARK   11  A    between atoms: C_22  and  O_23
REMARK   12  A    between atoms: O_23  and  C_24
REMARK                            x       y       z     vdW  Elec       q    Type
REMARK                         _______ _______ _______ _____ _____    ______ ____
ROOT
ATOM      1  C   UNL     1      -3.015  12.000  18.946  0.00  0.00    +0.000 A 
ATOM      2  C   UNL     1      -3.247  11.271  17.780  0.00  0.00    +0.000 A 
ATOM      3  S   UNL     1      -4.923  11.112  17.449  0.00  0.00    +0.000 S 
ATOM      4  C   UNL     1      -5.376  11.998  18.836  0.00  0.00    +0.000 A 
ATOM      5  C   UNL     1      -4.271  12.368  19.577  0.00  0.00    +0.000 A 
ENDROOT
BRANCH   1   9
ATOM      6  C   UNL     1       0.854  12.867  20.629  0.00  0.00    +0.000 A 
ATOM      7  C   UNL     1       0.407  13.521  19.475  0.00  0.00    +0.000 A 
ATOM      8  C   UNL     1      -0.837  13.217  18.906  0.00  0.00    +0.000 A 
ATOM      9  C   UNL     1      -1.662  12.256  19.488  0.00  0.00    +0.000 A 
ATOM     10  C   UNL     1      -1.177  11.557  20.599  0.00  0.00    +0.000 A 
ATOM     11  C   UNL     1       0.082  11.827  21.162  0.00  0.00    +0.000 A 
BRANCH   6  13
ATOM     12  C   UNL     1       2.152  14.581  21.605  0.00  0.00    +0.000 C 
ATOM     13  O   UNL     1       2.041  13.211  21.220  0.00  0.00    +0.000 OA
ENDBRANCH   6  13
BRANCH  11  14
ATOM     14  O   UNL     1       0.349  11.000  22.218  0.00  0.00    +0.000 OA
ATOM     15  C   UNL     1       0.728   9.655  21.975  0.00  0.00    +0.000 C 
ENDBRANCH  11  14
ENDBRANCH   1   9
BRANCH   2  16
ATOM     16  C   UNL     1      -2.315  10.684  16.826  0.00  0.00    +0.000 C 
ATOM     17  O   UNL     1      -1.626   9.692  17.009  0.00  0.00    +0.000 OA
BRANCH  16  18
ATOM     18  O   UNL     1      -2.316  11.333  15.629  0.00  0.00    +0.000 OA
ATOM     19  H   UNL     1      -2.677  12.237  15.695  0.00  0.00    +0.000 HD
ENDBRANCH  16  18
ENDBRANCH   2  16
BRANCH   5  20
ATOM     20  C   UNL     1      -4.385  13.028  20.847  0.00  0.00    +0.000 C 
ATOM     21  N   UNL     1      -4.453  13.559  21.873  0.00  0.00    +0.000 NA
ENDBRANCH   5  20
BRANCH   4  22
ATOM     22  S   UNL     1      -7.095  12.210  19.179  0.00  0.00    +0.000 S 
BRANCH  22  23
ATOM     23  C   UNL     1      -7.481  13.868  18.503  0.00  0.00    +0.000 C 
ATOM     24  C   UNL     1      -7.033  14.997  19.429  0.00  0.00    +0.000 C 
ATOM     25  C   UNL     1      -6.772  13.999  17.153  0.00  0.00    +0.000 C 
ENDBRANCH  22  23
ENDBRANCH   4  22
TORSDOF 8
ENDMDL
MODEL 9
REMARK VINA RESULT:      -5.2      3.214      6.614
REMARK  Name = 
REMARK  12 active torsions:
REMARK  status: ('A' for Active; 'I' for Inactive)
REMARK    1  A    between atoms: C_1  and  O_2
REMARK    2  A    between atoms: O_2  and  C_3
REMARK    3  A    between atoms: C_6  and  C_7
REMARK    4  A    between atoms: C_8  and  C_9
REMARK    5  A    between atoms: C_9  and  O_11
REMARK    6  A    between atoms: C_13  and  S_14
REMARK    7  A    between atoms: S_14  and  C_15
REMARK    8  A    between atoms: C_15  and  C_16
REMARK    9  A    between atoms: C_15  and  C_17
REMARK   10  A    between atoms: C_18  and  C_19
REMARK   11  A    between atoms: C_22  and  O_23
REMARK   12  A    between atoms: O_23  and  C_24
REMARK                            x       y       z     vdW  Elec       q    Type
REMARK                         _______ _______ _______ _____ _____    ______ ____
ROOT
ATOM      1  C   UNL     1       3.724   5.084  17.953  0.00  0.00    +0.000 A 
ATOM      2  C   UNL     1       3.322   3.828  17.501  0.00  0.00    +0.000 A 
ATOM      3  S   UNL     1       4.507   3.104  16.492  0.00  0.00    +0.000 S 
ATOM      4  C   UNL     1       5.570   4.432  16.630  0.00  0.00    +0.000 A 
ATOM      5  C   UNL     1       5.014   5.443  17.389  0.00  0.00    +0.000 A 
ENDROOT
BRANCH   1   9
ATOM      6  C   UNL     1       1.410   7.667  20.510  0.00  0.00    +0.000 A 
ATOM      7  C   UNL     1       1.757   6.372  20.916  0.00  0.00    +0.000 A 
ATOM      8  C   UNL     1       2.481   5.519  20.073  0.00  0.00    +0.000 A 
ATOM      9  C   UNL     1       2.878   5.948  18.808  0.00  0.00    +0.000 A 
ATOM     10  C   UNL     1       2.467   7.216  18.383  0.00  0.00    +0.000 A 
ATOM     11  C   UNL     1       1.713   8.072  19.204  0.00  0.00    +0.000 A 
BRANCH   6  13
ATOM     12  C   UNL     1       1.595   9.195  22.301  0.00  0.00    +0.000 C 
ATOM     13  O   UNL     1       0.760   8.522  21.359  0.00  0.00    +0.000 OA
ENDBRANCH   6  13
BRANCH  11  14
ATOM     14  O   UNL     1       1.404   9.241  18.564  0.00  0.00    +0.000 OA
ATOM     15  C   UNL     1       2.378   9.870  17.748  0.00  0.00    +0.000 C 
ENDBRANCH  11  14
ENDBRANCH   1   9
BRANCH   2  16
ATOM     16  C   UNL     1       2.115   3.060  17.778  0.00  0.00    +0.000 C 
ATOM     17  O   UNL     1       0.967   3.466  17.688  0.00  0.00    +0.000 OA
BRANCH  16  18
ATOM     18  O   UNL     1       2.384   1.767  18.109  0.00  0.00    +0.000 OA
ATOM     19  H   UNL     1       3.146   1.408  17.619  0.00  0.00    +0.000 HD
ENDBRANCH  16  18
ENDBRANCH   2  16
BRANCH   5  20
ATOM     20  C   UNL     1       5.660   6.712  17.567  0.00  0.00    +0.000 C 
ATOM     21  N   UNL     1       6.203   7.725  17.708  0.00  0.00    +0.000 NA
ENDBRANCH   5  20
BRANCH   4  22
ATOM     22  S   UNL     1       7.095   4.388  15.741  0.00  0.00    +0.000 S 
BRANCH  22  23
ATOM     23  C   UNL     1       6.630   4.875  14.038  0.00  0.00    +0.000 C 
ATOM     24  C   UNL     1       7.824   5.365  13.221  0.00  0.00    +0.000 C 
ATOM     25  C   UNL     1       6.008   3.654  13.356  0.00  0.00    +0.000 C 
ENDBRANCH  22  23
ENDBRANCH   4  22
TORSDOF 8
ENDMDL
