MODEL 1
REMARK VINA RESULT:      -8.6      0.000      0.000
REMARK  Name = 
REMARK  12 active torsions:
REMARK  status: ('A' for Active; 'I' for Inactive)
REMARK    1  A    between atoms: C_1  and  O_2
REMARK    2  A    between atoms: O_2  and  C_3
REMARK    3  A    between atoms: C_3  and  C_5
REMARK    4  A    between atoms: C_10  and  C_11
REMARK    5  A    between atoms: C_14  and  C_15
REMARK    6  A    between atoms: C_15  and  C_16
REMARK    7  A    between atoms: C_15  and  N_17
REMARK    8  A    between atoms: N_17  and  C_18
REMARK    9  A    between atoms: C_22  and  C_23
REMARK   10  A    between atoms: C_24  and  N_25
REMARK   11  A    between atoms: C_26  and  C_28
REMARK   12  A    between atoms: C_28  and  C_29
REMARK                            x       y       z     vdW  Elec       q    Type
REMARK                         _______ _______ _______ _____ _____    ______ ____
ROOT
ATOM      1  C   UNL     1       1.942   7.637  19.011  0.00  0.00    +0.000 C 
ATOM      2  C   UNL     1       2.787   8.172  17.830  0.00  0.00    +0.000 C 
ENDROOT
BRANCH   1   6
ATOM      3  C   UNL     1       0.025  10.839  21.341  0.00  0.00    +0.000 A 
ATOM      4  C   UNL     1       0.714   9.786  21.960  0.00  0.00    +0.000 A 
ATOM      5  C   UNL     1       1.352   8.777  21.213  0.00  0.00    +0.000 A 
ATOM      6  C   UNL     1       1.365   8.810  19.813  0.00  0.00    +0.000 A 
ATOM      7  C   UNL     1       0.771   9.915  19.191  0.00  0.00    +0.000 A 
ATOM      8  C   UNL     1       0.091  10.884  19.934  0.00  0.00    +0.000 A 
BRANCH   3  14
ATOM      9  C   UNL     1      -0.416  13.269  22.115  0.00  0.00    +0.000 A 
ATOM     10  C   UNL     1      -1.199  14.171  22.874  0.00  0.00    +0.000 A 
ATOM     11  C   UNL     1      -2.279  13.727  23.632  0.00  0.00    +0.000 A 
ATOM     12  C   UNL     1      -2.600  12.380  23.630  0.00  0.00    +0.000 A 
ATOM     13  C   UNL     1      -1.851  11.487  22.858  0.00  0.00    +0.000 A 
ATOM     14  C   UNL     1      -0.735  11.889  22.086  0.00  0.00    +0.000 A 
BRANCH   9  15
ATOM     15  C   UNL     1       0.789  13.841  21.461  0.00  0.00    +0.000 C 
ATOM     16  O   UNL     1       1.908  13.866  21.940  0.00  0.00    +0.000 OA
BRANCH  15  18
ATOM     17  C   UNL     1       1.486  14.256  19.261  0.00  0.00    +0.000 C 
ATOM     18  O   UNL     1       0.443  14.331  20.235  0.00  0.00    +0.000 OA
ENDBRANCH  15  18
ENDBRANCH   9  15
ENDBRANCH   3  14
ENDBRANCH   1   6
BRANCH   1  19
ATOM     19  N   UNL     1       2.711   6.760  19.933  0.00  0.00    +0.000 N 
ATOM     20  H   UNL     1       3.700   6.836  19.717  0.00  0.00    +0.000 HD
BRANCH  19  21
ATOM     21  C   UNL     1       2.365   5.379  19.878  0.00  0.00    +0.000 A 
ATOM     22  N   UNL     1       1.355   4.954  20.662  0.00  0.00    +0.000 NA
ATOM     23  C   UNL     1       0.885   3.712  20.486  0.00  0.00    +0.000 A 
ATOM     24  C   UNL     1       1.430   2.826  19.587  0.00  0.00    +0.000 A 
ATOM     25  C   UNL     1       2.551   3.199  18.830  0.00  0.00    +0.000 A 
ATOM     26  C   UNL     1       3.094   2.119  17.940  0.00  0.00    +0.000 C 
ATOM     27  C   UNL     1       3.054   4.511  18.970  0.00  0.00    +0.000 A 
BRANCH  27  28
ATOM     28  N   UNL     1       4.191   5.088  18.317  0.00  0.00    +0.000 N 
ATOM     29  C   UNL     1       5.547   4.960  18.554  0.00  0.00    +0.000 C 
ATOM     30  O   UNL     1       6.105   4.306  19.423  0.00  0.00    +0.000 OA
ATOM     31  H   UNL     1       3.901   5.757  17.607  0.00  0.00    +0.000 HD
BRANCH  29  32
ATOM     32  C   UNL     1       6.412   5.714  17.589  0.00  0.00    +0.000 C 
BRANCH  32  33
ATOM     33  C   UNL     1       7.010   4.746  16.607  0.00  0.00    +0.000 C 
ATOM     34  F   UNL     1       7.402   5.314  15.449  0.00  0.00    +0.000 F 
ATOM     35  F   UNL     1       8.113   4.172  17.151  0.00  0.00    +0.000 F 
ATOM     36  F   UNL     1       6.152   3.746  16.310  0.00  0.00    +0.000 F 
ENDBRANCH  32  33
ENDBRANCH  29  32
ENDBRANCH  27  28
ENDBRANCH  19  21
ENDBRANCH   1  19
TORSDOF 9
ENDMDL
MODEL 2
REMARK VINA RESULT:      -8.5      1.206      1.633
REMARK  Name = 
REMARK  12 active torsions:
REMARK  status: ('A' for Active; 'I' for Inactive)
REMARK    1  A    between atoms: C_1  and  O_2
REMARK    2  A    between atoms: O_2  and  C_3
REMARK    3  A    between atoms: C_3  and  C_5
REMARK    4  A    between atoms: C_10  and  C_11
REMARK    5  A    between atoms: C_14  and  C_15
REMARK    6  A    between atoms: C_15  and  C_16
REMARK    7  A    between atoms: C_15  and  N_17
REMARK    8  A    between atoms: N_17  and  C_18
REMARK    9  A    between atoms: C_22  and  C_23
REMARK   10  A    between atoms: C_24  and  N_25
REMARK   11  A    between atoms: C_26  and  C_28
REMARK   12  A    between atoms: C_28  and  C_29
REMARK                            x       y       z     vdW  Elec       q    Type
REMARK                         _______ _______ _______ _____ _____    ______ ____
ROOT
ATOM      1  C   UNL     1       2.509   7.098  18.611  0.00  0.00    +0.000 C 
ATOM      2  C   UNL     1       3.365   7.743  17.496  0.00  0.00    +0.000 C 
ENDROOT
BRANCH   1   6
ATOM      3  C   UNL     1       0.487  10.378  20.736  0.00  0.00    +0.000 A 
ATOM      4  C   UNL     1       0.539  10.326  19.335  0.00  0.00    +0.000 A 
ATOM      5  C   UNL     1       1.161   9.261  18.655  0.00  0.00    +0.000 A 
ATOM      6  C   UNL     1       1.716   8.181  19.353  0.00  0.00    +0.000 A 
ATOM      7  C   UNL     1       1.572   8.175  20.745  0.00  0.00    +0.000 A 
ATOM      8  C   UNL     1       1.004   9.260  21.419  0.00  0.00    +0.000 A 
BRANCH   3  14
ATOM      9  C   UNL     1       0.373  12.859  21.461  0.00  0.00    +0.000 A 
ATOM     10  C   UNL     1      -0.240  13.859  22.253  0.00  0.00    +0.000 A 
ATOM     11  C   UNL     1      -1.290  13.553  23.113  0.00  0.00    +0.000 A 
ATOM     12  C   UNL     1      -1.751  12.249  23.184  0.00  0.00    +0.000 A 
ATOM     13  C   UNL     1      -1.170  11.262  22.383  0.00  0.00    +0.000 A 
ATOM     14  C   UNL     1      -0.089  11.522  21.506  0.00  0.00    +0.000 A 
BRANCH   9  15
ATOM     15  C   UNL     1       1.571  13.282  20.689  0.00  0.00    +0.000 C 
ATOM     16  O   UNL     1       2.720  13.239  21.088  0.00  0.00    +0.000 OA
BRANCH  15  18
ATOM     17  C   UNL     1       2.257  14.010  18.569  0.00  0.00    +0.000 C 
ATOM     18  O   UNL     1       1.177  13.723  19.458  0.00  0.00    +0.000 OA
ENDBRANCH  15  18
ENDBRANCH   9  15
ENDBRANCH   3  14
ENDBRANCH   1   6
BRANCH   1  19
ATOM     19  N   UNL     1       3.312   6.333  19.600  0.00  0.00    +0.000 N 
ATOM     20  H   UNL     1       4.285   6.330  19.308  0.00  0.00    +0.000 HD
BRANCH  19  21
ATOM     21  C   UNL     1       2.915   4.976  19.777  0.00  0.00    +0.000 A 
ATOM     22  N   UNL     1       1.869   4.730  20.591  0.00  0.00    +0.000 NA
ATOM     23  C   UNL     1       1.356   3.494  20.621  0.00  0.00    +0.000 A 
ATOM     24  C   UNL     1       1.889   2.445  19.910  0.00  0.00    +0.000 A 
ATOM     25  C   UNL     1       3.043   2.640  19.135  0.00  0.00    +0.000 A 
ATOM     26  C   UNL     1       3.566   1.402  18.467  0.00  0.00    +0.000 C 
ATOM     27  C   UNL     1       3.592   3.938  19.060  0.00  0.00    +0.000 A 
BRANCH  27  28
ATOM     28  N   UNL     1       4.768   4.352  18.352  0.00  0.00    +0.000 N 
ATOM     29  C   UNL     1       6.003   4.781  18.799  0.00  0.00    +0.000 C 
ATOM     30  O   UNL     1       6.383   4.924  19.953  0.00  0.00    +0.000 OA
ATOM     31  H   UNL     1       4.594   4.388  17.350  0.00  0.00    +0.000 HD
BRANCH  29  32
ATOM     32  C   UNL     1       6.983   5.079  17.704  0.00  0.00    +0.000 C 
BRANCH  32  33
ATOM     33  C   UNL     1       7.341   6.539  17.752  0.00  0.00    +0.000 C 
ATOM     34  F   UNL     1       7.827   7.020  16.590  0.00  0.00    +0.000 F 
ATOM     35  F   UNL     1       6.234   7.267  18.040  0.00  0.00    +0.000 F 
ATOM     36  F   UNL     1       8.246   6.797  18.720  0.00  0.00    +0.000 F 
ENDBRANCH  32  33
ENDBRANCH  29  32
ENDBRANCH  27  28
ENDBRANCH  19  21
ENDBRANCH   1  19
TORSDOF 9
ENDMDL
MODEL 3
REMARK VINA RESULT:      -8.5      4.305      9.722
REMARK  Name = 
REMARK  12 active torsions:
REMARK  status: ('A' for Active; 'I' for Inactive)
REMARK    1  A    between atoms: C_1  and  O_2
REMARK    2  A    between atoms: O_2  and  C_3
REMARK    3  A    between atoms: C_3  and  C_5
REMARK    4  A    between atoms: C_10  and  C_11
REMARK    5  A    between atoms: C_14  and  C_15
REMARK    6  A    between atoms: C_15  and  C_16
REMARK    7  A    between atoms: C_15  and  N_17
REMARK    8  A    between atoms: N_17  and  C_18
REMARK    9  A    between atoms: C_22  and  C_23
REMARK   10  A    between atoms: C_24  and  N_25
REMARK   11  A    between atoms: C_26  and  C_28
REMARK   12  A    between atoms: C_28  and  C_29
REMARK                            x       y       z     vdW  Elec       q    Type
REMARK                         _______ _______ _______ _____ _____    ______ ____
ROOT
ATOM      1  C   UNL     1      -0.122   9.662  20.692  0.00  0.00    +0.000 C 
ATOM      2  C   UNL     1      -0.176   9.253  22.183  0.00  0.00    +0.000 C 
ENDROOT
BRANCH   1   6
ATOM      3  C   UNL     1       2.768   7.191  18.477  0.00  0.00    +0.000 A 
ATOM      4  C   UNL     1       2.237   8.371  17.937  0.00  0.00    +0.000 A 
ATOM      5  C   UNL     1       1.334   9.177  18.656  0.00  0.00    +0.000 A 
ATOM      6  C   UNL     1       0.963   8.855  19.968  0.00  0.00    +0.000 A 
ATOM      7  C   UNL     1       1.572   7.738  20.552  0.00  0.00    +0.000 A 
ATOM      8  C   UNL     1       2.425   6.910  19.815  0.00  0.00    +0.000 A 
BRANCH   3  14
ATOM      9  C   UNL     1       3.379   4.907  17.425  0.00  0.00    +0.000 A 
ATOM     10  C   UNL     1       4.317   4.113  16.724  0.00  0.00    +0.000 A 
ATOM     11  C   UNL     1       5.551   4.628  16.338  0.00  0.00    +0.000 A 
ATOM     12  C   UNL     1       5.859   5.945  16.634  0.00  0.00    +0.000 A 
ATOM     13  C   UNL     1       4.925   6.745  17.300  0.00  0.00    +0.000 A 
ATOM     14  C   UNL     1       3.665   6.261  17.727  0.00  0.00    +0.000 A 
BRANCH   9  15
ATOM     15  C   UNL     1       2.158   4.206  17.903  0.00  0.00    +0.000 C 
ATOM     16  O   UNL     1       1.072   4.227  17.354  0.00  0.00    +0.000 OA
BRANCH  15  18
ATOM     17  C   UNL     1       1.304   3.142  19.809  0.00  0.00    +0.000 C 
ATOM     18  O   UNL     1       2.452   3.530  19.052  0.00  0.00    +0.000 OA
ENDBRANCH  15  18
ENDBRANCH   9  15
ENDBRANCH   3  14
ENDBRANCH   1   6
BRANCH   1  19
ATOM     19  N   UNL     1       0.143  11.110  20.489  0.00  0.00    +0.000 N 
ATOM     20  H   UNL     1       1.092  11.319  20.783  0.00  0.00    +0.000 HD
BRANCH  19  21
ATOM     21  C   UNL     1      -0.729  11.987  21.197  0.00  0.00    +0.000 A 
ATOM     22  N   UNL     1      -0.456  12.228  22.495  0.00  0.00    +0.000 NA
ATOM     23  C   UNL     1      -1.139  13.192  23.125  0.00  0.00    +0.000 A 
ATOM     24  C   UNL     1      -2.151  13.905  22.527  0.00  0.00    +0.000 A 
ATOM     25  C   UNL     1      -2.534  13.607  21.210  0.00  0.00    +0.000 A 
ATOM     26  C   UNL     1      -3.698  14.405  20.700  0.00  0.00    +0.000 C 
ATOM     27  C   UNL     1      -1.816  12.615  20.508  0.00  0.00    +0.000 A 
BRANCH  27  28
ATOM     28  N   UNL     1      -2.050  12.142  19.176  0.00  0.00    +0.000 N 
ATOM     29  C   UNL     1      -3.200  11.704  18.548  0.00  0.00    +0.000 C 
ATOM     30  O   UNL     1      -4.326  11.601  19.014  0.00  0.00    +0.000 OA
ATOM     31  H   UNL     1      -1.176  12.067  18.659  0.00  0.00    +0.000 HD
BRANCH  29  32
ATOM     32  C   UNL     1      -3.010  11.334  17.107  0.00  0.00    +0.000 C 
BRANCH  32  33
ATOM     33  C   UNL     1      -2.666   9.873  17.017  0.00  0.00    +0.000 C 
ATOM     34  F   UNL     1      -3.329   9.101  17.902  0.00  0.00    +0.000 F 
ATOM     35  F   UNL     1      -2.982   9.408  15.783  0.00  0.00    +0.000 F 
ATOM     36  F   UNL     1      -1.344   9.663  17.192  0.00  0.00    +0.000 F 
ENDBRANCH  32  33
ENDBRANCH  29  32
ENDBRANCH  27  28
ENDBRANCH  19  21
ENDBRANCH   1  19
TORSDOF 9
ENDMDL
MODEL 4
REMARK VINA RESULT:      -8.5      4.060      9.544
REMARK  Name = 
REMARK  12 active torsions:
REMARK  status: ('A' for Active; 'I' for Inactive)
REMARK    1  A    between atoms: C_1  and  O_2
REMARK    2  A    between atoms: O_2  and  C_3
REMARK    3  A    between atoms: C_3  and  C_5
REMARK    4  A    between atoms: C_10  and  C_11
REMARK    5  A    between atoms: C_14  and  C_15
REMARK    6  A    between atoms: C_15  and  C_16
REMARK    7  A    between atoms: C_15  and  N_17
REMARK    8  A    between atoms: N_17  and  C_18
REMARK    9  A    between atoms: C_22  and  C_23
REMARK   10  A    between atoms: C_24  and  N_25
REMARK   11  A    between atoms: C_26  and  C_28
REMARK   12  A    between atoms: C_28  and  C_29
REMARK                            x       y       z     vdW  Elec       q    Type
REMARK                         _______ _______ _______ _____ _____    ______ ____
ROOT
ATOM      1  C   UNL     1       0.905  10.206  19.656  0.00  0.00    +0.000 C 
ATOM      2  C   UNL     1       0.940  10.537  21.167  0.00  0.00    +0.000 C 
ENDROOT
BRANCH   1   6
ATOM      3  C   UNL     1       2.418   6.158  18.830  0.00  0.00    +0.000 A 
ATOM      4  C   UNL     1       2.475   7.179  17.870  0.00  0.00    +0.000 A 
ATOM      5  C   UNL     1       2.017   8.482  18.144  0.00  0.00    +0.000 A 
ATOM      6  C   UNL     1       1.527   8.826  19.410  0.00  0.00    +0.000 A 
ATOM      7  C   UNL     1       1.567   7.841  20.404  0.00  0.00    +0.000 A 
ATOM      8  C   UNL     1       1.971   6.534  20.112  0.00  0.00    +0.000 A 
BRANCH   3  14
ATOM      9  C   UNL     1       4.147   4.259  18.508  0.00  0.00    +0.000 A 
ATOM     10  C   UNL     1       4.405   2.896  18.229  0.00  0.00    +0.000 A 
ATOM     11  C   UNL     1       3.368   2.003  17.976  0.00  0.00    +0.000 A 
ATOM     12  C   UNL     1       2.060   2.455  18.012  0.00  0.00    +0.000 A 
ATOM     13  C   UNL     1       1.795   3.794  18.317  0.00  0.00    +0.000 A 
ATOM     14  C   UNL     1       2.816   4.742  18.565  0.00  0.00    +0.000 A 
BRANCH   9  15
ATOM     15  C   UNL     1       5.339   5.139  18.624  0.00  0.00    +0.000 C 
ATOM     16  O   UNL     1       5.865   5.481  19.666  0.00  0.00    +0.000 OA
BRANCH  15  18
ATOM     17  C   UNL     1       7.099   5.123  17.075  0.00  0.00    +0.000 C 
ATOM     18  O   UNL     1       5.753   5.498  17.373  0.00  0.00    +0.000 OA
ENDBRANCH  15  18
ENDBRANCH   9  15
ENDBRANCH   3  14
ENDBRANCH   1   6
BRANCH   1  19
ATOM     19  N   UNL     1       1.617  11.207  18.819  0.00  0.00    +0.000 N 
ATOM     20  H   UNL     1       2.608  10.983  18.802  0.00  0.00    +0.000 HD
BRANCH  19  21
ATOM     21  C   UNL     1       1.491  12.557  19.256  0.00  0.00    +0.000 A 
ATOM     22  N   UNL     1       2.403  13.019  20.135  0.00  0.00    +0.000 NA
ATOM     23  C   UNL     1       2.423  14.330  20.409  0.00  0.00    +0.000 A 
ATOM     24  C   UNL     1       1.513  15.217  19.886  0.00  0.00    +0.000 A 
ATOM     25  C   UNL     1       0.483  14.754  19.053  0.00  0.00    +0.000 A 
ATOM     26  C   UNL     1      -0.486  15.811  18.607  0.00  0.00    +0.000 C 
ATOM     27  C   UNL     1       0.451  13.383  18.721  0.00  0.00    +0.000 A 
BRANCH  27  28
ATOM     28  N   UNL     1      -0.515  12.700  17.911  0.00  0.00    +0.000 N 
ATOM     29  C   UNL     1      -1.692  12.053  18.238  0.00  0.00    +0.000 C 
ATOM     30  O   UNL     1      -2.189  11.898  19.345  0.00  0.00    +0.000 OA
ATOM     31  H   UNL     1      -0.204  12.645  16.944  0.00  0.00    +0.000 HD
BRANCH  29  32
ATOM     32  C   UNL     1      -2.438  11.502  17.060  0.00  0.00    +0.000 C 
BRANCH  32  33
ATOM     33  C   UNL     1      -2.224  10.015  16.998  0.00  0.00    +0.000 C 
ATOM     34  F   UNL     1      -0.952   9.636  17.232  0.00  0.00    +0.000 F 
ATOM     35  F   UNL     1      -2.990   9.408  17.938  0.00  0.00    +0.000 F 
ATOM     36  F   UNL     1      -2.594   9.510  15.801  0.00  0.00    +0.000 F 
ENDBRANCH  32  33
ENDBRANCH  29  32
ENDBRANCH  27  28
ENDBRANCH  19  21
ENDBRANCH   1  19
TORSDOF 9
ENDMDL
MODEL 5
REMARK VINA RESULT:      -8.5      0.702      1.149
REMARK  Name = 
REMARK  12 active torsions:
REMARK  status: ('A' for Active; 'I' for Inactive)
REMARK    1  A    between atoms: C_1  and  O_2
REMARK    2  A    between atoms: O_2  and  C_3
REMARK    3  A    between atoms: C_3  and  C_5
REMARK    4  A    between atoms: C_10  and  C_11
REMARK    5  A    between atoms: C_14  and  C_15
REMARK    6  A    between atoms: C_15  and  C_16
REMARK    7  A    between atoms: C_15  and  N_17
REMARK    8  A    between atoms: N_17  and  C_18
REMARK    9  A    between atoms: C_22  and  C_23
REMARK   10  A    between atoms: C_24  and  N_25
REMARK   11  A    between atoms: C_26  and  C_28
REMARK   12  A    between atoms: C_28  and  C_29
REMARK                            x       y       z     vdW  Elec       q    Type
REMARK                         _______ _______ _______ _____ _____    ______ ____
ROOT
ATOM      1  C   UNL     1       2.209   7.474  18.720  0.00  0.00    +0.000 C 
ATOM      2  C   UNL     1       3.131   8.138  17.670  0.00  0.00    +0.000 C 
ENDROOT
BRANCH   1   6
ATOM      3  C   UNL     1       0.237  10.740  20.914  0.00  0.00    +0.000 A 
ATOM      4  C   UNL     1       0.244  10.689  19.512  0.00  0.00    +0.000 A 
ATOM      5  C   UNL     1       0.851   9.630  18.810  0.00  0.00    +0.000 A 
ATOM      6  C   UNL     1       1.434   8.552  19.488  0.00  0.00    +0.000 A 
ATOM      7  C   UNL     1       1.336   8.543  20.885  0.00  0.00    +0.000 A 
ATOM      8  C   UNL     1       0.782   9.623  21.579  0.00  0.00    +0.000 A 
BRANCH   3  14
ATOM      9  C   UNL     1       0.189  13.200  21.714  0.00  0.00    +0.000 A 
ATOM     10  C   UNL     1      -0.412  14.196  22.520  0.00  0.00    +0.000 A 
ATOM     11  C   UNL     1      -1.496  13.901  23.341  0.00  0.00    +0.000 A 
ATOM     12  C   UNL     1      -2.003  12.613  23.359  0.00  0.00    +0.000 A 
ATOM     13  C   UNL     1      -1.434  11.630  22.542  0.00  0.00    +0.000 A 
ATOM     14  C   UNL     1      -0.321  11.879  21.704  0.00  0.00    +0.000 A 
BRANCH   9  15
ATOM     15  C   UNL     1       1.422  13.604  20.989  0.00  0.00    +0.000 C 
ATOM     16  O   UNL     1       2.561  13.394  21.363  0.00  0.00    +0.000 OA
BRANCH  15  18
ATOM     17  C   UNL     1       1.862  15.398  19.545  0.00  0.00    +0.000 C 
ATOM     18  O   UNL     1       1.072  14.242  19.834  0.00  0.00    +0.000 OA
ENDBRANCH  15  18
ENDBRANCH   9  15
ENDBRANCH   3  14
ENDBRANCH   1   6
BRANCH   1  19
ATOM     19  N   UNL     1       2.944   6.628  19.695  0.00  0.00    +0.000 N 
ATOM     20  H   UNL     1       3.934   6.642  19.470  0.00  0.00    +0.000 HD
BRANCH  19  21
ATOM     21  C   UNL     1       2.534   5.263  19.737  0.00  0.00    +0.000 A 
ATOM     22  N   UNL     1       1.583   4.922  20.629  0.00  0.00    +0.000 NA
ATOM     23  C   UNL     1       1.045   3.698  20.555  0.00  0.00    +0.000 A 
ATOM     24  C   UNL     1       1.464   2.749  19.653  0.00  0.00    +0.000 A 
ATOM     25  C   UNL     1       2.526   3.034  18.781  0.00  0.00    +0.000 A 
ATOM     26  C   UNL     1       2.936   1.892  17.898  0.00  0.00    +0.000 C 
ATOM     27  C   UNL     1       3.097   4.325  18.813  0.00  0.00    +0.000 A 
BRANCH  27  28
ATOM     28  N   UNL     1       4.193   4.818  18.033  0.00  0.00    +0.000 N 
ATOM     29  C   UNL     1       5.559   4.649  18.162  0.00  0.00    +0.000 C 
ATOM     30  O   UNL     1       6.167   4.024  19.020  0.00  0.00    +0.000 OA
ATOM     31  H   UNL     1       3.867   5.456  17.311  0.00  0.00    +0.000 HD
BRANCH  29  32
ATOM     32  C   UNL     1       6.364   5.312  17.085  0.00  0.00    +0.000 C 
BRANCH  32  33
ATOM     33  C   UNL     1       6.169   4.563  15.797  0.00  0.00    +0.000 C 
ATOM     34  F   UNL     1       5.187   5.062  15.018  0.00  0.00    +0.000 F 
ATOM     35  F   UNL     1       7.309   4.615  15.064  0.00  0.00    +0.000 F 
ATOM     36  F   UNL     1       5.901   3.257  16.017  0.00  0.00    +0.000 F 
ENDBRANCH  32  33
ENDBRANCH  29  32
ENDBRANCH  27  28
ENDBRANCH  19  21
ENDBRANCH   1  19
TORSDOF 9
ENDMDL
MODEL 6
REMARK VINA RESULT:      -8.5      4.466      9.669
REMARK  Name = 
REMARK  12 active torsions:
REMARK  status: ('A' for Active; 'I' for Inactive)
REMARK    1  A    between atoms: C_1  and  O_2
REMARK    2  A    between atoms: O_2  and  C_3
REMARK    3  A    between atoms: C_3  and  C_5
REMARK    4  A    between atoms: C_10  and  C_11
REMARK    5  A    between atoms: C_14  and  C_15
REMARK    6  A    between atoms: C_15  and  C_16
REMARK    7  A    between atoms: C_15  and  N_17
REMARK    8  A    between atoms: N_17  and  C_18
REMARK    9  A    between atoms: C_22  and  C_23
REMARK   10  A    between atoms: C_24  and  N_25
REMARK   11  A    between atoms: C_26  and  C_28
REMARK   12  A    between atoms: C_28  and  C_29
REMARK                            x       y       z     vdW  Elec       q    Type
REMARK                         _______ _______ _______ _____ _____    ______ ____
ROOT
ATOM      1  C   UNL     1       0.094   9.386  20.892  0.00  0.00    +0.000 C 
ATOM      2  C   UNL     1      -0.101   8.741  22.284  0.00  0.00    +0.000 C 
ENDROOT
BRANCH   1   6
ATOM      3  C   UNL     1       2.909   7.018  18.477  0.00  0.00    +0.000 A 
ATOM      4  C   UNL     1       2.396   8.243  18.025  0.00  0.00    +0.000 A 
ATOM      5  C   UNL     1       1.517   9.015  18.810  0.00  0.00    +0.000 A 
ATOM      6  C   UNL     1       1.155   8.611  20.101  0.00  0.00    +0.000 A 
ATOM      7  C   UNL     1       1.748   7.444  20.599  0.00  0.00    +0.000 A 
ATOM      8  C   UNL     1       2.576   6.653  19.796  0.00  0.00    +0.000 A 
BRANCH   3  14
ATOM      9  C   UNL     1       3.490   4.781  17.315  0.00  0.00    +0.000 A 
ATOM     10  C   UNL     1       4.402   4.022  16.543  0.00  0.00    +0.000 A 
ATOM     11  C   UNL     1       5.613   4.562  16.122  0.00  0.00    +0.000 A 
ATOM     12  C   UNL     1       5.924   5.870  16.453  0.00  0.00    +0.000 A 
ATOM     13  C   UNL     1       5.015   6.636  17.189  0.00  0.00    +0.000 A 
ATOM     14  C   UNL     1       3.779   6.125  17.653  0.00  0.00    +0.000 A 
BRANCH   9  15
ATOM     15  C   UNL     1       2.297   4.051  17.819  0.00  0.00    +0.000 C 
ATOM     16  O   UNL     1       1.167   4.157  17.381  0.00  0.00    +0.000 OA
BRANCH  15  18
ATOM     17  C   UNL     1       1.598   2.840  19.700  0.00  0.00    +0.000 C 
ATOM     18  O   UNL     1       2.674   3.238  18.850  0.00  0.00    +0.000 OA
ENDBRANCH  15  18
ENDBRANCH   9  15
ENDBRANCH   3  14
ENDBRANCH   1   6
BRANCH   1  19
ATOM     19  N   UNL     1       0.497  10.815  20.958  0.00  0.00    +0.000 N 
ATOM     20  H   UNL     1       1.300  10.907  21.574  0.00  0.00    +0.000 HD
BRANCH  19  21
ATOM     21  C   UNL     1      -0.510  11.704  21.432  0.00  0.00    +0.000 A 
ATOM     22  N   UNL     1      -0.308  12.304  22.622  0.00  0.00    +0.000 NA
ATOM     23  C   UNL     1      -1.140  13.284  22.995  0.00  0.00    +0.000 A 
ATOM     24  C   UNL     1      -2.231  13.664  22.251  0.00  0.00    +0.000 A 
ATOM     25  C   UNL     1      -2.534  12.988  21.059  0.00  0.00    +0.000 A 
ATOM     26  C   UNL     1      -3.790  13.449  20.379  0.00  0.00    +0.000 C 
ATOM     27  C   UNL     1      -1.661  11.968  20.622  0.00  0.00    +0.000 A 
BRANCH  27  28
ATOM     28  N   UNL     1      -1.791  11.144  19.457  0.00  0.00    +0.000 N 
ATOM     29  C   UNL     1      -1.549  11.401  18.121  0.00  0.00    +0.000 C 
ATOM     30  O   UNL     1      -1.166  12.443  17.607  0.00  0.00    +0.000 OA
ATOM     31  H   UNL     1      -2.204  10.244  19.693  0.00  0.00    +0.000 HD
BRANCH  29  32
ATOM     32  C   UNL     1      -1.775  10.225  17.218  0.00  0.00    +0.000 C 
BRANCH  32  33
ATOM     33  C   UNL     1      -2.992  10.483  16.374  0.00  0.00    +0.000 C 
ATOM     34  F   UNL     1      -4.021  11.032  17.052  0.00  0.00    +0.000 F 
ATOM     35  F   UNL     1      -2.678  11.348  15.378  0.00  0.00    +0.000 F 
ATOM     36  F   UNL     1      -3.439   9.351  15.788  0.00  0.00    +0.000 F 
ENDBRANCH  32  33
ENDBRANCH  29  32
ENDBRANCH  27  28
ENDBRANCH  19  21
ENDBRANCH   1  19
TORSDOF 9
ENDMDL
MODEL 7
REMARK VINA RESULT:      -8.4      1.138      1.259
REMARK  Name = 
REMARK  12 active torsions:
REMARK  status: ('A' for Active; 'I' for Inactive)
REMARK    1  A    between atoms: C_1  and  O_2
REMARK    2  A    between atoms: O_2  and  C_3
REMARK    3  A    between atoms: C_3  and  C_5
REMARK    4  A    between atoms: C_10  and  C_11
REMARK    5  A    between atoms: C_14  and  C_15
REMARK    6  A    between atoms: C_15  and  C_16
REMARK    7  A    between atoms: C_15  and  N_17
REMARK    8  A    between atoms: N_17  and  C_18
REMARK    9  A    between atoms: C_22  and  C_23
REMARK   10  A    between atoms: C_24  and  N_25
REMARK   11  A    between atoms: C_26  and  C_28
REMARK   12  A    between atoms: C_28  and  C_29
REMARK                            x       y       z     vdW  Elec       q    Type
REMARK                         _______ _______ _______ _____ _____    ______ ____
ROOT
ATOM      1  C   UNL     1       2.233   7.136  18.967  0.00  0.00    +0.000 C 
ATOM      2  C   UNL     1       3.142   7.610  17.809  0.00  0.00    +0.000 C 
ENDROOT
BRANCH   1   6
ATOM      3  C   UNL     1       0.388  10.470  21.167  0.00  0.00    +0.000 A 
ATOM      4  C   UNL     1       0.966   9.378  21.830  0.00  0.00    +0.000 A 
ATOM      5  C   UNL     1       1.582   8.324  21.126  0.00  0.00    +0.000 A 
ATOM      6  C   UNL     1       1.684   8.349  19.730  0.00  0.00    +0.000 A 
ATOM      7  C   UNL     1       1.205   9.487  19.070  0.00  0.00    +0.000 A 
ATOM      8  C   UNL     1       0.545  10.504  19.768  0.00  0.00    +0.000 A 
BRANCH   3  14
ATOM      9  C   UNL     1      -0.027  12.949  21.783  0.00  0.00    +0.000 A 
ATOM     10  C   UNL     1      -0.783  13.905  22.503  0.00  0.00    +0.000 A 
ATOM     11  C   UNL     1      -1.837  13.518  23.325  0.00  0.00    +0.000 A 
ATOM     12  C   UNL     1      -2.159  12.175  23.429  0.00  0.00    +0.000 A 
ATOM     13  C   UNL     1      -1.436  11.228  22.697  0.00  0.00    +0.000 A 
ATOM     14  C   UNL     1      -0.346  11.572  21.861  0.00  0.00    +0.000 A 
BRANCH   9  15
ATOM     15  C   UNL     1       1.157  13.471  21.051  0.00  0.00    +0.000 C 
ATOM     16  O   UNL     1       2.301  13.470  21.467  0.00  0.00    +0.000 OA
BRANCH  15  18
ATOM     17  C   UNL     1       1.738  14.745  19.170  0.00  0.00    +0.000 C 
ATOM     18  O   UNL     1       0.756  13.948  19.836  0.00  0.00    +0.000 OA
ENDBRANCH  15  18
ENDBRANCH   9  15
ENDBRANCH   3  14
ENDBRANCH   1   6
BRANCH   1  19
ATOM     19  N   UNL     1       2.925   6.240  19.929  0.00  0.00    +0.000 N 
ATOM     20  H   UNL     1       3.927   6.292  19.772  0.00  0.00    +0.000 HD
BRANCH  19  21
ATOM     21  C   UNL     1       2.550   4.867  19.850  0.00  0.00    +0.000 A 
ATOM     22  N   UNL     1       1.281   4.545  20.167  0.00  0.00    +0.000 NA
ATOM     23  C   UNL     1       0.853   3.301  19.915  0.00  0.00    +0.000 A 
ATOM     24  C   UNL     1       1.669   2.318  19.409  0.00  0.00    +0.000 A 
ATOM     25  C   UNL     1       3.025   2.588  19.168  0.00  0.00    +0.000 A 
ATOM     26  C   UNL     1       3.822   1.412  18.685  0.00  0.00    +0.000 C 
ATOM     27  C   UNL     1       3.501   3.897  19.396  0.00  0.00    +0.000 A 
BRANCH  27  28
ATOM     28  N   UNL     1       4.840   4.382  19.238  0.00  0.00    +0.000 N 
ATOM     29  C   UNL     1       5.654   4.481  18.125  0.00  0.00    +0.000 C 
ATOM     30  O   UNL     1       5.407   4.148  16.975  0.00  0.00    +0.000 OA
ATOM     31  H   UNL     1       5.250   4.618  20.140  0.00  0.00    +0.000 HD
BRANCH  29  32
ATOM     32  C   UNL     1       6.993   5.098  18.396  0.00  0.00    +0.000 C 
BRANCH  32  33
ATOM     33  C   UNL     1       7.095   6.396  17.645  0.00  0.00    +0.000 C 
ATOM     34  F   UNL     1       7.973   7.270  18.178  0.00  0.00    +0.000 F 
ATOM     35  F   UNL     1       7.510   6.155  16.377  0.00  0.00    +0.000 F 
ATOM     36  F   UNL     1       5.897   7.014  17.557  0.00  0.00    +0.000 F 
ENDBRANCH  32  33
ENDBRANCH  29  32
ENDBRANCH  27  28
ENDBRANCH  19  21
ENDBRANCH   1  19
TORSDOF 9
ENDMDL
MODEL 8
REMARK VINA RESULT:      -8.4      2.283      2.895
REMARK  Name = 
REMARK  12 active torsions:
REMARK  status: ('A' for Active; 'I' for Inactive)
REMARK    1  A    between atoms: C_1  and  O_2
REMARK    2  A    between atoms: O_2  and  C_3
REMARK    3  A    between atoms: C_3  and  C_5
REMARK    4  A    between atoms: C_10  and  C_11
REMARK    5  A    between atoms: C_14  and  C_15
REMARK    6  A    between atoms: C_15  and  C_16
REMARK    7  A    between atoms: C_15  and  N_17
REMARK    8  A    between atoms: N_17  and  C_18
REMARK    9  A    between atoms: C_22  and  C_23
REMARK   10  A    between atoms: C_24  and  N_25
REMARK   11  A    between atoms: C_26  and  C_28
REMARK   12  A    between atoms: C_28  and  C_29
REMARK                            x       y       z     vdW  Elec       q    Type
REMARK                         _______ _______ _______ _____ _____    ______ ____
ROOT
ATOM      1  C   UNL     1       2.803   6.911  18.355  0.00  0.00    +0.000 C 
ATOM      2  C   UNL     1       3.865   7.373  17.330  0.00  0.00    +0.000 C 
ENDROOT
BRANCH   1   6
ATOM      3  C   UNL     1       0.102  10.161  19.582  0.00  0.00    +0.000 A 
ATOM      4  C   UNL     1       0.606   9.231  20.504  0.00  0.00    +0.000 A 
ATOM      5  C   UNL     1       1.493   8.208  20.116  0.00  0.00    +0.000 A 
ATOM      6  C   UNL     1       1.948   8.106  18.795  0.00  0.00    +0.000 A 
ATOM      7  C   UNL     1       1.534   9.095  17.895  0.00  0.00    +0.000 A 
ATOM      8  C   UNL     1       0.610  10.075  18.271  0.00  0.00    +0.000 A 
BRANCH   3  14
ATOM      9  C   UNL     1      -2.120  11.441  19.243  0.00  0.00    +0.000 A 
ATOM     10  C   UNL     1      -2.987  12.486  19.647  0.00  0.00    +0.000 A 
ATOM     11  C   UNL     1      -2.653  13.331  20.701  0.00  0.00    +0.000 A 
ATOM     12  C   UNL     1      -1.460  13.137  21.375  0.00  0.00    +0.000 A 
ATOM     13  C   UNL     1      -0.613  12.088  21.002  0.00  0.00    +0.000 A 
ATOM     14  C   UNL     1      -0.901  11.214  19.926  0.00  0.00    +0.000 A 
BRANCH   9  15
ATOM     15  C   UNL     1      -2.521  10.697  18.020  0.00  0.00    +0.000 C 
ATOM     16  O   UNL     1      -2.997   9.577  18.000  0.00  0.00    +0.000 OA
BRANCH  15  18
ATOM     17  C   UNL     1      -2.854  10.975  15.716  0.00  0.00    +0.000 C 
ATOM     18  O   UNL     1      -2.276  11.474  16.925  0.00  0.00    +0.000 OA
ENDBRANCH  15  18
ENDBRANCH   9  15
ENDBRANCH   3  14
ENDBRANCH   1   6
BRANCH   1  19
ATOM     19  N   UNL     1       3.390   6.274  19.563  0.00  0.00    +0.000 N 
ATOM     20  H   UNL     1       4.403   6.297  19.493  0.00  0.00    +0.000 HD
BRANCH  19  21
ATOM     21  C   UNL     1       3.007   4.918  19.774  0.00  0.00    +0.000 A 
ATOM     22  N   UNL     1       1.946   4.683  20.572  0.00  0.00    +0.000 NA
ATOM     23  C   UNL     1       1.450   3.441  20.630  0.00  0.00    +0.000 A 
ATOM     24  C   UNL     1       2.013   2.378  19.964  0.00  0.00    +0.000 A 
ATOM     25  C   UNL     1       3.181   2.565  19.209  0.00  0.00    +0.000 A 
ATOM     26  C   UNL     1       3.735   1.314  18.592  0.00  0.00    +0.000 C 
ATOM     27  C   UNL     1       3.714   3.868  19.105  0.00  0.00    +0.000 A 
BRANCH  27  28
ATOM     28  N   UNL     1       4.900   4.276  18.410  0.00  0.00    +0.000 N 
ATOM     29  C   UNL     1       6.108   4.764  18.869  0.00  0.00    +0.000 C 
ATOM     30  O   UNL     1       6.448   4.981  20.024  0.00  0.00    +0.000 OA
ATOM     31  H   UNL     1       4.757   4.252  17.403  0.00  0.00    +0.000 HD
BRANCH  29  32
ATOM     32  C   UNL     1       7.114   5.030  17.789  0.00  0.00    +0.000 C 
BRANCH  32  33
ATOM     33  C   UNL     1       7.449   6.495  17.782  0.00  0.00    +0.000 C 
ATOM     34  F   UNL     1       6.415   7.294  18.116  0.00  0.00    +0.000 F 
ATOM     35  F   UNL     1       8.434   6.739  18.682  0.00  0.00    +0.000 F 
ATOM     36  F   UNL     1       7.909   6.894  16.577  0.00  0.00    +0.000 F 
ENDBRANCH  32  33
ENDBRANCH  29  32
ENDBRANCH  27  28
ENDBRANCH  19  21
ENDBRANCH   1  19
TORSDOF 9
ENDMDL
MODEL 9
REMARK VINA RESULT:      -8.4      0.682      1.190
REMARK  Name = 
REMARK  12 active torsions:
REMARK  status: ('A' for Active; 'I' for Inactive)
REMARK    1  A    between atoms: C_1  and  O_2
REMARK    2  A    between atoms: O_2  and  C_3
REMARK    3  A    between atoms: C_3  and  C_5
REMARK    4  A    between atoms: C_10  and  C_11
REMARK    5  A    between atoms: C_14  and  C_15
REMARK    6  A    between atoms: C_15  and  C_16
REMARK    7  A    between atoms: C_15  and  N_17
REMARK    8  A    between atoms: N_17  and  C_18
REMARK    9  A    between atoms: C_22  and  C_23
REMARK   10  A    between atoms: C_24  and  N_25
REMARK   11  A    between atoms: C_26  and  C_28
REMARK   12  A    between atoms: C_28  and  C_29
REMARK                            x       y       z     vdW  Elec       q    Type
REMARK                         _______ _______ _______ _____ _____    ______ ____
ROOT
ATOM      1  C   UNL     1       2.075   7.390  19.013  0.00  0.00    +0.000 C 
ATOM      2  C   UNL     1       2.784   7.883  17.730  0.00  0.00    +0.000 C 
ENDROOT
BRANCH   1   6
ATOM      3  C   UNL     1       0.209  10.677  21.266  0.00  0.00    +0.000 A 
ATOM      4  C   UNL     1       0.793   9.577  21.911  0.00  0.00    +0.000 A 
ATOM      5  C   UNL     1       1.415   8.539  21.191  0.00  0.00    +0.000 A 
ATOM      6  C   UNL     1       1.519   8.587  19.795  0.00  0.00    +0.000 A 
ATOM      7  C   UNL     1       1.034   9.733  19.154  0.00  0.00    +0.000 A 
ATOM      8  C   UNL     1       0.368  10.735  19.868  0.00  0.00    +0.000 A 
BRANCH   3  14
ATOM      9  C   UNL     1      -0.247  13.148  21.887  0.00  0.00    +0.000 A 
ATOM     10  C   UNL     1      -1.006  14.087  22.625  0.00  0.00    +0.000 A 
ATOM     11  C   UNL     1      -2.028  13.677  23.477  0.00  0.00    +0.000 A 
ATOM     12  C   UNL     1      -2.314  12.328  23.593  0.00  0.00    +0.000 A 
ATOM     13  C   UNL     1      -1.589  11.396  22.844  0.00  0.00    +0.000 A 
ATOM     14  C   UNL     1      -0.531  11.763  21.977  0.00  0.00    +0.000 A 
BRANCH   9  15
ATOM     15  C   UNL     1       0.902  13.696  21.121  0.00  0.00    +0.000 C 
ATOM     16  O   UNL     1       0.893  13.973  19.936  0.00  0.00    +0.000 OA
BRANCH  15  18
ATOM     17  C   UNL     1       2.632  15.104  21.844  0.00  0.00    +0.000 C 
ATOM     18  O   UNL     1       1.969  13.843  21.960  0.00  0.00    +0.000 OA
ENDBRANCH  15  18
ENDBRANCH   9  15
ENDBRANCH   3  14
ENDBRANCH   1   6
BRANCH   1  19
ATOM     19  N   UNL     1       2.962   6.604  19.910  0.00  0.00    +0.000 N 
ATOM     20  H   UNL     1       3.924   6.707  19.601  0.00  0.00    +0.000 HD
BRANCH  19  21
ATOM     21  C   UNL     1       2.677   5.209  19.967  0.00  0.00    +0.000 A 
ATOM     22  N   UNL     1       1.798   4.787  20.897  0.00  0.00    +0.000 NA
ATOM     23  C   UNL     1       1.368   3.519  20.844  0.00  0.00    +0.000 A 
ATOM     24  C   UNL     1       1.832   2.609  19.925  0.00  0.00    +0.000 A 
ATOM     25  C   UNL     1       2.828   2.985  19.009  0.00  0.00    +0.000 A 
ATOM     26  C   UNL     1       3.300   1.882  18.108  0.00  0.00    +0.000 C 
ATOM     27  C   UNL     1       3.282   4.322  19.020  0.00  0.00    +0.000 A 
BRANCH  27  28
ATOM     28  N   UNL     1       4.297   4.908  18.195  0.00  0.00    +0.000 N 
ATOM     29  C   UNL     1       5.675   4.819  18.236  0.00  0.00    +0.000 C 
ATOM     30  O   UNL     1       6.371   4.204  19.031  0.00  0.00    +0.000 OA
ATOM     31  H   UNL     1       3.889   5.551  17.519  0.00  0.00    +0.000 HD
BRANCH  29  32
ATOM     32  C   UNL     1       6.372   5.568  17.139  0.00  0.00    +0.000 C 
BRANCH  32  33
ATOM     33  C   UNL     1       6.203   4.815  15.849  0.00  0.00    +0.000 C 
ATOM     34  F   UNL     1       5.894   3.513  16.013  0.00  0.00    +0.000 F 
ATOM     35  F   UNL     1       5.192   5.366  15.132  0.00  0.00    +0.000 F 
ATOM     36  F   UNL     1       7.313   4.886  15.083  0.00  0.00    +0.000 F 
ENDBRANCH  32  33
ENDBRANCH  29  32
ENDBRANCH  27  28
ENDBRANCH  19  21
ENDBRANCH   1  19
TORSDOF 9
ENDMDL
