MODEL 1
REMARK VINA RESULT:      -7.8      0.000      0.000
REMARK  Name = 
REMARK  9 active torsions:
REMARK  status: ('A' for Active; 'I' for Inactive)
REMARK    1  A    between atoms: C_1  and  C_2
REMARK    2  A    between atoms: C_6  and  C_7
REMARK    3  A    between atoms: C_8  and  N_9
REMARK    4  A    between atoms: C_10  and  C_12
REMARK    5  A    between atoms: C_12  and  C_13
REMARK    6  A    between atoms: C_13  and  S_14
REMARK    7  A    between atoms: S_14  and  C_17
REMARK    8  A    between atoms: N_23  and  C_24
REMARK    9  A    between atoms: N_29  and  C_30
REMARK                            x       y       z     vdW  Elec       q    Type
REMARK                         _______ _______ _______ _____ _____    ______ ____
ROOT
ATOM      1  S   UNL     1       0.732   9.661  20.706  0.00  0.00    +0.000 S 
ATOM      2  O   UNL     1       1.315   9.658  22.031  0.00  0.00    +0.000 OA
ATOM      3  O   UNL     1      -0.676   9.355  20.526  0.00  0.00    +0.000 OA
ENDROOT
BRANCH   1   4
ATOM      4  C   UNL     1       1.661   8.482  19.745  0.00  0.00    +0.000 A 
ATOM      5  C   UNL     1       2.221   8.886  18.540  0.00  0.00    +0.000 A 
ATOM      6  C   UNL     1       3.023   7.996  17.827  0.00  0.00    +0.000 A 
ATOM      7  C   UNL     1       3.270   6.690  18.295  0.00  0.00    +0.000 A 
ATOM      8  C   UNL     1       2.700   6.278  19.521  0.00  0.00    +0.000 A 
ATOM      9  C   UNL     1       1.925   7.202  20.250  0.00  0.00    +0.000 A 
ATOM     10  N   UNL     1       2.917   4.948  19.981  0.00  0.00    +0.000 N 
ATOM     11  C   UNL     1       2.299   4.403  21.177  0.00  0.00    +0.000 C 
ATOM     12  C   UNL     1       3.681   4.029  19.252  0.00  0.00    +0.000 A 
ATOM     13  O   UNL     1       3.828   2.858  19.599  0.00  0.00    +0.000 OA
ATOM     14  C   UNL     1       4.356   4.503  17.966  0.00  0.00    +0.000 A 
ATOM     15  O   UNL     1       5.092   3.727  17.366  0.00  0.00    +0.000 OA
ATOM     16  N   UNL     1       4.094   5.806  17.542  0.00  0.00    +0.000 N 
ATOM     17  C   UNL     1       4.729   6.251  16.312  0.00  0.00    +0.000 C 
ENDBRANCH   1   4
BRANCH   1  18
ATOM     18  C   UNL     1       1.051  11.253  19.994  0.00  0.00    +0.000 C 
BRANCH  18  19
ATOM     19  C   UNL     1       0.237  12.388  20.583  0.00  0.00    +0.000 C 
BRANCH  19  21
ATOM     20  N   UNL     1      -2.013  11.816  19.833  0.00  0.00    +0.000 N 
ATOM     21  C   UNL     1      -0.938  12.677  19.660  0.00  0.00    +0.000 C 
ATOM     22  O   UNL     1      -0.882  13.615  18.873  0.00  0.00    +0.000 OA
ATOM     23  H   UNL     1      -1.760  10.896  20.173  0.00  0.00    +0.000 HD
BRANCH  20  31
ATOM     24  C   UNL     1      -4.520  13.259  20.698  0.00  0.00    +0.000 C 
ATOM     25  C   UNL     1      -4.368  12.497  19.410  0.00  0.00    +0.000 A 
ATOM     26  C   UNL     1      -5.519  12.378  18.603  0.00  0.00    +0.000 A 
ATOM     27  C   UNL     1      -5.505  11.638  17.426  0.00  0.00    +0.000 A 
ATOM     28  C   UNL     1      -4.337  11.001  17.033  0.00  0.00    +0.000 A 
ATOM     29  C   UNL     1      -3.172  11.084  17.817  0.00  0.00    +0.000 A 
ATOM     30  C   UNL     1      -1.937  10.400  17.293  0.00  0.00    +0.000 C 
ATOM     31  C   UNL     1      -3.179  11.842  19.014  0.00  0.00    +0.000 A 
ENDBRANCH  20  31
ENDBRANCH  19  21
ENDBRANCH  18  19
ENDBRANCH   1  18
TORSDOF 5
ENDMDL
MODEL 2
REMARK VINA RESULT:      -7.7      2.517      3.949
REMARK  Name = 
REMARK  9 active torsions:
REMARK  status: ('A' for Active; 'I' for Inactive)
REMARK    1  A    between atoms: C_1  and  C_2
REMARK    2  A    between atoms: C_6  and  C_7
REMARK    3  A    between atoms: C_8  and  N_9
REMARK    4  A    between atoms: C_10  and  C_12
REMARK    5  A    between atoms: C_12  and  C_13
REMARK    6  A    between atoms: C_13  and  S_14
REMARK    7  A    between atoms: S_14  and  C_17
REMARK    8  A    between atoms: N_23  and  C_24
REMARK    9  A    between atoms: N_29  and  C_30
REMARK                            x       y       z     vdW  Elec       q    Type
REMARK                         _______ _______ _______ _____ _____    ______ ____
ROOT
ATOM      1  S   UNL     1       0.322   9.076  21.326  0.00  0.00    +0.000 S 
ATOM      2  O   UNL     1       1.219   9.716  22.266  0.00  0.00    +0.000 OA
ATOM      3  O   UNL     1      -0.754   8.225  21.805  0.00  0.00    +0.000 OA
ENDROOT
BRANCH   1   4
ATOM      4  C   UNL     1       1.342   8.089  20.247  0.00  0.00    +0.000 A 
ATOM      5  C   UNL     1       1.865   8.669  19.099  0.00  0.00    +0.000 A 
ATOM      6  C   UNL     1       2.736   7.931  18.297  0.00  0.00    +0.000 A 
ATOM      7  C   UNL     1       3.087   6.604  18.620  0.00  0.00    +0.000 A 
ATOM      8  C   UNL     1       2.554   6.014  19.788  0.00  0.00    +0.000 A 
ATOM      9  C   UNL     1       1.708   6.786  20.610  0.00  0.00    +0.000 A 
ATOM     10  N   UNL     1       2.879   4.663  20.100  0.00  0.00    +0.000 N 
ATOM     11  C   UNL     1       2.308   3.941  21.223  0.00  0.00    +0.000 C 
ATOM     12  C   UNL     1       3.712   3.895  19.279  0.00  0.00    +0.000 A 
ATOM     13  O   UNL     1       3.954   2.709  19.496  0.00  0.00    +0.000 OA
ATOM     14  C   UNL     1       4.346   4.562  18.059  0.00  0.00    +0.000 A 
ATOM     15  O   UNL     1       5.141   3.918  17.382  0.00  0.00    +0.000 OA
ATOM     16  N   UNL     1       3.979   5.878  17.780  0.00  0.00    +0.000 N 
ATOM     17  C   UNL     1       4.575   6.507  16.611  0.00  0.00    +0.000 C 
ENDBRANCH   1   4
BRANCH   1  18
ATOM     18  C   UNL     1      -0.386  10.354  20.320  0.00  0.00    +0.000 C 
BRANCH  18  19
ATOM     19  C   UNL     1      -0.794  11.603  21.074  0.00  0.00    +0.000 C 
BRANCH  19  21
ATOM     20  N   UNL     1       0.052  13.217  19.452  0.00  0.00    +0.000 N 
ATOM     21  C   UNL     1       0.187  12.718  20.740  0.00  0.00    +0.000 C 
ATOM     22  O   UNL     1       0.984  13.106  21.587  0.00  0.00    +0.000 OA
ATOM     23  H   UNL     1      -0.312  12.551  18.783  0.00  0.00    +0.000 HD
BRANCH  20  31
ATOM     24  C   UNL     1       2.663  12.448  18.144  0.00  0.00    +0.000 C 
ATOM     25  C   UNL     1       2.159  13.857  18.295  0.00  0.00    +0.000 A 
ATOM     26  C   UNL     1       3.025  14.889  17.874  0.00  0.00    +0.000 A 
ATOM     27  C   UNL     1       2.686  16.227  18.031  0.00  0.00    +0.000 A 
ATOM     28  C   UNL     1       1.473  16.561  18.613  0.00  0.00    +0.000 A 
ATOM     29  C   UNL     1       0.587  15.563  19.059  0.00  0.00    +0.000 A 
ATOM     30  C   UNL     1      -0.728  16.013  19.637  0.00  0.00    +0.000 C 
ATOM     31  C   UNL     1       0.925  14.196  18.895  0.00  0.00    +0.000 A 
ENDBRANCH  20  31
ENDBRANCH  19  21
ENDBRANCH  18  19
ENDBRANCH   1  18
TORSDOF 5
ENDMDL
MODEL 3
REMARK VINA RESULT:      -7.7      0.191      1.600
REMARK  Name = 
REMARK  9 active torsions:
REMARK  status: ('A' for Active; 'I' for Inactive)
REMARK    1  A    between atoms: C_1  and  C_2
REMARK    2  A    between atoms: C_6  and  C_7
REMARK    3  A    between atoms: C_8  and  N_9
REMARK    4  A    between atoms: C_10  and  C_12
REMARK    5  A    between atoms: C_12  and  C_13
REMARK    6  A    between atoms: C_13  and  S_14
REMARK    7  A    between atoms: S_14  and  C_17
REMARK    8  A    between atoms: N_23  and  C_24
REMARK    9  A    between atoms: N_29  and  C_30
REMARK                            x       y       z     vdW  Elec       q    Type
REMARK                         _______ _______ _______ _____ _____    ______ ____
ROOT
ATOM      1  S   UNL     1       0.744   9.683  20.661  0.00  0.00    +0.000 S 
ATOM      2  O   UNL     1       1.414   9.807  21.939  0.00  0.00    +0.000 OA
ATOM      3  O   UNL     1      -0.656   9.300  20.604  0.00  0.00    +0.000 OA
ENDROOT
BRANCH   1   4
ATOM      4  C   UNL     1       1.666   8.479  19.723  0.00  0.00    +0.000 A 
ATOM      5  C   UNL     1       2.236   8.858  18.516  0.00  0.00    +0.000 A 
ATOM      6  C   UNL     1       3.033   7.949  17.821  0.00  0.00    +0.000 A 
ATOM      7  C   UNL     1       3.262   6.647  18.311  0.00  0.00    +0.000 A 
ATOM      8  C   UNL     1       2.680   6.260  19.540  0.00  0.00    +0.000 A 
ATOM      9  C   UNL     1       1.911   7.204  20.250  0.00  0.00    +0.000 A 
ATOM     10  N   UNL     1       2.880   4.935  20.022  0.00  0.00    +0.000 N 
ATOM     11  C   UNL     1       2.248   4.416  21.222  0.00  0.00    +0.000 C 
ATOM     12  C   UNL     1       3.637   3.997  19.312  0.00  0.00    +0.000 A 
ATOM     13  O   UNL     1       3.769   2.830  19.678  0.00  0.00    +0.000 OA
ATOM     14  C   UNL     1       4.325   4.443  18.023  0.00  0.00    +0.000 A 
ATOM     15  O   UNL     1       5.056   3.649  17.439  0.00  0.00    +0.000 OA
ATOM     16  N   UNL     1       4.080   5.742  17.577  0.00  0.00    +0.000 N 
ATOM     17  C   UNL     1       4.727   6.161  16.344  0.00  0.00    +0.000 C 
ENDBRANCH   1   4
BRANCH   1  18
ATOM     18  C   UNL     1       0.933  11.231  19.815  0.00  0.00    +0.000 C 
BRANCH  18  19
ATOM     19  C   UNL     1       0.152  12.383  20.416  0.00  0.00    +0.000 C 
BRANCH  19  21
ATOM     20  N   UNL     1      -2.066  11.707  19.660  0.00  0.00    +0.000 N 
ATOM     21  C   UNL     1      -1.062  12.658  19.542  0.00  0.00    +0.000 C 
ATOM     22  O   UNL     1      -1.096  13.660  18.837  0.00  0.00    +0.000 OA
ATOM     23  H   UNL     1      -1.738  10.784  19.916  0.00  0.00    +0.000 HD
BRANCH  20  31
ATOM     24  C   UNL     1      -2.128  10.487  16.899  0.00  0.00    +0.000 C 
ATOM     25  C   UNL     1      -3.294  11.163  17.566  0.00  0.00    +0.000 A 
ATOM     26  C   UNL     1      -4.466  11.313  16.796  0.00  0.00    +0.000 A 
ATOM     27  C   UNL     1      -5.578  11.983  17.292  0.00  0.00    +0.000 A 
ATOM     28  C   UNL     1      -5.540  12.516  18.571  0.00  0.00    +0.000 A 
ATOM     29  C   UNL     1      -4.386  12.400  19.367  0.00  0.00    +0.000 A 
ATOM     30  C   UNL     1      -4.445  12.968  20.760  0.00  0.00    +0.000 C 
ATOM     31  C   UNL     1      -3.251  11.713  18.868  0.00  0.00    +0.000 A 
ENDBRANCH  20  31
ENDBRANCH  19  21
ENDBRANCH  18  19
ENDBRANCH   1  18
TORSDOF 5
ENDMDL
MODEL 4
REMARK VINA RESULT:      -7.7      1.030      2.232
REMARK  Name = 
REMARK  9 active torsions:
REMARK  status: ('A' for Active; 'I' for Inactive)
REMARK    1  A    between atoms: C_1  and  C_2
REMARK    2  A    between atoms: C_6  and  C_7
REMARK    3  A    between atoms: C_8  and  N_9
REMARK    4  A    between atoms: C_10  and  C_12
REMARK    5  A    between atoms: C_12  and  C_13
REMARK    6  A    between atoms: C_13  and  S_14
REMARK    7  A    between atoms: S_14  and  C_17
REMARK    8  A    between atoms: N_23  and  C_24
REMARK    9  A    between atoms: N_29  and  C_30
REMARK                            x       y       z     vdW  Elec       q    Type
REMARK                         _______ _______ _______ _____ _____    ______ ____
ROOT
ATOM      1  S   UNL     1       0.903   8.979  21.093  0.00  0.00    +0.000 S 
ATOM      2  O   UNL     1       1.805   9.450  22.123  0.00  0.00    +0.000 OA
ATOM      3  O   UNL     1      -0.503   8.769  21.393  0.00  0.00    +0.000 OA
ENDROOT
BRANCH   1   4
ATOM      4  C   UNL     1       1.563   7.428  20.514  0.00  0.00    +0.000 A 
ATOM      5  C   UNL     1       1.165   6.252  21.136  0.00  0.00    +0.000 A 
ATOM      6  C   UNL     1       1.606   5.029  20.632  0.00  0.00    +0.000 A 
ATOM      7  C   UNL     1       2.458   4.959  19.512  0.00  0.00    +0.000 A 
ATOM      8  C   UNL     1       2.864   6.156  18.879  0.00  0.00    +0.000 A 
ATOM      9  C   UNL     1       2.377   7.382  19.375  0.00  0.00    +0.000 A 
ATOM     10  N   UNL     1       3.752   6.093  17.767  0.00  0.00    +0.000 N 
ATOM     11  C   UNL     1       4.299   7.267  17.112  0.00  0.00    +0.000 C 
ATOM     12  C   UNL     1       4.241   4.876  17.281  0.00  0.00    +0.000 A 
ATOM     13  O   UNL     1       5.059   4.802  16.364  0.00  0.00    +0.000 OA
ATOM     14  C   UNL     1       3.740   3.582  17.921  0.00  0.00    +0.000 A 
ATOM     15  O   UNL     1       4.102   2.511  17.446  0.00  0.00    +0.000 OA
ATOM     16  N   UNL     1       2.891   3.694  19.022  0.00  0.00    +0.000 N 
ATOM     17  C   UNL     1       2.424   2.462  19.637  0.00  0.00    +0.000 C 
ENDBRANCH   1   4
BRANCH   1  18
ATOM     18  C   UNL     1       1.018  10.113  19.734  0.00  0.00    +0.000 C 
BRANCH  18  19
ATOM     19  C   UNL     1       0.809  11.569  20.101  0.00  0.00    +0.000 C 
BRANCH  19  21
ATOM     20  N   UNL     1      -1.531  11.229  19.499  0.00  0.00    +0.000 N 
ATOM     21  C   UNL     1      -0.437  12.077  19.390  0.00  0.00    +0.000 C 
ATOM     22  O   UNL     1      -0.415  13.157  18.811  0.00  0.00    +0.000 OA
ATOM     23  H   UNL     1      -1.291  10.252  19.613  0.00  0.00    +0.000 HD
BRANCH  20  31
ATOM     24  C   UNL     1      -3.692  12.939  20.732  0.00  0.00    +0.000 C 
ATOM     25  C   UNL     1      -3.801  12.241  19.405  0.00  0.00    +0.000 A 
ATOM     26  C   UNL     1      -5.045  12.324  18.744  0.00  0.00    +0.000 A 
ATOM     27  C   UNL     1      -5.275  11.660  17.545  0.00  0.00    +0.000 A 
ATOM     28  C   UNL     1      -4.262  10.898  16.982  0.00  0.00    +0.000 A 
ATOM     29  C   UNL     1      -3.012  10.778  17.615  0.00  0.00    +0.000 A 
ATOM     30  C   UNL     1      -1.955   9.969  16.912  0.00  0.00    +0.000 C 
ATOM     31  C   UNL     1      -2.771  11.459  18.835  0.00  0.00    +0.000 A 
ENDBRANCH  20  31
ENDBRANCH  19  21
ENDBRANCH  18  19
ENDBRANCH   1  18
TORSDOF 5
ENDMDL
MODEL 5
REMARK VINA RESULT:      -7.5      2.289      3.715
REMARK  Name = 
REMARK  9 active torsions:
REMARK  status: ('A' for Active; 'I' for Inactive)
REMARK    1  A    between atoms: C_1  and  C_2
REMARK    2  A    between atoms: C_6  and  C_7
REMARK    3  A    between atoms: C_8  and  N_9
REMARK    4  A    between atoms: C_10  and  C_12
REMARK    5  A    between atoms: C_12  and  C_13
REMARK    6  A    between atoms: C_13  and  S_14
REMARK    7  A    between atoms: S_14  and  C_17
REMARK    8  A    between atoms: N_23  and  C_24
REMARK    9  A    between atoms: N_29  and  C_30
REMARK                            x       y       z     vdW  Elec       q    Type
REMARK                         _______ _______ _______ _____ _____    ______ ____
ROOT
ATOM      1  S   UNL     1       0.324   9.515  20.943  0.00  0.00    +0.000 S 
ATOM      2  O   UNL     1       1.219  10.314  21.753  0.00  0.00    +0.000 OA
ATOM      3  O   UNL     1      -0.679   8.674  21.574  0.00  0.00    +0.000 OA
ENDROOT
BRANCH   1   4
ATOM      4  C   UNL     1       1.355   8.457  19.945  0.00  0.00    +0.000 A 
ATOM      5  C   UNL     1       1.889   8.955  18.765  0.00  0.00    +0.000 A 
ATOM      6  C   UNL     1       2.768   8.165  18.025  0.00  0.00    +0.000 A 
ATOM      7  C   UNL     1       3.118   6.865  18.443  0.00  0.00    +0.000 A 
ATOM      8  C   UNL     1       2.574   6.357  19.645  0.00  0.00    +0.000 A 
ATOM      9  C   UNL     1       1.720   7.183  20.402  0.00  0.00    +0.000 A 
ATOM     10  N   UNL     1       2.898   5.032  20.054  0.00  0.00    +0.000 N 
ATOM     11  C   UNL     1       2.317   4.389  21.219  0.00  0.00    +0.000 C 
ATOM     12  C   UNL     1       3.740   4.210  19.297  0.00  0.00    +0.000 A 
ATOM     13  O   UNL     1       3.981   3.042  19.598  0.00  0.00    +0.000 OA
ATOM     14  C   UNL     1       4.385   4.791  18.039  0.00  0.00    +0.000 A 
ATOM     15  O   UNL     1       5.188   4.103  17.417  0.00  0.00    +0.000 OA
ATOM     16  N   UNL     1       4.019   6.083  17.665  0.00  0.00    +0.000 N 
ATOM     17  C   UNL     1       4.625   6.630  16.461  0.00  0.00    +0.000 C 
ENDBRANCH   1   4
BRANCH   1  18
ATOM     18  C   UNL     1      -0.498  10.617  19.823  0.00  0.00    +0.000 C 
BRANCH  18  19
ATOM     19  C   UNL     1      -1.141  11.824  20.476  0.00  0.00    +0.000 C 
BRANCH  19  21
ATOM     20  N   UNL     1       0.032  13.460  19.097  0.00  0.00    +0.000 N 
ATOM     21  C   UNL     1      -0.176  12.998  20.390  0.00  0.00    +0.000 C 
ATOM     22  O   UNL     1       0.321  13.459  21.411  0.00  0.00    +0.000 OA
ATOM     23  H   UNL     1      -0.084  12.755  18.379  0.00  0.00    +0.000 HD
BRANCH  20  31
ATOM     24  C   UNL     1      -0.714  16.382  19.247  0.00  0.00    +0.000 C 
ATOM     25  C   UNL     1       0.629  15.858  18.818  0.00  0.00    +0.000 A 
ATOM     26  C   UNL     1       1.567  16.811  18.366  0.00  0.00    +0.000 A 
ATOM     27  C   UNL     1       2.813  16.428  17.883  0.00  0.00    +0.000 A 
ATOM     28  C   UNL     1       3.147  15.083  17.844  0.00  0.00    +0.000 A 
ATOM     29  C   UNL     1       2.236  14.101  18.273  0.00  0.00    +0.000 A 
ATOM     30  C   UNL     1       2.696  12.668  18.239  0.00  0.00    +0.000 C 
ATOM     31  C   UNL     1       0.966  14.486  18.772  0.00  0.00    +0.000 A 
ENDBRANCH  20  31
ENDBRANCH  19  21
ENDBRANCH  18  19
ENDBRANCH   1  18
TORSDOF 5
ENDMDL
MODEL 6
REMARK VINA RESULT:      -7.5      2.204      9.538
REMARK  Name = 
REMARK  9 active torsions:
REMARK  status: ('A' for Active; 'I' for Inactive)
REMARK    1  A    between atoms: C_1  and  C_2
REMARK    2  A    between atoms: C_6  and  C_7
REMARK    3  A    between atoms: C_8  and  N_9
REMARK    4  A    between atoms: C_10  and  C_12
REMARK    5  A    between atoms: C_12  and  C_13
REMARK    6  A    between atoms: C_13  and  S_14
REMARK    7  A    between atoms: S_14  and  C_17
REMARK    8  A    between atoms: N_23  and  C_24
REMARK    9  A    between atoms: N_29  and  C_30
REMARK                            x       y       z     vdW  Elec       q    Type
REMARK                         _______ _______ _______ _____ _____    ______ ____
ROOT
ATOM      1  S   UNL     1       0.988  10.430  19.039  0.00  0.00    +0.000 S 
ATOM      2  O   UNL     1       1.139   9.982  20.407  0.00  0.00    +0.000 OA
ATOM      3  O   UNL     1       1.832  11.494  18.521  0.00  0.00    +0.000 OA
ENDROOT
BRANCH   1   4
ATOM      4  C   UNL     1      -0.705  10.960  18.865  0.00  0.00    +0.000 A 
ATOM      5  C   UNL     1      -1.482  10.413  17.853  0.00  0.00    +0.000 A 
ATOM      6  C   UNL     1      -2.831  10.755  17.767  0.00  0.00    +0.000 A 
ATOM      7  C   UNL     1      -3.422  11.655  18.677  0.00  0.00    +0.000 A 
ATOM      8  C   UNL     1      -2.631  12.213  19.707  0.00  0.00    +0.000 A 
ATOM      9  C   UNL     1      -1.279  11.826  19.806  0.00  0.00    +0.000 A 
ATOM     10  N   UNL     1      -3.215  13.149  20.608  0.00  0.00    +0.000 N 
ATOM     11  C   UNL     1      -2.463  13.846  21.636  0.00  0.00    +0.000 C 
ATOM     12  C   UNL     1      -4.555  13.538  20.503  0.00  0.00    +0.000 A 
ATOM     13  O   UNL     1      -5.061  14.392  21.230  0.00  0.00    +0.000 OA
ATOM     14  C   UNL     1      -5.423  12.875  19.436  0.00  0.00    +0.000 A 
ATOM     15  O   UNL     1      -6.618  13.152  19.392  0.00  0.00    +0.000 OA
ATOM     16  N   UNL     1      -4.803  11.984  18.561  0.00  0.00    +0.000 N 
ATOM     17  C   UNL     1      -5.630  11.362  17.538  0.00  0.00    +0.000 C 
ENDBRANCH   1   4
BRANCH   1  18
ATOM     18  C   UNL     1       1.180   9.010  17.995  0.00  0.00    +0.000 C 
BRANCH  18  19
ATOM     19  C   UNL     1       2.601   8.497  17.874  0.00  0.00    +0.000 C 
BRANCH  19  21
ATOM     20  N   UNL     1       3.370   6.182  17.852  0.00  0.00    +0.000 N 
ATOM     21  C   UNL     1       2.698   7.154  18.581  0.00  0.00    +0.000 C 
ATOM     22  O   UNL     1       2.221   7.015  19.703  0.00  0.00    +0.000 OA
ATOM     23  H   UNL     1       3.316   6.302  16.848  0.00  0.00    +0.000 HD
BRANCH  20  31
ATOM     24  C   UNL     1       1.145   4.182  17.448  0.00  0.00    +0.000 C 
ATOM     25  C   UNL     1       2.460   3.882  18.115  0.00  0.00    +0.000 A 
ATOM     26  C   UNL     1       2.611   2.594  18.669  0.00  0.00    +0.000 A 
ATOM     27  C   UNL     1       3.759   2.235  19.366  0.00  0.00    +0.000 A 
ATOM     28  C   UNL     1       4.781   3.160  19.521  0.00  0.00    +0.000 A 
ATOM     29  C   UNL     1       4.664   4.460  18.995  0.00  0.00    +0.000 A 
ATOM     30  C   UNL     1       5.838   5.386  19.170  0.00  0.00    +0.000 C 
ATOM     31  C   UNL     1       3.497   4.828  18.279  0.00  0.00    +0.000 A 
ENDBRANCH  20  31
ENDBRANCH  19  21
ENDBRANCH  18  19
ENDBRANCH   1  18
TORSDOF 5
ENDMDL
MODEL 7
REMARK VINA RESULT:      -7.5      2.351      3.996
REMARK  Name = 
REMARK  9 active torsions:
REMARK  status: ('A' for Active; 'I' for Inactive)
REMARK    1  A    between atoms: C_1  and  C_2
REMARK    2  A    between atoms: C_6  and  C_7
REMARK    3  A    between atoms: C_8  and  N_9
REMARK    4  A    between atoms: C_10  and  C_12
REMARK    5  A    between atoms: C_12  and  C_13
REMARK    6  A    between atoms: C_13  and  S_14
REMARK    7  A    between atoms: S_14  and  C_17
REMARK    8  A    between atoms: N_23  and  C_24
REMARK    9  A    between atoms: N_29  and  C_30
REMARK                            x       y       z     vdW  Elec       q    Type
REMARK                         _______ _______ _______ _____ _____    ______ ____
ROOT
ATOM      1  S   UNL     1       0.286   9.088  21.240  0.00  0.00    +0.000 S 
ATOM      2  O   UNL     1       1.172   9.891  22.055  0.00  0.00    +0.000 OA
ATOM      3  O   UNL     1      -0.674   8.195  21.867  0.00  0.00    +0.000 OA
ENDROOT
BRANCH   1   4
ATOM      4  C   UNL     1       1.328   8.096  20.187  0.00  0.00    +0.000 A 
ATOM      5  C   UNL     1       1.857   8.664  19.036  0.00  0.00    +0.000 A 
ATOM      6  C   UNL     1       2.745   7.924  18.255  0.00  0.00    +0.000 A 
ATOM      7  C   UNL     1       3.107   6.606  18.601  0.00  0.00    +0.000 A 
ATOM      8  C   UNL     1       2.568   6.028  19.773  0.00  0.00    +0.000 A 
ATOM      9  C   UNL     1       1.705   6.803  20.574  0.00  0.00    +0.000 A 
ATOM     10  N   UNL     1       2.904   4.685  20.109  0.00  0.00    +0.000 N 
ATOM     11  C   UNL     1       2.329   3.974  21.236  0.00  0.00    +0.000 C 
ATOM     12  C   UNL     1       3.755   3.915  19.309  0.00  0.00    +0.000 A 
ATOM     13  O   UNL     1       4.007   2.734  19.546  0.00  0.00    +0.000 OA
ATOM     14  C   UNL     1       4.394   4.570  18.086  0.00  0.00    +0.000 A 
ATOM     15  O   UNL     1       5.204   3.925  17.427  0.00  0.00    +0.000 OA
ATOM     16  N   UNL     1       4.016   5.877  17.782  0.00  0.00    +0.000 N 
ATOM     17  C   UNL     1       4.617   6.495  16.611  0.00  0.00    +0.000 C 
ENDBRANCH   1   4
BRANCH   1  18
ATOM     18  C   UNL     1      -0.598  10.195  20.174  0.00  0.00    +0.000 C 
BRANCH  18  19
ATOM     19  C   UNL     1      -0.998  11.510  20.813  0.00  0.00    +0.000 C 
BRANCH  19  21
ATOM     20  N   UNL     1       1.139  12.623  20.431  0.00  0.00    +0.000 N 
ATOM     21  C   UNL     1      -0.219  12.634  20.146  0.00  0.00    +0.000 C 
ATOM     22  O   UNL     1      -0.799  13.432  19.417  0.00  0.00    +0.000 OA
ATOM     23  H   UNL     1       1.374  12.212  21.326  0.00  0.00    +0.000 HD
BRANCH  20  31
ATOM     24  C   UNL     1       1.514  15.190  21.977  0.00  0.00    +0.000 C 
ATOM     25  C   UNL     1       2.217  14.850  20.691  0.00  0.00    +0.000 A 
ATOM     26  C   UNL     1       3.036  15.853  20.132  0.00  0.00    +0.000 A 
ATOM     27  C   UNL     1       3.678  15.668  18.913  0.00  0.00    +0.000 A 
ATOM     28  C   UNL     1       3.512  14.473  18.229  0.00  0.00    +0.000 A 
ATOM     29  C   UNL     1       2.693  13.453  18.745  0.00  0.00    +0.000 A 
ATOM     30  C   UNL     1       2.605  12.172  17.960  0.00  0.00    +0.000 C 
ATOM     31  C   UNL     1       2.042  13.635  19.991  0.00  0.00    +0.000 A 
ENDBRANCH  20  31
ENDBRANCH  19  21
ENDBRANCH  18  19
ENDBRANCH   1  18
TORSDOF 5
ENDMDL
MODEL 8
REMARK VINA RESULT:      -7.3      2.335      3.625
REMARK  Name = 
REMARK  9 active torsions:
REMARK  status: ('A' for Active; 'I' for Inactive)
REMARK    1  A    between atoms: C_1  and  C_2
REMARK    2  A    between atoms: C_6  and  C_7
REMARK    3  A    between atoms: C_8  and  N_9
REMARK    4  A    between atoms: C_10  and  C_12
REMARK    5  A    between atoms: C_12  and  C_13
REMARK    6  A    between atoms: C_13  and  S_14
REMARK    7  A    between atoms: S_14  and  C_17
REMARK    8  A    between atoms: N_23  and  C_24
REMARK    9  A    between atoms: N_29  and  C_30
REMARK                            x       y       z     vdW  Elec       q    Type
REMARK                         _______ _______ _______ _____ _____    ______ ____
ROOT
ATOM      1  S   UNL     1       0.448   9.180  21.021  0.00  0.00    +0.000 S 
ATOM      2  O   UNL     1       1.358  10.012  21.779  0.00  0.00    +0.000 OA
ATOM      3  O   UNL     1      -0.527   8.350  21.707  0.00  0.00    +0.000 OA
ENDROOT
BRANCH   1   4
ATOM      4  C   UNL     1       1.460   8.102  20.025  0.00  0.00    +0.000 A 
ATOM      5  C   UNL     1       2.020   8.595  18.854  0.00  0.00    +0.000 A 
ATOM      6  C   UNL     1       2.884   7.787  18.117  0.00  0.00    +0.000 A 
ATOM      7  C   UNL     1       3.194   6.474  18.527  0.00  0.00    +0.000 A 
ATOM      8  C   UNL     1       2.624   5.972  19.718  0.00  0.00    +0.000 A 
ATOM      9  C   UNL     1       1.784   6.815  20.474  0.00  0.00    +0.000 A 
ATOM     10  N   UNL     1       2.906   4.635  20.120  0.00  0.00    +0.000 N 
ATOM     11  C   UNL     1       2.296   3.999  21.273  0.00  0.00    +0.000 C 
ATOM     12  C   UNL     1       3.734   3.796  19.365  0.00  0.00    +0.000 A 
ATOM     13  O   UNL     1       3.939   2.620  19.658  0.00  0.00    +0.000 OA
ATOM     14  C   UNL     1       4.407   4.369  18.119  0.00  0.00    +0.000 A 
ATOM     15  O   UNL     1       5.197   3.664  17.498  0.00  0.00    +0.000 OA
ATOM     16  N   UNL     1       4.081   5.674  17.751  0.00  0.00    +0.000 N 
ATOM     17  C   UNL     1       4.714   6.214  16.558  0.00  0.00    +0.000 C 
ENDBRANCH   1   4
BRANCH   1  18
ATOM     18  C   UNL     1      -0.419  10.239  19.893  0.00  0.00    +0.000 C 
BRANCH  18  19
ATOM     19  C   UNL     1       0.312  11.516  19.530  0.00  0.00    +0.000 C 
BRANCH  19  21
ATOM     20  N   UNL     1      -0.032  12.785  21.584  0.00  0.00    +0.000 N 
ATOM     21  C   UNL     1      -0.359  12.682  20.240  0.00  0.00    +0.000 C 
ATOM     22  O   UNL     1      -1.095  13.438  19.615  0.00  0.00    +0.000 OA
ATOM     23  H   UNL     1       0.208  11.905  22.024  0.00  0.00    +0.000 HD
BRANCH  20  31
ATOM     24  C   UNL     1       1.121  15.559  21.893  0.00  0.00    +0.000 C 
ATOM     25  C   UNL     1      -0.080  15.040  22.635  0.00  0.00    +0.000 A 
ATOM     26  C   UNL     1      -0.640  15.891  23.611  0.00  0.00    +0.000 A 
ATOM     27  C   UNL     1      -1.709  15.483  24.401  0.00  0.00    +0.000 A 
ATOM     28  C   UNL     1      -2.240  14.214  24.228  0.00  0.00    +0.000 A 
ATOM     29  C   UNL     1      -1.702  13.330  23.275  0.00  0.00    +0.000 A 
ATOM     30  C   UNL     1      -2.368  11.989  23.123  0.00  0.00    +0.000 C 
ATOM     31  C   UNL     1      -0.616  13.743  22.463  0.00  0.00    +0.000 A 
ENDBRANCH  20  31
ENDBRANCH  19  21
ENDBRANCH  18  19
ENDBRANCH   1  18
TORSDOF 5
ENDMDL
MODEL 9
REMARK VINA RESULT:      -7.3      1.995      3.133
REMARK  Name = 
REMARK  9 active torsions:
REMARK  status: ('A' for Active; 'I' for Inactive)
REMARK    1  A    between atoms: C_1  and  C_2
REMARK    2  A    between atoms: C_6  and  C_7
REMARK    3  A    between atoms: C_8  and  N_9
REMARK    4  A    between atoms: C_10  and  C_12
REMARK    5  A    between atoms: C_12  and  C_13
REMARK    6  A    between atoms: C_13  and  S_14
REMARK    7  A    between atoms: S_14  and  C_17
REMARK    8  A    between atoms: N_23  and  C_24
REMARK    9  A    between atoms: N_29  and  C_30
REMARK                            x       y       z     vdW  Elec       q    Type
REMARK                         _______ _______ _______ _____ _____    ______ ____
ROOT
ATOM      1  S   UNL     1       0.286   9.630  20.477  0.00  0.00    +0.000 S 
ATOM      2  O   UNL     1       1.073  10.785  20.854  0.00  0.00    +0.000 OA
ATOM      3  O   UNL     1      -0.394   8.846  21.493  0.00  0.00    +0.000 OA
ENDROOT
BRANCH   1   4
ATOM      4  C   UNL     1       1.387   8.532  19.605  0.00  0.00    +0.000 A 
ATOM      5  C   UNL     1       1.979   8.968  18.427  0.00  0.00    +0.000 A 
ATOM      6  C   UNL     1       2.910   8.150  17.788  0.00  0.00    +0.000 A 
ATOM      7  C   UNL     1       3.254   6.884  18.303  0.00  0.00    +0.000 A 
ATOM      8  C   UNL     1       2.651   6.440  19.501  0.00  0.00    +0.000 A 
ATOM      9  C   UNL     1       1.743   7.295  20.158  0.00  0.00    +0.000 A 
ATOM     10  N   UNL     1       2.969   5.147  20.008  0.00  0.00    +0.000 N 
ATOM     11  C   UNL     1       2.333   4.566  21.176  0.00  0.00    +0.000 C 
ATOM     12  C   UNL     1       3.865   4.296  19.351  0.00  0.00    +0.000 A 
ATOM     13  O   UNL     1       4.105   3.153  19.736  0.00  0.00    +0.000 OA
ATOM     14  C   UNL     1       4.571   4.811  18.098  0.00  0.00    +0.000 A 
ATOM     15  O   UNL     1       5.417   4.101  17.564  0.00  0.00    +0.000 OA
ATOM     16  N   UNL     1       4.209   6.072  17.625  0.00  0.00    +0.000 N 
ATOM     17  C   UNL     1       4.874   6.556  16.425  0.00  0.00    +0.000 C 
ENDBRANCH   1   4
BRANCH   1  18
ATOM     18  C   UNL     1      -0.919  10.176  19.296  0.00  0.00    +0.000 C 
BRANCH  18  19
ATOM     19  C   UNL     1      -0.858  11.654  18.963  0.00  0.00    +0.000 C 
BRANCH  19  21
ATOM     20  N   UNL     1      -1.292  13.076  20.897  0.00  0.00    +0.000 N 
ATOM     21  C   UNL     1      -1.864  12.392  19.833  0.00  0.00    +0.000 C 
ATOM     22  O   UNL     1      -3.057  12.362  19.551  0.00  0.00    +0.000 OA
ATOM     23  H   UNL     1      -0.426  12.674  21.233  0.00  0.00    +0.000 HD
BRANCH  20  31
ATOM     24  C   UNL     1      -2.087  15.971  20.576  0.00  0.00    +0.000 C 
ATOM     25  C   UNL     1      -2.417  15.116  21.768  0.00  0.00    +0.000 A 
ATOM     26  C   UNL     1      -3.064  15.755  22.847  0.00  0.00    +0.000 A 
ATOM     27  C   UNL     1      -3.354  15.074  24.024  0.00  0.00    +0.000 A 
ATOM     28  C   UNL     1      -3.002  13.738  24.144  0.00  0.00    +0.000 A 
ATOM     29  C   UNL     1      -2.344  13.068  23.097  0.00  0.00    +0.000 A 
ATOM     30  C   UNL     1      -2.039  11.607  23.294  0.00  0.00    +0.000 C 
ATOM     31  C   UNL     1      -2.052  13.756  21.893  0.00  0.00    +0.000 A 
ENDBRANCH  20  31
ENDBRANCH  19  21
ENDBRANCH  18  19
ENDBRANCH   1  18
TORSDOF 5
ENDMDL
