MODEL 1
REMARK VINA RESULT:      -8.2      0.000      0.000
REMARK  Name = 
REMARK  5 active torsions:
REMARK  status: ('A' for Active; 'I' for Inactive)
REMARK    1  A    between atoms: C_1  and  C_2
REMARK    2  A    between atoms: C_5  and  N_6
REMARK    3  A    between atoms: C_10  and  S_11
REMARK    4  A    between atoms: S_11  and  C_12
REMARK    5  A    between atoms: C_14  and  C_15
REMARK                            x       y       z     vdW  Elec       q    Type
REMARK                         _______ _______ _______ _____ _____    ______ ____
ROOT
ATOM      1  C   UNL     1       2.279   7.116  19.610  0.00  0.00    +0.000 A 
ATOM      2  N   UNL     1       1.528   8.033  20.270  0.00  0.00    +0.000 NA
ATOM      3  C   UNL     1       1.311   9.152  19.514  0.00  0.00    +0.000 A 
ATOM      4  C   UNL     1       1.912   9.122  18.255  0.00  0.00    +0.000 A 
ATOM      5  S   UNL     1       2.761   7.689  18.108  0.00  0.00    +0.000 S 
ENDROOT
BRANCH   3   6
ATOM      6  C   UNL     1       0.488  10.308  19.963  0.00  0.00    +0.000 A 
ATOM      7  C   UNL     1       0.825  11.176  20.998  0.00  0.00    +0.000 A 
ATOM      8  N   UNL     1      -0.119  12.135  21.117  0.00  0.00    +0.000 NA
ATOM      9  C   UNL     1      -1.021  11.830  20.166  0.00  0.00    +0.000 A 
ATOM     10  C   UNL     1      -2.188  12.544  19.901  0.00  0.00    +0.000 A 
ATOM     11  C   UNL     1      -3.023  12.073  18.878  0.00  0.00    +0.000 A 
ATOM     12  C   UNL     1      -2.679  10.910  18.163  0.00  0.00    +0.000 A 
ATOM     13 CL   UNL     1      -3.738  10.312  16.900  0.00  0.00    +0.000 Cl
ATOM     14  C   UNL     1      -1.485  10.235  18.471  0.00  0.00    +0.000 A 
ATOM     15  N   UNL     1      -0.693  10.730  19.461  0.00  0.00    +0.000 N 
ENDBRANCH   3   6
BRANCH   1  16
ATOM     16  S   UNL     1       2.845   5.544  20.292  0.00  0.00    +0.000 S 
BRANCH  16  23
ATOM     17  C   UNL     1       1.574   4.063  17.682  0.00  0.00    +0.000 C 
ATOM     18  C   UNL     1       3.063   4.211  17.760  0.00  0.00    +0.000 A 
ATOM     19  C   UNL     1       3.828   3.744  16.678  0.00  0.00    +0.000 A 
ATOM     20  C   UNL     1       5.213   3.866  16.674  0.00  0.00    +0.000 A 
ATOM     21  C   UNL     1       5.878   4.472  17.750  0.00  0.00    +0.000 A 
ATOM     22  C   UNL     1       5.117   4.945  18.838  0.00  0.00    +0.000 A 
ATOM     23  C   UNL     1       3.716   4.811  18.869  0.00  0.00    +0.000 A 
BRANCH  21  24
ATOM     24  N   UNL     1       7.300   4.619  17.732  0.00  0.00    +0.000 N 
ATOM     25  O   UNL     1       7.899   4.831  18.743  0.00  0.00    +0.000 OA
ATOM     26  O   UNL     1       7.967   4.517  16.605  0.00  0.00    +0.000 OA
ENDBRANCH  21  24
ENDBRANCH  16  23
ENDBRANCH   1  16
TORSDOF 4
ENDMDL
MODEL 2
REMARK VINA RESULT:      -7.9      2.213      2.582
REMARK  Name = 
REMARK  5 active torsions:
REMARK  status: ('A' for Active; 'I' for Inactive)
REMARK    1  A    between atoms: C_1  and  C_2
REMARK    2  A    between atoms: C_5  and  N_6
REMARK    3  A    between atoms: C_10  and  S_11
REMARK    4  A    between atoms: S_11  and  C_12
REMARK    5  A    between atoms: C_14  and  C_15
REMARK                            x       y       z     vdW  Elec       q    Type
REMARK                         _______ _______ _______ _____ _____    ______ ____
ROOT
ATOM      1  C   UNL     1       2.242   7.450  19.322  0.00  0.00    +0.000 A 
ATOM      2  N   UNL     1       1.451   8.428  19.830  0.00  0.00    +0.000 NA
ATOM      3  C   UNL     1       1.305   9.471  18.956  0.00  0.00    +0.000 A 
ATOM      4  C   UNL     1       2.003   9.319  17.758  0.00  0.00    +0.000 A 
ATOM      5  S   UNL     1       2.846   7.876  17.816  0.00  0.00    +0.000 S 
ENDROOT
BRANCH   3   6
ATOM      6  C   UNL     1       0.461  10.667  19.227  0.00  0.00    +0.000 A 
ATOM      7  C   UNL     1      -0.839  10.632  19.725  0.00  0.00    +0.000 A 
ATOM      8  N   UNL     1      -1.300  11.891  19.890  0.00  0.00    +0.000 NA
ATOM      9  C   UNL     1      -0.284  12.671  19.477  0.00  0.00    +0.000 A 
ATOM     10  C   UNL     1      -0.290  14.064  19.462  0.00  0.00    +0.000 A 
ATOM     11  C   UNL     1       0.856  14.716  18.986  0.00  0.00    +0.000 A 
ATOM     12  C   UNL     1       1.959  13.968  18.534  0.00  0.00    +0.000 A 
ATOM     13 CL   UNL     1       3.380  14.789  17.917  0.00  0.00    +0.000 Cl
ATOM     14  C   UNL     1       1.911  12.564  18.579  0.00  0.00    +0.000 A 
ATOM     15  N   UNL     1       0.787  11.967  19.061  0.00  0.00    +0.000 N 
ENDBRANCH   3   6
BRANCH   1  16
ATOM     16  S   UNL     1       2.738   5.950  20.192  0.00  0.00    +0.000 S 
BRANCH  16  23
ATOM     17  C   UNL     1       1.584   4.216  17.685  0.00  0.00    +0.000 C 
ATOM     18  C   UNL     1       3.069   4.355  17.830  0.00  0.00    +0.000 A 
ATOM     19  C   UNL     1       3.882   3.767  16.848  0.00  0.00    +0.000 A 
ATOM     20  C   UNL     1       5.268   3.873  16.907  0.00  0.00    +0.000 A 
ATOM     21  C   UNL     1       5.884   4.581  17.949  0.00  0.00    +0.000 A 
ATOM     22  C   UNL     1       5.074   5.175  18.938  0.00  0.00    +0.000 A 
ATOM     23  C   UNL     1       3.671   5.061  18.904  0.00  0.00    +0.000 A 
BRANCH  21  24
ATOM     24  N   UNL     1       7.307   4.709  17.995  0.00  0.00    +0.000 N 
ATOM     25  O   UNL     1       7.972   4.418  17.046  0.00  0.00    +0.000 OA
ATOM     26  O   UNL     1       7.902   5.153  19.079  0.00  0.00    +0.000 OA
ENDBRANCH  21  24
ENDBRANCH  16  23
ENDBRANCH   1  16
TORSDOF 4
ENDMDL
MODEL 3
REMARK VINA RESULT:      -7.9      1.371      1.606
REMARK  Name = 
REMARK  5 active torsions:
REMARK  status: ('A' for Active; 'I' for Inactive)
REMARK    1  A    between atoms: C_1  and  C_2
REMARK    2  A    between atoms: C_5  and  N_6
REMARK    3  A    between atoms: C_10  and  S_11
REMARK    4  A    between atoms: S_11  and  C_12
REMARK    5  A    between atoms: C_14  and  C_15
REMARK                            x       y       z     vdW  Elec       q    Type
REMARK                         _______ _______ _______ _____ _____    ______ ____
ROOT
ATOM      1  C   UNL     1       2.209   6.272  19.951  0.00  0.00    +0.000 A 
ATOM      2  N   UNL     1       1.555   7.003  20.888  0.00  0.00    +0.000 NA
ATOM      3  C   UNL     1       1.314   8.280  20.462  0.00  0.00    +0.000 A 
ATOM      4  C   UNL     1       1.801   8.562  19.185  0.00  0.00    +0.000 A 
ATOM      5  S   UNL     1       2.579   7.201  18.603  0.00  0.00    +0.000 S 
ENDROOT
BRANCH   3   6
ATOM      6  C   UNL     1       0.578   9.297  21.263  0.00  0.00    +0.000 A 
ATOM      7  C   UNL     1       0.688   9.462  22.641  0.00  0.00    +0.000 A 
ATOM      8  N   UNL     1      -0.083  10.496  23.041  0.00  0.00    +0.000 NA
ATOM      9  C   UNL     1      -0.661  10.935  21.907  0.00  0.00    +0.000 A 
ATOM     10  C   UNL     1      -1.551  12.002  21.815  0.00  0.00    +0.000 A 
ATOM     11  C   UNL     1      -2.068  12.314  20.550  0.00  0.00    +0.000 A 
ATOM     12  C   UNL     1      -1.692  11.555  19.426  0.00  0.00    +0.000 A 
ATOM     13 CL   UNL     1      -2.359  11.934  17.849  0.00  0.00    +0.000 Cl
ATOM     14  C   UNL     1      -0.784  10.492  19.578  0.00  0.00    +0.000 A 
ATOM     15  N   UNL     1      -0.294  10.229  20.820  0.00  0.00    +0.000 N 
ENDBRANCH   3   6
BRANCH   1  16
ATOM     16  S   UNL     1       2.773   4.571  20.159  0.00  0.00    +0.000 S 
BRANCH  16  23
ATOM     17  C   UNL     1       2.547   3.261  17.183  0.00  0.00    +0.000 C 
ATOM     18  C   UNL     1       3.851   3.878  17.592  0.00  0.00    +0.000 A 
ATOM     19  C   UNL     1       4.892   3.898  16.650  0.00  0.00    +0.000 A 
ATOM     20  C   UNL     1       6.122   4.471  16.953  0.00  0.00    +0.000 A 
ATOM     21  C   UNL     1       6.346   5.054  18.209  0.00  0.00    +0.000 A 
ATOM     22  C   UNL     1       5.305   5.038  19.159  0.00  0.00    +0.000 A 
ATOM     23  C   UNL     1       4.061   4.444  18.877  0.00  0.00    +0.000 A 
BRANCH  21  24
ATOM     24  N   UNL     1       7.603   5.664  18.510  0.00  0.00    +0.000 N 
ATOM     25  O   UNL     1       8.029   6.543  17.823  0.00  0.00    +0.000 OA
ATOM     26  O   UNL     1       8.305   5.269  19.548  0.00  0.00    +0.000 OA
ENDBRANCH  21  24
ENDBRANCH  16  23
ENDBRANCH   1  16
TORSDOF 4
ENDMDL
MODEL 4
REMARK VINA RESULT:      -7.8      1.775      2.010
REMARK  Name = 
REMARK  5 active torsions:
REMARK  status: ('A' for Active; 'I' for Inactive)
REMARK    1  A    between atoms: C_1  and  C_2
REMARK    2  A    between atoms: C_5  and  N_6
REMARK    3  A    between atoms: C_10  and  S_11
REMARK    4  A    between atoms: S_11  and  C_12
REMARK    5  A    between atoms: C_14  and  C_15
REMARK                            x       y       z     vdW  Elec       q    Type
REMARK                         _______ _______ _______ _____ _____    ______ ____
ROOT
ATOM      1  C   UNL     1       2.270   6.532  19.872  0.00  0.00    +0.000 A 
ATOM      2  N   UNL     1       1.698   7.244  20.875  0.00  0.00    +0.000 NA
ATOM      3  C   UNL     1       1.331   8.497  20.465  0.00  0.00    +0.000 A 
ATOM      4  C   UNL     1       1.634   8.778  19.133  0.00  0.00    +0.000 A 
ATOM      5  S   UNL     1       2.410   7.451  18.475  0.00  0.00    +0.000 S 
ENDROOT
BRANCH   3   6
ATOM      6  C   UNL     1       0.645   9.486  21.340  0.00  0.00    +0.000 A 
ATOM      7  C   UNL     1       0.386   9.311  22.697  0.00  0.00    +0.000 A 
ATOM      8  N   UNL     1      -0.213  10.414  23.195  0.00  0.00    +0.000 NA
ATOM      9  C   UNL     1      -0.324  11.236  22.136  0.00  0.00    +0.000 A 
ATOM     10  C   UNL     1      -0.884  12.512  22.158  0.00  0.00    +0.000 A 
ATOM     11  C   UNL     1      -0.929  13.226  20.953  0.00  0.00    +0.000 A 
ATOM     12  C   UNL     1      -0.427  12.650  19.771  0.00  0.00    +0.000 A 
ATOM     13 CL   UNL     1      -0.507  13.539  18.261  0.00  0.00    +0.000 Cl
ATOM     14  C   UNL     1       0.134  11.362  19.810  0.00  0.00    +0.000 A 
ATOM     15  N   UNL     1       0.172  10.705  21.001  0.00  0.00    +0.000 N 
ENDBRANCH   3   6
BRANCH   1  16
ATOM     16  S   UNL     1       2.954   4.870  20.029  0.00  0.00    +0.000 S 
BRANCH  16  23
ATOM     17  C   UNL     1       2.583   3.285  17.206  0.00  0.00    +0.000 C 
ATOM     18  C   UNL     1       3.825   4.099  17.406  0.00  0.00    +0.000 A 
ATOM     19  C   UNL     1       4.740   4.172  16.344  0.00  0.00    +0.000 A 
ATOM     20  C   UNL     1       5.905   4.925  16.452  0.00  0.00    +0.000 A 
ATOM     21  C   UNL     1       6.184   5.640  17.625  0.00  0.00    +0.000 A 
ATOM     22  C   UNL     1       5.269   5.573  18.695  0.00  0.00    +0.000 A 
ATOM     23  C   UNL     1       4.096   4.799  18.611  0.00  0.00    +0.000 A 
BRANCH  21  24
ATOM     24  N   UNL     1       7.370   6.433  17.725  0.00  0.00    +0.000 N 
ATOM     25  O   UNL     1       7.985   6.475  18.748  0.00  0.00    +0.000 OA
ATOM     26  O   UNL     1       7.801   7.121  16.692  0.00  0.00    +0.000 OA
ENDBRANCH  21  24
ENDBRANCH  16  23
ENDBRANCH   1  16
TORSDOF 4
ENDMDL
MODEL 5
REMARK VINA RESULT:      -7.6      2.868      3.862
REMARK  Name = 
REMARK  5 active torsions:
REMARK  status: ('A' for Active; 'I' for Inactive)
REMARK    1  A    between atoms: C_1  and  C_2
REMARK    2  A    between atoms: C_5  and  N_6
REMARK    3  A    between atoms: C_10  and  S_11
REMARK    4  A    between atoms: S_11  and  C_12
REMARK    5  A    between atoms: C_14  and  C_15
REMARK                            x       y       z     vdW  Elec       q    Type
REMARK                         _______ _______ _______ _____ _____    ______ ____
ROOT
ATOM      1  C   UNL     1       3.186   4.660  19.073  0.00  0.00    +0.000 A 
ATOM      2  N   UNL     1       2.999   5.878  18.506  0.00  0.00    +0.000 NA
ATOM      3  C   UNL     1       2.264   6.707  19.310  0.00  0.00    +0.000 A 
ATOM      4  C   UNL     1       1.854   6.128  20.511  0.00  0.00    +0.000 A 
ATOM      5  S   UNL     1       2.386   4.543  20.543  0.00  0.00    +0.000 S 
ENDROOT
BRANCH   3   6
ATOM      6  C   UNL     1       1.936   8.118  18.966  0.00  0.00    +0.000 A 
ATOM      7  C   UNL     1       2.256   8.743  17.764  0.00  0.00    +0.000 A 
ATOM      8  N   UNL     1       1.778  10.007  17.764  0.00  0.00    +0.000 NA
ATOM      9  C   UNL     1       1.190  10.137  18.967  0.00  0.00    +0.000 A 
ATOM     10  C   UNL     1       0.548  11.282  19.433  0.00  0.00    +0.000 A 
ATOM     11  C   UNL     1       0.000  11.245  20.722  0.00  0.00    +0.000 A 
ATOM     12  C   UNL     1       0.116  10.082  21.506  0.00  0.00    +0.000 A 
ATOM     13 CL   UNL     1      -0.550  10.049  23.128  0.00  0.00    +0.000 Cl
ATOM     14  C   UNL     1       0.770   8.954  20.982  0.00  0.00    +0.000 A 
ATOM     15  N   UNL     1       1.277   9.023  19.720  0.00  0.00    +0.000 N 
ENDBRANCH   3   6
BRANCH   1  16
ATOM     16  S   UNL     1       4.034   3.268  18.300  0.00  0.00    +0.000 S 
BRANCH  16  23
ATOM     17  C   UNL     1       6.469   5.210  19.262  0.00  0.00    +0.000 C 
ATOM     18  C   UNL     1       6.328   4.918  17.799  0.00  0.00    +0.000 A 
ATOM     19  C   UNL     1       7.284   5.462  16.926  0.00  0.00    +0.000 A 
ATOM     20  C   UNL     1       7.226   5.217  15.558  0.00  0.00    +0.000 A 
ATOM     21  C   UNL     1       6.214   4.408  15.021  0.00  0.00    +0.000 A 
ATOM     22  C   UNL     1       5.252   3.858  15.892  0.00  0.00    +0.000 A 
ATOM     23  C   UNL     1       5.283   4.112  17.276  0.00  0.00    +0.000 A 
BRANCH  21  24
ATOM     24  N   UNL     1       6.171   4.138  13.618  0.00  0.00    +0.000 N 
ATOM     25  O   UNL     1       5.215   3.613  13.132  0.00  0.00    +0.000 OA
ATOM     26  O   UNL     1       7.181   4.467  12.844  0.00  0.00    +0.000 OA
ENDBRANCH  21  24
ENDBRANCH  16  23
ENDBRANCH   1  16
TORSDOF 4
ENDMDL
MODEL 6
REMARK VINA RESULT:      -7.3      2.297      2.588
REMARK  Name = 
REMARK  5 active torsions:
REMARK  status: ('A' for Active; 'I' for Inactive)
REMARK    1  A    between atoms: C_1  and  C_2
REMARK    2  A    between atoms: C_5  and  N_6
REMARK    3  A    between atoms: C_10  and  S_11
REMARK    4  A    between atoms: S_11  and  C_12
REMARK    5  A    between atoms: C_14  and  C_15
REMARK                            x       y       z     vdW  Elec       q    Type
REMARK                         _______ _______ _______ _____ _____    ______ ____
ROOT
ATOM      1  C   UNL     1       2.214   7.099  19.511  0.00  0.00    +0.000 A 
ATOM      2  N   UNL     1       1.688   7.995  20.383  0.00  0.00    +0.000 NA
ATOM      3  C   UNL     1       1.357   9.171  19.768  0.00  0.00    +0.000 A 
ATOM      4  C   UNL     1       1.643   9.208  18.403  0.00  0.00    +0.000 A 
ATOM      5  S   UNL     1       2.359   7.758  17.974  0.00  0.00    +0.000 S 
ENDROOT
BRANCH   3   6
ATOM      6  C   UNL     1       0.724  10.322  20.468  0.00  0.00    +0.000 A 
ATOM      7  C   UNL     1      -0.193  10.218  21.511  0.00  0.00    +0.000 A 
ATOM      8  N   UNL     1      -0.538  11.451  21.943  0.00  0.00    +0.000 NA
ATOM      9  C   UNL     1       0.160  12.285  21.150  0.00  0.00    +0.000 A 
ATOM     10  C   UNL     1       0.133  13.676  21.218  0.00  0.00    +0.000 A 
ATOM     11  C   UNL     1       0.916  14.390  20.302  0.00  0.00    +0.000 A 
ATOM     12  C   UNL     1       1.690  13.704  19.347  0.00  0.00    +0.000 A 
ATOM     13 CL   UNL     1       2.650  14.602  18.187  0.00  0.00    +0.000 Cl
ATOM     14  C   UNL     1       1.683  12.298  19.329  0.00  0.00    +0.000 A 
ATOM     15  N   UNL     1       0.921  11.640  20.244  0.00  0.00    +0.000 N 
ENDBRANCH   3   6
BRANCH   1  16
ATOM     16  S   UNL     1       2.842   5.465  19.943  0.00  0.00    +0.000 S 
BRANCH  16  23
ATOM     17  C   UNL     1       2.393   3.503  17.379  0.00  0.00    +0.000 C 
ATOM     18  C   UNL     1       3.678   4.271  17.471  0.00  0.00    +0.000 A 
ATOM     19  C   UNL     1       4.599   4.137  16.420  0.00  0.00    +0.000 A 
ATOM     20  C   UNL     1       5.803   4.834  16.429  0.00  0.00    +0.000 A 
ATOM     21  C   UNL     1       6.118   5.698  17.488  0.00  0.00    +0.000 A 
ATOM     22  C   UNL     1       5.196   5.838  18.546  0.00  0.00    +0.000 A 
ATOM     23  C   UNL     1       3.983   5.125  18.563  0.00  0.00    +0.000 A 
BRANCH  21  24
ATOM     24  N   UNL     1       7.344   6.431  17.484  0.00  0.00    +0.000 N 
ATOM     25  O   UNL     1       7.781   6.874  16.464  0.00  0.00    +0.000 OA
ATOM     26  O   UNL     1       8.005   6.633  18.602  0.00  0.00    +0.000 OA
ENDBRANCH  21  24
ENDBRANCH  16  23
ENDBRANCH   1  16
TORSDOF 4
ENDMDL
MODEL 7
REMARK VINA RESULT:      -7.3      2.216      2.362
REMARK  Name = 
REMARK  5 active torsions:
REMARK  status: ('A' for Active; 'I' for Inactive)
REMARK    1  A    between atoms: C_1  and  C_2
REMARK    2  A    between atoms: C_5  and  N_6
REMARK    3  A    between atoms: C_10  and  S_11
REMARK    4  A    between atoms: S_11  and  C_12
REMARK    5  A    between atoms: C_14  and  C_15
REMARK                            x       y       z     vdW  Elec       q    Type
REMARK                         _______ _______ _______ _____ _____    ______ ____
ROOT
ATOM      1  C   UNL     1       1.963   6.785  20.130  0.00  0.00    +0.000 A 
ATOM      2  N   UNL     1       1.408   7.607  21.055  0.00  0.00    +0.000 NA
ATOM      3  C   UNL     1       1.156   8.851  20.545  0.00  0.00    +0.000 A 
ATOM      4  C   UNL     1       1.533   9.014  19.212  0.00  0.00    +0.000 A 
ATOM      5  S   UNL     1       2.231   7.590  18.682  0.00  0.00    +0.000 S 
ENDROOT
BRANCH   3   6
ATOM      6  C   UNL     1       0.512   9.948  21.319  0.00  0.00    +0.000 A 
ATOM      7  C   UNL     1      -0.194   9.782  22.507  0.00  0.00    +0.000 A 
ATOM      8  N   UNL     1      -0.611  10.983  22.964  0.00  0.00    +0.000 NA
ATOM      9  C   UNL     1      -0.167  11.858  22.044  0.00  0.00    +0.000 A 
ATOM     10  C   UNL     1      -0.354  13.238  22.084  0.00  0.00    +0.000 A 
ATOM     11  C   UNL     1       0.167  13.999  21.030  0.00  0.00    +0.000 A 
ATOM     12  C   UNL     1       0.846  13.368  19.970  0.00  0.00    +0.000 A 
ATOM     13 CL   UNL     1       1.477  14.323  18.642  0.00  0.00    +0.000 Cl
ATOM     14  C   UNL     1       1.012  11.973  19.986  0.00  0.00    +0.000 A 
ATOM     15  N   UNL     1       0.503  11.269  21.034  0.00  0.00    +0.000 N 
ENDBRANCH   3   6
BRANCH   1  16
ATOM     16  S   UNL     1       2.511   5.093  20.430  0.00  0.00    +0.000 S 
BRANCH  16  23
ATOM     17  C   UNL     1       1.890   3.858  17.478  0.00  0.00    +0.000 C 
ATOM     18  C   UNL     1       3.289   4.303  17.783  0.00  0.00    +0.000 A 
ATOM     19  C   UNL     1       4.246   4.206  16.761  0.00  0.00    +0.000 A 
ATOM     20  C   UNL     1       5.559   4.617  16.967  0.00  0.00    +0.000 A 
ATOM     21  C   UNL     1       5.952   5.151  18.202  0.00  0.00    +0.000 A 
ATOM     22  C   UNL     1       4.995   5.253  19.233  0.00  0.00    +0.000 A 
ATOM     23  C   UNL     1       3.668   4.823  19.049  0.00  0.00    +0.000 A 
BRANCH  21  24
ATOM     24  N   UNL     1       7.295   5.596  18.404  0.00  0.00    +0.000 N 
ATOM     25  O   UNL     1       7.611   6.715  18.127  0.00  0.00    +0.000 OA
ATOM     26  O   UNL     1       8.200   4.783  18.901  0.00  0.00    +0.000 OA
ENDBRANCH  21  24
ENDBRANCH  16  23
ENDBRANCH   1  16
TORSDOF 4
ENDMDL
MODEL 8
REMARK VINA RESULT:      -7.3      2.588      3.381
REMARK  Name = 
REMARK  5 active torsions:
REMARK  status: ('A' for Active; 'I' for Inactive)
REMARK    1  A    between atoms: C_1  and  C_2
REMARK    2  A    between atoms: C_5  and  N_6
REMARK    3  A    between atoms: C_10  and  S_11
REMARK    4  A    between atoms: S_11  and  C_12
REMARK    5  A    between atoms: C_14  and  C_15
REMARK                            x       y       z     vdW  Elec       q    Type
REMARK                         _______ _______ _______ _____ _____    ______ ____
ROOT
ATOM      1  C   UNL     1       3.382   4.921  19.862  0.00  0.00    +0.000 A 
ATOM      2  N   UNL     1       3.250   6.137  19.275  0.00  0.00    +0.000 NA
ATOM      3  C   UNL     1       2.164   6.818  19.754  0.00  0.00    +0.000 A 
ATOM      4  C   UNL     1       1.425   6.123  20.711  0.00  0.00    +0.000 A 
ATOM      5  S   UNL     1       2.122   4.618  20.928  0.00  0.00    +0.000 S 
ENDROOT
BRANCH   3   6
ATOM      6  C   UNL     1       1.794   8.194  19.323  0.00  0.00    +0.000 A 
ATOM      7  C   UNL     1       2.126   8.765  18.098  0.00  0.00    +0.000 A 
ATOM      8  N   UNL     1       1.602  10.007  18.015  0.00  0.00    +0.000 NA
ATOM      9  C   UNL     1       0.973  10.180  19.192  0.00  0.00    +0.000 A 
ATOM     10  C   UNL     1       0.274  11.322  19.575  0.00  0.00    +0.000 A 
ATOM     11  C   UNL     1      -0.310  11.334  20.849  0.00  0.00    +0.000 A 
ATOM     12  C   UNL     1      -0.174  10.220  21.699  0.00  0.00    +0.000 A 
ATOM     13 CL   UNL     1      -0.887  10.249  23.301  0.00  0.00    +0.000 Cl
ATOM     14  C   UNL     1       0.537   9.092  21.256  0.00  0.00    +0.000 A 
ATOM     15  N   UNL     1       1.078   9.112  20.008  0.00  0.00    +0.000 N 
ENDBRANCH   3   6
BRANCH   1  16
ATOM     16  S   UNL     1       4.639   3.694  19.451  0.00  0.00    +0.000 S 
BRANCH  16  23
ATOM     17  C   UNL     1       4.509   3.080  16.252  0.00  0.00    +0.000 C 
ATOM     18  C   UNL     1       5.391   4.195  16.727  0.00  0.00    +0.000 A 
ATOM     19  C   UNL     1       6.078   4.946  15.760  0.00  0.00    +0.000 A 
ATOM     20  C   UNL     1       6.898   6.007  16.126  0.00  0.00    +0.000 A 
ATOM     21  C   UNL     1       7.048   6.359  17.475  0.00  0.00    +0.000 A 
ATOM     22  C   UNL     1       6.360   5.610  18.452  0.00  0.00    +0.000 A 
ATOM     23  C   UNL     1       5.542   4.520  18.101  0.00  0.00    +0.000 A 
BRANCH  21  24
ATOM     24  N   UNL     1       7.872   7.466  17.848  0.00  0.00    +0.000 N 
ATOM     25  O   UNL     1       7.911   8.447  17.169  0.00  0.00    +0.000 OA
ATOM     26  O   UNL     1       8.595   7.420  18.944  0.00  0.00    +0.000 OA
ENDBRANCH  21  24
ENDBRANCH  16  23
ENDBRANCH   1  16
TORSDOF 4
ENDMDL
MODEL 9
REMARK VINA RESULT:      -7.3      4.499      8.766
REMARK  Name = 
REMARK  5 active torsions:
REMARK  status: ('A' for Active; 'I' for Inactive)
REMARK    1  A    between atoms: C_1  and  C_2
REMARK    2  A    between atoms: C_5  and  N_6
REMARK    3  A    between atoms: C_10  and  S_11
REMARK    4  A    between atoms: S_11  and  C_12
REMARK    5  A    between atoms: C_14  and  C_15
REMARK                            x       y       z     vdW  Elec       q    Type
REMARK                         _______ _______ _______ _____ _____    ______ ____
ROOT
ATOM      1  C   UNL     1       1.538   8.610  19.720  0.00  0.00    +0.000 A 
ATOM      2  N   UNL     1       2.140   7.427  19.997  0.00  0.00    +0.000 NA
ATOM      3  C   UNL     1       2.931   7.004  18.964  0.00  0.00    +0.000 A 
ATOM      4  C   UNL     1       2.936   7.854  17.857  0.00  0.00    +0.000 A 
ATOM      5  S   UNL     1       1.900   9.130  18.166  0.00  0.00    +0.000 S 
ENDROOT
BRANCH   3   6
ATOM      6  C   UNL     1       3.747   5.759  19.000  0.00  0.00    +0.000 A 
ATOM      7  C   UNL     1       5.134   5.714  19.102  0.00  0.00    +0.000 A 
ATOM      8  N   UNL     1       5.549   4.430  19.149  0.00  0.00    +0.000 NA
ATOM      9  C   UNL     1       4.413   3.713  19.060  0.00  0.00    +0.000 A 
ATOM     10  C   UNL     1       4.333   2.322  19.068  0.00  0.00    +0.000 A 
ATOM     11  C   UNL     1       3.062   1.741  18.953  0.00  0.00    +0.000 A 
ATOM     12  C   UNL     1       1.921   2.556  18.825  0.00  0.00    +0.000 A 
ATOM     13 CL   UNL     1       0.337   1.823  18.658  0.00  0.00    +0.000 Cl
ATOM     14  C   UNL     1       2.063   3.954  18.830  0.00  0.00    +0.000 A 
ATOM     15  N   UNL     1       3.311   4.482  18.958  0.00  0.00    +0.000 N 
ENDBRANCH   3   6
BRANCH   1  16
ATOM     16  S   UNL     1       0.361   9.459  20.792  0.00  0.00    +0.000 S 
BRANCH  16  23
ATOM     17  C   UNL     1       1.610  12.466  20.624  0.00  0.00    +0.000 C 
ATOM     18  C   UNL     1       0.466  12.119  19.720  0.00  0.00    +0.000 A 
ATOM     19  C   UNL     1       0.024  13.098  18.815  0.00  0.00    +0.000 A 
ATOM     20  C   UNL     1      -1.020  12.840  17.934  0.00  0.00    +0.000 A 
ATOM     21  C   UNL     1      -1.649  11.587  17.922  0.00  0.00    +0.000 A 
ATOM     22  C   UNL     1      -1.210  10.599  18.827  0.00  0.00    +0.000 A 
ATOM     23  C   UNL     1      -0.169  10.850  19.740  0.00  0.00    +0.000 A 
BRANCH  21  24
ATOM     24  N   UNL     1      -2.706  11.315  16.998  0.00  0.00    +0.000 N 
ATOM     25  O   UNL     1      -2.472  10.806  15.943  0.00  0.00    +0.000 OA
ATOM     26  O   UNL     1      -3.948  11.619  17.298  0.00  0.00    +0.000 OA
ENDBRANCH  21  24
ENDBRANCH  16  23
ENDBRANCH   1  16
TORSDOF 4
ENDMDL
