MODEL 1
REMARK VINA RESULT:      -8.1      0.000      0.000
REMARK  Name = 
REMARK  6 active torsions:
REMARK  status: ('A' for Active; 'I' for Inactive)
REMARK    1  A    between atoms: C_1  and  C_2
REMARK    2  A    between atoms: C_2  and  C_3
REMARK    3  A    between atoms: C_3  and  C_4
REMARK    4  A    between atoms: C_4  and  N_5
REMARK    5  A    between atoms: N_9  and  C_10
REMARK    6  A    between atoms: C_10  and  C_11
REMARK                            x       y       z     vdW  Elec       q    Type
REMARK                         _______ _______ _______ _____ _____    ______ ____
ROOT
ATOM      1  N   UNL     1       5.935   5.032  16.449  0.00  0.00    +0.000 N 
ATOM      2  C   UNL     1       4.861   4.797  17.303  0.00  0.00    +0.000 A 
ATOM      3  N   UNL     1       4.206   5.876  17.732  0.00  0.00    +0.000 NA
ATOM      4  C   UNL     1       3.103   5.695  18.481  0.00  0.00    +0.000 A 
ATOM      5  N   UNL     1       2.520   6.831  19.046  0.00  0.00    +0.000 N 
ATOM      6  C   UNL     1       2.603   4.407  18.751  0.00  0.00    +0.000 A 
ATOM      7  C   UNL     1       1.369   4.123  19.402  0.00  0.00    +0.000 A 
ATOM      8  C   UNL     1       0.918   2.811  19.557  0.00  0.00    +0.000 A 
ATOM      9  C   UNL     1       1.724   1.768  19.131  0.00  0.00    +0.000 A 
ATOM     10  C   UNL     1       2.944   2.046  18.521  0.00  0.00    +0.000 A 
ATOM     11  F   UNL     1       3.698   1.006  18.130  0.00  0.00    +0.000 F 
ATOM     12  C   UNL     1       3.387   3.351  18.284  0.00  0.00    +0.000 A 
ATOM     13  N   UNL     1       4.512   3.546  17.594  0.00  0.00    +0.000 NA
ATOM     14  H   UNL     1       5.815   5.972  16.087  0.00  0.00    +0.000 HD
ATOM     15  H   UNL     1       1.660   6.700  19.556  0.00  0.00    +0.000 HD
ENDROOT
BRANCH   1  16
ATOM     16  C   UNL     1       6.133   3.983  15.461  0.00  0.00    +0.000 C 
BRANCH  16  17
ATOM     17  C   UNL     1       5.522   4.380  14.117  0.00  0.00    +0.000 C 
BRANCH  17  19
ATOM     18  C   UNL     1       5.091   3.238  11.912  0.00  0.00    +0.000 C 
ATOM     19  C   UNL     1       6.137   3.607  12.949  0.00  0.00    +0.000 C 
ENDBRANCH  17  19
ENDBRANCH  16  17
ENDBRANCH   1  16
BRANCH   5  20
ATOM     20  C   UNL     1       2.535   8.064  18.264  0.00  0.00    +0.000 C 
BRANCH  20  21
ATOM     21  C   UNL     1       1.490   9.070  18.634  0.00  0.00    +0.000 A 
ATOM     22  C   UNL     1       0.731   9.955  17.900  0.00  0.00    +0.000 A 
ATOM     23  C   UNL     1      -0.046  10.690  18.833  0.00  0.00    +0.000 A 
ATOM     24  C   UNL     1       0.278  10.195  20.073  0.00  0.00    +0.000 A 
ATOM     25  O   UNL     1       1.204   9.208  19.967  0.00  0.00    +0.000 OA
ENDBRANCH  20  21
ENDBRANCH   5  20
TORSDOF 5
ENDMDL
MODEL 2
REMARK VINA RESULT:      -7.9      1.997      2.569
REMARK  Name = 
REMARK  6 active torsions:
REMARK  status: ('A' for Active; 'I' for Inactive)
REMARK    1  A    between atoms: C_1  and  C_2
REMARK    2  A    between atoms: C_2  and  C_3
REMARK    3  A    between atoms: C_3  and  C_4
REMARK    4  A    between atoms: C_4  and  N_5
REMARK    5  A    between atoms: N_9  and  C_10
REMARK    6  A    between atoms: C_10  and  C_11
REMARK                            x       y       z     vdW  Elec       q    Type
REMARK                         _______ _______ _______ _____ _____    ______ ____
ROOT
ATOM      1  N   UNL     1       4.870   6.694  17.278  0.00  0.00    +0.000 N 
ATOM      2  C   UNL     1       4.019   6.055  18.176  0.00  0.00    +0.000 A 
ATOM      3  N   UNL     1       3.301   6.849  18.969  0.00  0.00    +0.000 NA
ATOM      4  C   UNL     1       2.394   6.281  19.786  0.00  0.00    +0.000 A 
ATOM      5  N   UNL     1       1.763   7.110  20.716  0.00  0.00    +0.000 N 
ATOM      6  C   UNL     1       2.149   4.895  19.760  0.00  0.00    +0.000 A 
ATOM      7  C   UNL     1       1.113   4.228  20.473  0.00  0.00    +0.000 A 
ATOM      8  C   UNL     1       0.899   2.857  20.323  0.00  0.00    +0.000 A 
ATOM      9  C   UNL     1       1.758   2.126  19.521  0.00  0.00    +0.000 A 
ATOM     10  C   UNL     1       2.790   2.773  18.847  0.00  0.00    +0.000 A 
ATOM     11  F   UNL     1       3.605   2.026  18.085  0.00  0.00    +0.000 F 
ATOM     12  C   UNL     1       2.983   4.157  18.918  0.00  0.00    +0.000 A 
ATOM     13  N   UNL     1       3.919   4.728  18.158  0.00  0.00    +0.000 NA
ATOM     14  H   UNL     1       4.546   7.652  17.208  0.00  0.00    +0.000 HD
ATOM     15  H   UNL     1       1.041   6.695  21.285  0.00  0.00    +0.000 HD
ENDROOT
BRANCH   1  16
ATOM     16  C   UNL     1       5.036   5.977  16.023  0.00  0.00    +0.000 C 
BRANCH  16  17
ATOM     17  C   UNL     1       6.514   5.703  15.746  0.00  0.00    +0.000 C 
BRANCH  17  19
ATOM     18  C   UNL     1       7.667   4.576  17.684  0.00  0.00    +0.000 C 
ATOM     19  C   UNL     1       6.979   4.374  16.345  0.00  0.00    +0.000 C 
ENDBRANCH  17  19
ENDBRANCH  16  17
ENDBRANCH   1  16
BRANCH   5  20
ATOM     20  C   UNL     1       1.450   8.477  20.307  0.00  0.00    +0.000 C 
BRANCH  20  21
ATOM     21  C   UNL     1       0.636   9.267  21.283  0.00  0.00    +0.000 A 
ATOM     22  C   UNL     1      -0.133   8.916  22.372  0.00  0.00    +0.000 A 
ATOM     23  C   UNL     1      -0.709  10.117  22.863  0.00  0.00    +0.000 A 
ATOM     24  C   UNL     1      -0.242  11.123  22.051  0.00  0.00    +0.000 A 
ATOM     25  O   UNL     1       0.580  10.623  21.093  0.00  0.00    +0.000 OA
ENDBRANCH  20  21
ENDBRANCH   5  20
TORSDOF 5
ENDMDL
MODEL 3
REMARK VINA RESULT:      -7.8      2.952      6.281
REMARK  Name = 
REMARK  6 active torsions:
REMARK  status: ('A' for Active; 'I' for Inactive)
REMARK    1  A    between atoms: C_1  and  C_2
REMARK    2  A    between atoms: C_2  and  C_3
REMARK    3  A    between atoms: C_3  and  C_4
REMARK    4  A    between atoms: C_4  and  N_5
REMARK    5  A    between atoms: N_9  and  C_10
REMARK    6  A    between atoms: C_10  and  C_11
REMARK                            x       y       z     vdW  Elec       q    Type
REMARK                         _______ _______ _______ _____ _____    ______ ____
ROOT
ATOM      1  N   UNL     1       5.132   2.644  19.763  0.00  0.00    +0.000 N 
ATOM      2  C   UNL     1       4.958   3.938  19.280  0.00  0.00    +0.000 A 
ATOM      3  N   UNL     1       5.910   4.392  18.466  0.00  0.00    +0.000 NA
ATOM      4  C   UNL     1       5.739   5.600  17.897  0.00  0.00    +0.000 A 
ATOM      5  N   UNL     1       6.811   6.123  17.172  0.00  0.00    +0.000 N 
ATOM      6  C   UNL     1       4.557   6.341  18.090  0.00  0.00    +0.000 A 
ATOM      7  C   UNL     1       4.224   7.549  17.415  0.00  0.00    +0.000 A 
ATOM      8  C   UNL     1       2.991   8.173  17.616  0.00  0.00    +0.000 A 
ATOM      9  C   UNL     1       2.111   7.640  18.543  0.00  0.00    +0.000 A 
ATOM     10  C   UNL     1       2.450   6.475  19.225  0.00  0.00    +0.000 A 
ATOM     11  F   UNL     1       1.571   5.996  20.119  0.00  0.00    +0.000 F 
ATOM     12  C   UNL     1       3.645   5.786  18.989  0.00  0.00    +0.000 A 
ATOM     13  N   UNL     1       3.856   4.615  19.593  0.00  0.00    +0.000 NA
ATOM     14  H   UNL     1       5.808   2.198  19.154  0.00  0.00    +0.000 HD
ATOM     15  H   UNL     1       6.659   7.000  16.697  0.00  0.00    +0.000 HD
ENDROOT
BRANCH   1  16
ATOM     16  C   UNL     1       3.883   1.928  19.972  0.00  0.00    +0.000 C 
BRANCH  16  17
ATOM     17  C   UNL     1       3.408   1.274  18.674  0.00  0.00    +0.000 C 
BRANCH  17  19
ATOM     18  C   UNL     1       1.137   2.330  18.960  0.00  0.00    +0.000 C 
ATOM     19  C   UNL     1       2.286   2.068  18.002  0.00  0.00    +0.000 C 
ENDBRANCH  17  19
ENDBRANCH  16  17
ENDBRANCH   1  16
BRANCH   5  20
ATOM     20  C   UNL     1       7.631   5.193  16.401  0.00  0.00    +0.000 C 
BRANCH  20  21
ATOM     21  C   UNL     1       7.047   4.757  15.093  0.00  0.00    +0.000 A 
ATOM     22  C   UNL     1       6.005   3.921  14.757  0.00  0.00    +0.000 A 
ATOM     23  C   UNL     1       5.977   3.861  13.339  0.00  0.00    +0.000 A 
ATOM     24  C   UNL     1       6.993   4.675  12.903  0.00  0.00    +0.000 A 
ATOM     25  O   UNL     1       7.647   5.231  13.956  0.00  0.00    +0.000 OA
ENDBRANCH  20  21
ENDBRANCH   5  20
TORSDOF 5
ENDMDL
MODEL 4
REMARK VINA RESULT:      -7.8      1.575      2.056
REMARK  Name = 
REMARK  6 active torsions:
REMARK  status: ('A' for Active; 'I' for Inactive)
REMARK    1  A    between atoms: C_1  and  C_2
REMARK    2  A    between atoms: C_2  and  C_3
REMARK    3  A    between atoms: C_3  and  C_4
REMARK    4  A    between atoms: C_4  and  N_5
REMARK    5  A    between atoms: N_9  and  C_10
REMARK    6  A    between atoms: C_10  and  C_11
REMARK                            x       y       z     vdW  Elec       q    Type
REMARK                         _______ _______ _______ _____ _____    ______ ____
ROOT
ATOM      1  N   UNL     1       5.114   6.643  17.348  0.00  0.00    +0.000 N 
ATOM      2  C   UNL     1       4.178   5.978  18.136  0.00  0.00    +0.000 A 
ATOM      3  N   UNL     1       3.449   6.741  18.951  0.00  0.00    +0.000 NA
ATOM      4  C   UNL     1       2.467   6.157  19.661  0.00  0.00    +0.000 A 
ATOM      5  N   UNL     1       1.818   6.939  20.618  0.00  0.00    +0.000 N 
ATOM      6  C   UNL     1       2.159   4.792  19.502  0.00  0.00    +0.000 A 
ATOM      7  C   UNL     1       1.049   4.125  20.093  0.00  0.00    +0.000 A 
ATOM      8  C   UNL     1       0.780   2.784  19.814  0.00  0.00    +0.000 A 
ATOM      9  C   UNL     1       1.653   2.076  19.005  0.00  0.00    +0.000 A 
ATOM     10  C   UNL     1       2.755   2.722  18.452  0.00  0.00    +0.000 A 
ATOM     11  F   UNL     1       3.580   1.998  17.679  0.00  0.00    +0.000 F 
ATOM     12  C   UNL     1       3.008   4.083  18.651  0.00  0.00    +0.000 A 
ATOM     13  N   UNL     1       4.017   4.664  18.000  0.00  0.00    +0.000 NA
ATOM     14  H   UNL     1       4.841   7.620  17.341  0.00  0.00    +0.000 HD
ATOM     15  H   UNL     1       1.042   6.517  21.106  0.00  0.00    +0.000 HD
ENDROOT
BRANCH   1  16
ATOM     16  C   UNL     1       5.326   6.025  16.049  0.00  0.00    +0.000 C 
BRANCH  16  17
ATOM     17  C   UNL     1       6.746   5.470  15.937  0.00  0.00    +0.000 C 
BRANCH  17  19
ATOM     18  C   UNL     1       5.585   4.183  14.106  0.00  0.00    +0.000 C 
ATOM     19  C   UNL     1       6.923   4.574  14.710  0.00  0.00    +0.000 C 
ENDBRANCH  17  19
ENDBRANCH  16  17
ENDBRANCH   1  16
BRANCH   5  20
ATOM     20  C   UNL     1       1.596   8.349  20.309  0.00  0.00    +0.000 C 
BRANCH  20  21
ATOM     21  C   UNL     1       0.713   9.084  21.269  0.00  0.00    +0.000 A 
ATOM     22  C   UNL     1      -0.285  10.020  21.105  0.00  0.00    +0.000 A 
ATOM     23  C   UNL     1      -0.712  10.387  22.408  0.00  0.00    +0.000 A 
ATOM     24  C   UNL     1       0.042   9.640  23.280  0.00  0.00    +0.000 A 
ATOM     25  O   UNL     1       0.906   8.840  22.603  0.00  0.00    +0.000 OA
ENDBRANCH  20  21
ENDBRANCH   5  20
TORSDOF 5
ENDMDL
MODEL 5
REMARK VINA RESULT:      -7.8      1.497      1.922
REMARK  Name = 
REMARK  6 active torsions:
REMARK  status: ('A' for Active; 'I' for Inactive)
REMARK    1  A    between atoms: C_1  and  C_2
REMARK    2  A    between atoms: C_2  and  C_3
REMARK    3  A    between atoms: C_3  and  C_4
REMARK    4  A    between atoms: C_4  and  N_5
REMARK    5  A    between atoms: N_9  and  C_10
REMARK    6  A    between atoms: C_10  and  C_11
REMARK                            x       y       z     vdW  Elec       q    Type
REMARK                         _______ _______ _______ _____ _____    ______ ____
ROOT
ATOM      1  N   UNL     1       6.167   5.401  18.631  0.00  0.00    +0.000 N 
ATOM      2  C   UNL     1       4.903   4.936  18.985  0.00  0.00    +0.000 A 
ATOM      3  N   UNL     1       4.055   5.848  19.460  0.00  0.00    +0.000 NA
ATOM      4  C   UNL     1       2.792   5.466  19.726  0.00  0.00    +0.000 A 
ATOM      5  N   UNL     1       1.965   6.392  20.364  0.00  0.00    +0.000 N 
ATOM      6  C   UNL     1       2.346   4.161  19.444  0.00  0.00    +0.000 A 
ATOM      7  C   UNL     1       1.000   3.710  19.549  0.00  0.00    +0.000 A 
ATOM      8  C   UNL     1       0.639   2.416  19.173  0.00  0.00    +0.000 A 
ATOM      9  C   UNL     1       1.625   1.536  18.759  0.00  0.00    +0.000 A 
ATOM     10  C   UNL     1       2.947   1.968  18.685  0.00  0.00    +0.000 A 
ATOM     11  F   UNL     1       3.872   1.081  18.286  0.00  0.00    +0.000 F 
ATOM     12  C   UNL     1       3.326   3.281  18.983  0.00  0.00    +0.000 A 
ATOM     13  N   UNL     1       4.590   3.659  18.782  0.00  0.00    +0.000 NA
ATOM     14  H   UNL     1       6.085   6.406  18.529  0.00  0.00    +0.000 HD
ATOM     15  H   UNL     1       1.002   6.125  20.507  0.00  0.00    +0.000 HD
ENDROOT
BRANCH   1  16
ATOM     16  C   UNL     1       6.757   4.687  17.509  0.00  0.00    +0.000 C 
BRANCH  16  17
ATOM     17  C   UNL     1       6.774   5.562  16.256  0.00  0.00    +0.000 C 
BRANCH  17  19
ATOM     18  C   UNL     1       6.027   4.030  14.400  0.00  0.00    +0.000 C 
ATOM     19  C   UNL     1       5.649   5.206  15.284  0.00  0.00    +0.000 C 
ENDBRANCH  17  19
ENDBRANCH  16  17
ENDBRANCH   1  16
BRANCH   5  20
ATOM     20  C   UNL     1       2.118   7.800  20.009  0.00  0.00    +0.000 C 
BRANCH  20  21
ATOM     21  C   UNL     1       1.185   8.741  20.706  0.00  0.00    +0.000 A 
ATOM     22  C   UNL     1       0.704   8.811  21.995  0.00  0.00    +0.000 A 
ATOM     23  C   UNL     1      -0.201   9.904  22.030  0.00  0.00    +0.000 A 
ATOM     24  C   UNL     1      -0.201  10.439  20.764  0.00  0.00    +0.000 A 
ATOM     25  O   UNL     1       0.640   9.748  19.953  0.00  0.00    +0.000 OA
ENDBRANCH  20  21
ENDBRANCH   5  20
TORSDOF 5
ENDMDL
MODEL 6
REMARK VINA RESULT:      -7.8      3.939      6.385
REMARK  Name = 
REMARK  6 active torsions:
REMARK  status: ('A' for Active; 'I' for Inactive)
REMARK    1  A    between atoms: C_1  and  C_2
REMARK    2  A    between atoms: C_2  and  C_3
REMARK    3  A    between atoms: C_3  and  C_4
REMARK    4  A    between atoms: C_4  and  N_5
REMARK    5  A    between atoms: N_9  and  C_10
REMARK    6  A    between atoms: C_10  and  C_11
REMARK                            x       y       z     vdW  Elec       q    Type
REMARK                         _______ _______ _______ _____ _____    ______ ____
ROOT
ATOM      1  N   UNL     1       7.859   7.226  18.470  0.00  0.00    +0.000 N 
ATOM      2  C   UNL     1       7.324   6.196  17.701  0.00  0.00    +0.000 A 
ATOM      3  N   UNL     1       6.456   5.394  18.318  0.00  0.00    +0.000 NA
ATOM      4  C   UNL     1       5.839   4.444  17.592  0.00  0.00    +0.000 A 
ATOM      5  N   UNL     1       5.053   3.520  18.282  0.00  0.00    +0.000 N 
ATOM      6  C   UNL     1       6.040   4.337  16.202  0.00  0.00    +0.000 A 
ATOM      7  C   UNL     1       5.323   3.469  15.331  0.00  0.00    +0.000 A 
ATOM      8  C   UNL     1       5.539   3.489  13.952  0.00  0.00    +0.000 A 
ATOM      9  C   UNL     1       6.520   4.319  13.436  0.00  0.00    +0.000 A 
ATOM     10  C   UNL     1       7.242   5.146  14.292  0.00  0.00    +0.000 A 
ATOM     11  F   UNL     1       8.189   5.930  13.752  0.00  0.00    +0.000 F 
ATOM     12  C   UNL     1       6.995   5.203  15.668  0.00  0.00    +0.000 A 
ATOM     13  N   UNL     1       7.644   6.100  16.413  0.00  0.00    +0.000 NA
ATOM     14  H   UNL     1       7.248   7.335  19.270  0.00  0.00    +0.000 HD
ATOM     15  H   UNL     1       4.543   2.847  17.730  0.00  0.00    +0.000 HD
ENDROOT
BRANCH   1  16
ATOM     16  C   UNL     1       8.145   8.432  17.709  0.00  0.00    +0.000 C 
BRANCH  16  17
ATOM     17  C   UNL     1       8.794   9.494  18.597  0.00  0.00    +0.000 C 
BRANCH  17  19
ATOM     18  C   UNL     1      10.223  11.456  17.917  0.00  0.00    +0.000 C 
ATOM     19  C   UNL     1       8.821  10.870  17.930  0.00  0.00    +0.000 C 
ENDBRANCH  17  19
ENDBRANCH  16  17
ENDBRANCH   1  16
BRANCH   5  20
ATOM     20  C   UNL     1       4.296   3.998  19.437  0.00  0.00    +0.000 C 
BRANCH  20  21
ATOM     21  C   UNL     1       2.862   3.572  19.484  0.00  0.00    +0.000 A 
ATOM     22  C   UNL     1       1.862   3.726  20.419  0.00  0.00    +0.000 A 
ATOM     23  C   UNL     1       0.726   3.044  19.911  0.00  0.00    +0.000 A 
ATOM     24  C   UNL     1       1.102   2.531  18.694  0.00  0.00    +0.000 A 
ATOM     25  O   UNL     1       2.393   2.849  18.418  0.00  0.00    +0.000 OA
ENDBRANCH  20  21
ENDBRANCH   5  20
TORSDOF 5
ENDMDL
MODEL 7
REMARK VINA RESULT:      -7.8      2.570      6.545
REMARK  Name = 
REMARK  6 active torsions:
REMARK  status: ('A' for Active; 'I' for Inactive)
REMARK    1  A    between atoms: C_1  and  C_2
REMARK    2  A    between atoms: C_2  and  C_3
REMARK    3  A    between atoms: C_3  and  C_4
REMARK    4  A    between atoms: C_4  and  N_5
REMARK    5  A    between atoms: N_9  and  C_10
REMARK    6  A    between atoms: C_10  and  C_11
REMARK                            x       y       z     vdW  Elec       q    Type
REMARK                         _______ _______ _______ _____ _____    ______ ____
ROOT
ATOM      1  N   UNL     1       2.955   7.655  17.442  0.00  0.00    +0.000 N 
ATOM      2  C   UNL     1       3.200   6.367  17.911  0.00  0.00    +0.000 A 
ATOM      3  N   UNL     1       4.249   5.739  17.381  0.00  0.00    +0.000 NA
ATOM      4  C   UNL     1       4.583   4.531  17.871  0.00  0.00    +0.000 A 
ATOM      5  N   UNL     1       5.584   3.824  17.203  0.00  0.00    +0.000 N 
ATOM      6  C   UNL     1       3.897   3.968  18.965  0.00  0.00    +0.000 A 
ATOM      7  C   UNL     1       4.271   2.774  19.644  0.00  0.00    +0.000 A 
ATOM      8  C   UNL     1       3.573   2.335  20.770  0.00  0.00    +0.000 A 
ATOM      9  C   UNL     1       2.454   3.037  21.185  0.00  0.00    +0.000 A 
ATOM     10  C   UNL     1       2.071   4.188  20.502  0.00  0.00    +0.000 A 
ATOM     11  F   UNL     1       0.977   4.836  20.933  0.00  0.00    +0.000 F 
ATOM     12  C   UNL     1       2.795   4.695  19.418  0.00  0.00    +0.000 A 
ATOM     13  N   UNL     1       2.439   5.864  18.881  0.00  0.00    +0.000 NA
ATOM     14  H   UNL     1       3.812   7.967  16.999  0.00  0.00    +0.000 HD
ATOM     15  H   UNL     1       5.875   2.947  17.609  0.00  0.00    +0.000 HD
ENDROOT
BRANCH   1  16
ATOM     16  C   UNL     1       2.389   8.543  18.445  0.00  0.00    +0.000 C 
BRANCH  16  17
ATOM     17  C   UNL     1       1.225   9.346  17.865  0.00  0.00    +0.000 C 
BRANCH  17  19
ATOM     18  C   UNL     1       0.611   9.882  20.250  0.00  0.00    +0.000 C 
ATOM     19  C   UNL     1       0.719  10.417  18.832  0.00  0.00    +0.000 C 
ENDBRANCH  17  19
ENDBRANCH  16  17
ENDBRANCH   1  16
BRANCH   5  20
ATOM     20  C   UNL     1       6.696   4.586  16.640  0.00  0.00    +0.000 C 
BRANCH  20  21
ATOM     21  C   UNL     1       6.804   4.553  15.147  0.00  0.00    +0.000 A 
ATOM     22  C   UNL     1       6.145   3.839  14.169  0.00  0.00    +0.000 A 
ATOM     23  C   UNL     1       6.739   4.205  12.933  0.00  0.00    +0.000 A 
ATOM     24  C   UNL     1       7.709   5.129  13.236  0.00  0.00    +0.000 A 
ATOM     25  O   UNL     1       7.755   5.355  14.574  0.00  0.00    +0.000 OA
ENDBRANCH  20  21
ENDBRANCH   5  20
TORSDOF 5
ENDMDL
MODEL 8
REMARK VINA RESULT:      -7.8      3.831      6.583
REMARK  Name = 
REMARK  6 active torsions:
REMARK  status: ('A' for Active; 'I' for Inactive)
REMARK    1  A    between atoms: C_1  and  C_2
REMARK    2  A    between atoms: C_2  and  C_3
REMARK    3  A    between atoms: C_3  and  C_4
REMARK    4  A    between atoms: C_4  and  N_5
REMARK    5  A    between atoms: N_9  and  C_10
REMARK    6  A    between atoms: C_10  and  C_11
REMARK                            x       y       z     vdW  Elec       q    Type
REMARK                         _______ _______ _______ _____ _____    ______ ____
ROOT
ATOM      1  N   UNL     1       7.167   6.931  17.913  0.00  0.00    +0.000 N 
ATOM      2  C   UNL     1       6.760   6.004  16.958  0.00  0.00    +0.000 A 
ATOM      3  N   UNL     1       5.650   5.322  17.239  0.00  0.00    +0.000 NA
ATOM      4  C   UNL     1       5.162   4.485  16.306  0.00  0.00    +0.000 A 
ATOM      5  N   UNL     1       4.092   3.668  16.675  0.00  0.00    +0.000 N 
ATOM      6  C   UNL     1       5.758   4.378  15.034  0.00  0.00    +0.000 A 
ATOM      7  C   UNL     1       5.230   3.638  13.938  0.00  0.00    +0.000 A 
ATOM      8  C   UNL     1       5.853   3.654  12.689  0.00  0.00    +0.000 A 
ATOM      9  C   UNL     1       7.043   4.346  12.539  0.00  0.00    +0.000 A 
ATOM     10  C   UNL     1       7.574   5.044  13.620  0.00  0.00    +0.000 A 
ATOM     11  F   UNL     1       8.733   5.696  13.433  0.00  0.00    +0.000 F 
ATOM     12  C   UNL     1       6.934   5.109  14.861  0.00  0.00    +0.000 A 
ATOM     13  N   UNL     1       7.438   5.889  15.819  0.00  0.00    +0.000 NA
ATOM     14  H   UNL     1       6.362   7.111  18.502  0.00  0.00    +0.000 HD
ATOM     15  H   UNL     1       3.690   3.086  15.955  0.00  0.00    +0.000 HD
ENDROOT
BRANCH   1  16
ATOM     16  C   UNL     1       7.824   8.100  17.347  0.00  0.00    +0.000 C 
BRANCH  16  17
ATOM     17  C   UNL     1       8.564   8.885  18.430  0.00  0.00    +0.000 C 
BRANCH  17  19
ATOM     18  C   UNL     1       9.931  10.986  18.165  0.00  0.00    +0.000 C 
ATOM     19  C   UNL     1       8.533  10.393  18.176  0.00  0.00    +0.000 C 
ENDBRANCH  17  19
ENDBRANCH  16  17
ENDBRANCH   1  16
BRANCH   5  20
ATOM     20  C   UNL     1       3.091   4.226  17.580  0.00  0.00    +0.000 C 
BRANCH  20  21
ATOM     21  C   UNL     1       2.997   3.562  18.918  0.00  0.00    +0.000 A 
ATOM     22  C   UNL     1       2.014   3.520  19.884  0.00  0.00    +0.000 A 
ATOM     23  C   UNL     1       2.543   2.768  20.965  0.00  0.00    +0.000 A 
ATOM     24  C   UNL     1       3.806   2.388  20.583  0.00  0.00    +0.000 A 
ATOM     25  O   UNL     1       4.093   2.857  19.342  0.00  0.00    +0.000 OA
ENDBRANCH  20  21
ENDBRANCH   5  20
TORSDOF 5
ENDMDL
MODEL 9
REMARK VINA RESULT:      -7.8      1.335      1.358
REMARK  Name = 
REMARK  6 active torsions:
REMARK  status: ('A' for Active; 'I' for Inactive)
REMARK    1  A    between atoms: C_1  and  C_2
REMARK    2  A    between atoms: C_2  and  C_3
REMARK    3  A    between atoms: C_3  and  C_4
REMARK    4  A    between atoms: C_4  and  N_5
REMARK    5  A    between atoms: N_9  and  C_10
REMARK    6  A    between atoms: C_10  and  C_11
REMARK                            x       y       z     vdW  Elec       q    Type
REMARK                         _______ _______ _______ _____ _____    ______ ____
ROOT
ATOM      1  N   UNL     1       5.573   5.774  16.452  0.00  0.00    +0.000 N 
ATOM      2  C   UNL     1       4.716   5.675  17.545  0.00  0.00    +0.000 A 
ATOM      3  N   UNL     1       3.907   6.714  17.751  0.00  0.00    +0.000 NA
ATOM      4  C   UNL     1       2.995   6.626  18.736  0.00  0.00    +0.000 A 
ATOM      5  N   UNL     1       2.264   7.776  19.037  0.00  0.00    +0.000 N 
ATOM      6  C   UNL     1       2.838   5.444  19.487  0.00  0.00    +0.000 A 
ATOM      7  C   UNL     1       1.808   5.205  20.440  0.00  0.00    +0.000 A 
ATOM      8  C   UNL     1       1.688   3.970  21.080  0.00  0.00    +0.000 A 
ATOM      9  C   UNL     1       2.634   2.989  20.833  0.00  0.00    +0.000 A 
ATOM     10  C   UNL     1       3.659   3.235  19.923  0.00  0.00    +0.000 A 
ATOM     11  F   UNL     1       4.559   2.259  19.718  0.00  0.00    +0.000 F 
ATOM     12  C   UNL     1       3.761   4.434  19.210  0.00  0.00    +0.000 A 
ATOM     13  N   UNL     1       4.700   4.560  18.271  0.00  0.00    +0.000 NA
ATOM     14  H   UNL     1       5.195   6.501  15.855  0.00  0.00    +0.000 HD
ATOM     15  H   UNL     1       1.538   7.690  19.733  0.00  0.00    +0.000 HD
ENDROOT
BRANCH   1  16
ATOM     16  C   UNL     1       5.852   4.497  15.814  0.00  0.00    +0.000 C 
BRANCH  16  17
ATOM     17  C   UNL     1       5.414   4.514  14.349  0.00  0.00    +0.000 C 
BRANCH  17  19
ATOM     18  C   UNL     1       5.701   3.263  12.180  0.00  0.00    +0.000 C 
ATOM     19  C   UNL     1       6.385   3.755  13.444  0.00  0.00    +0.000 C 
ENDBRANCH  17  19
ENDBRANCH  16  17
ENDBRANCH   1  16
BRANCH   5  20
ATOM     20  C   UNL     1       1.889   8.653  17.931  0.00  0.00    +0.000 C 
BRANCH  20  21
ATOM     21  C   UNL     1       0.898   9.722  18.269  0.00  0.00    +0.000 A 
ATOM     22  C   UNL     1      -0.448   9.876  18.014  0.00  0.00    +0.000 A 
ATOM     23  C   UNL     1      -0.817  11.140  18.544  0.00  0.00    +0.000 A 
ATOM     24  C   UNL     1       0.323  11.667  19.100  0.00  0.00    +0.000 A 
ATOM     25  O   UNL     1       1.369  10.816  18.947  0.00  0.00    +0.000 OA
ENDBRANCH  20  21
ENDBRANCH   5  20
TORSDOF 5
ENDMDL
