MODEL 1
REMARK VINA RESULT:      -8.3      0.000      0.000
REMARK  Name = 
REMARK  6 active torsions:
REMARK  status: ('A' for Active; 'I' for Inactive)
REMARK    1  A    between atoms: C_2  and  C_3
REMARK    2  A    between atoms: C_3  and  O_4
REMARK    3  A    between atoms: O_4  and  C_5
REMARK    4  A    between atoms: C_8  and  S_9
REMARK    5  A    between atoms: S_9  and  N_12
REMARK    6  A    between atoms: N_20  and  C_21
REMARK                            x       y       z     vdW  Elec       q    Type
REMARK                         _______ _______ _______ _____ _____    ______ ____
ROOT
ATOM      1  C   UNL     1       6.369   6.212  16.943  0.00  0.00    +0.000 A 
ATOM      2  C   UNL     1       5.437   6.479  17.961  0.00  0.00    +0.000 A 
ATOM      3  C   UNL     1       4.366   5.613  18.203  0.00  0.00    +0.000 A 
ATOM      4  C   UNL     1       4.201   4.488  17.402  0.00  0.00    +0.000 A 
ATOM      5  C   UNL     1       5.043   4.274  16.304  0.00  0.00    +0.000 A 
ATOM      6  C   UNL     1       6.129   5.129  16.083  0.00  0.00    +0.000 A 
ATOM      7 CL   UNL     1       7.187   4.780  14.761  0.00  0.00    +0.000 Cl
ENDROOT
BRANCH   4   8
ATOM      8  S   UNL     1       2.921   3.305  17.788  0.00  0.00    +0.000 S 
ATOM      9  O   UNL     1       1.773   3.644  16.984  0.00  0.00    +0.000 OA
ATOM     10  O   UNL     1       3.535   1.994  17.722  0.00  0.00    +0.000 OA
BRANCH   8  11
ATOM     11  N   UNL     1       2.567   3.600  19.405  0.00  0.00    +0.000 NA
ATOM     12  C   UNL     1       3.413   3.098  20.492  0.00  0.00    +0.000 C 
ATOM     13  C   UNL     1       2.463   2.362  21.416  0.00  0.00    +0.000 C 
ATOM     14  C   UNL     1       1.124   3.055  21.231  0.00  0.00    +0.000 C 
ATOM     15  C   UNL     1       1.171   3.711  19.853  0.00  0.00    +0.000 C 
ENDBRANCH   8  11
ENDBRANCH   4   8
BRANCH   1  16
ATOM     16  O   UNL     1       7.524   6.951  16.762  0.00  0.00    +0.000 OA
BRANCH  16  17
ATOM     17  C   UNL     1       8.114   7.419  17.972  0.00  0.00    +0.000 C 
BRANCH  17  19
ATOM     18  O   UNL     1       7.623   9.719  17.483  0.00  0.00    +0.000 OA
ATOM     19  C   UNL     1       8.271   8.929  18.169  0.00  0.00    +0.000 C 
ATOM     20  N   UNL     1       9.144   9.331  19.149  0.00  0.00    +0.000 N 
ATOM     21  H   UNL     1       9.760   8.628  19.546  0.00  0.00    +0.000 HD
BRANCH  20  22
ATOM     22  C   UNL     1       9.406  10.736  19.396  0.00  0.00    +0.000 C 
ATOM     23  C   UNL     1       9.333  11.088  20.875  0.00  0.00    +0.000 C 
ATOM     24  C   UNL     1      10.091  12.400  20.977  0.00  0.00    +0.000 C 
ATOM     25  C   UNL     1      11.175  12.333  19.905  0.00  0.00    +0.000 C 
ATOM     26  C   UNL     1      10.821  11.154  18.998  0.00  0.00    +0.000 C 
ENDBRANCH  20  22
ENDBRANCH  17  19
ENDBRANCH  16  17
ENDBRANCH   1  16
TORSDOF 6
ENDMDL
MODEL 2
REMARK VINA RESULT:      -8.2      1.100      1.374
REMARK  Name = 
REMARK  6 active torsions:
REMARK  status: ('A' for Active; 'I' for Inactive)
REMARK    1  A    between atoms: C_2  and  C_3
REMARK    2  A    between atoms: C_3  and  O_4
REMARK    3  A    between atoms: O_4  and  C_5
REMARK    4  A    between atoms: C_8  and  S_9
REMARK    5  A    between atoms: S_9  and  N_12
REMARK    6  A    between atoms: N_20  and  C_21
REMARK                            x       y       z     vdW  Elec       q    Type
REMARK                         _______ _______ _______ _____ _____    ______ ____
ROOT
ATOM      1  C   UNL     1       6.410   5.266  17.465  0.00  0.00    +0.000 A 
ATOM      2  C   UNL     1       6.005   4.934  18.770  0.00  0.00    +0.000 A 
ATOM      3  C   UNL     1       4.965   4.025  18.992  0.00  0.00    +0.000 A 
ATOM      4  C   UNL     1       4.299   3.468  17.905  0.00  0.00    +0.000 A 
ATOM      5  C   UNL     1       4.603   3.884  16.603  0.00  0.00    +0.000 A 
ATOM      6  C   UNL     1       5.661   4.773  16.385  0.00  0.00    +0.000 A 
ATOM      7 CL   UNL     1       6.049   5.198  14.754  0.00  0.00    +0.000 Cl
ENDROOT
BRANCH   4   8
ATOM      8  S   UNL     1       3.066   2.206  18.173  0.00  0.00    +0.000 S 
ATOM      9  O   UNL     1       2.256   2.144  16.981  0.00  0.00    +0.000 OA
ATOM     10  O   UNL     1       3.766   1.042  18.676  0.00  0.00    +0.000 OA
BRANCH   8  11
ATOM     11  N   UNL     1       2.136   2.805  19.438  0.00  0.00    +0.000 NA
ATOM     12  C   UNL     1       1.372   4.051  19.321  0.00  0.00    +0.000 C 
ATOM     13  C   UNL     1       1.799   4.882  20.516  0.00  0.00    +0.000 C 
ATOM     14  C   UNL     1       2.183   3.867  21.579  0.00  0.00    +0.000 C 
ATOM     15  C   UNL     1       2.546   2.585  20.833  0.00  0.00    +0.000 C 
ENDBRANCH   8  11
ENDBRANCH   4   8
BRANCH   1  16
ATOM     16  O   UNL     1       7.525   6.038  17.193  0.00  0.00    +0.000 OA
BRANCH  16  17
ATOM     17  C   UNL     1       7.983   6.813  18.298  0.00  0.00    +0.000 C 
BRANCH  17  19
ATOM     18  O   UNL     1       7.425   8.908  17.263  0.00  0.00    +0.000 OA
ATOM     19  C   UNL     1       8.079   8.332  18.133  0.00  0.00    +0.000 C 
ATOM     20  N   UNL     1       8.904   8.992  19.008  0.00  0.00    +0.000 N 
ATOM     21  H   UNL     1       9.532   8.431  19.575  0.00  0.00    +0.000 HD
BRANCH  20  22
ATOM     22  C   UNL     1       9.108  10.426  18.918  0.00  0.00    +0.000 C 
ATOM     23  C   UNL     1       9.560  11.031  20.239  0.00  0.00    +0.000 C 
ATOM     24  C   UNL     1      10.175  12.361  19.842  0.00  0.00    +0.000 C 
ATOM     25  C   UNL     1      10.781  12.136  18.459  0.00  0.00    +0.000 C 
ATOM     26  C   UNL     1      10.226  10.807  17.948  0.00  0.00    +0.000 C 
ENDBRANCH  20  22
ENDBRANCH  17  19
ENDBRANCH  16  17
ENDBRANCH   1  16
TORSDOF 6
ENDMDL
MODEL 3
REMARK VINA RESULT:      -7.9      1.091      1.440
REMARK  Name = 
REMARK  6 active torsions:
REMARK  status: ('A' for Active; 'I' for Inactive)
REMARK    1  A    between atoms: C_2  and  C_3
REMARK    2  A    between atoms: C_3  and  O_4
REMARK    3  A    between atoms: O_4  and  C_5
REMARK    4  A    between atoms: C_8  and  S_9
REMARK    5  A    between atoms: S_9  and  N_12
REMARK    6  A    between atoms: N_20  and  C_21
REMARK                            x       y       z     vdW  Elec       q    Type
REMARK                         _______ _______ _______ _____ _____    ______ ____
ROOT
ATOM      1  C   UNL     1       6.253   6.203  17.565  0.00  0.00    +0.000 A 
ATOM      2  C   UNL     1       6.273   5.756  18.898  0.00  0.00    +0.000 A 
ATOM      3  C   UNL     1       5.546   4.629  19.292  0.00  0.00    +0.000 A 
ATOM      4  C   UNL     1       4.763   3.958  18.357  0.00  0.00    +0.000 A 
ATOM      5  C   UNL     1       4.631   4.462  17.057  0.00  0.00    +0.000 A 
ATOM      6  C   UNL     1       5.381   5.575  16.662  0.00  0.00    +0.000 A 
ATOM      7 CL   UNL     1       5.242   6.114  15.025  0.00  0.00    +0.000 Cl
ENDROOT
BRANCH   4   8
ATOM      8  S   UNL     1       3.942   2.440  18.813  0.00  0.00    +0.000 S 
ATOM      9  O   UNL     1       3.517   1.804  17.590  0.00  0.00    +0.000 OA
ATOM     10  O   UNL     1       4.809   1.768  19.758  0.00  0.00    +0.000 OA
BRANCH   8  11
ATOM     11  N   UNL     1       2.587   2.951  19.666  0.00  0.00    +0.000 NA
ATOM     12  C   UNL     1       1.749   4.062  19.205  0.00  0.00    +0.000 C 
ATOM     13  C   UNL     1       1.660   5.000  20.393  0.00  0.00    +0.000 C 
ATOM     14  C   UNL     1       1.808   4.103  21.610  0.00  0.00    +0.000 C 
ATOM     15  C   UNL     1       2.551   2.857  21.133  0.00  0.00    +0.000 C 
ENDBRANCH   8  11
ENDBRANCH   4   8
BRANCH   1  16
ATOM     16  O   UNL     1       7.068   7.215  17.095  0.00  0.00    +0.000 OA
BRANCH  16  17
ATOM     17  C   UNL     1       8.069   7.637  18.017  0.00  0.00    +0.000 C 
BRANCH  17  19
ATOM     18  O   UNL     1       7.737   9.955  17.482  0.00  0.00    +0.000 OA
ATOM     19  C   UNL     1       8.287   9.139  18.221  0.00  0.00    +0.000 C 
ATOM     20  N   UNL     1       9.098   9.503  19.267  0.00  0.00    +0.000 N 
ATOM     21  H   UNL     1       9.643   8.774  19.714  0.00  0.00    +0.000 HD
BRANCH  20  22
ATOM     22  C   UNL     1       9.411  10.896  19.529  0.00  0.00    +0.000 C 
ATOM     23  C   UNL     1       9.264  11.256  21.000  0.00  0.00    +0.000 C 
ATOM     24  C   UNL     1      10.076  12.531  21.148  0.00  0.00    +0.000 C 
ATOM     25  C   UNL     1      11.219  12.408  20.144  0.00  0.00    +0.000 C 
ATOM     26  C   UNL     1      10.866  11.245  19.218  0.00  0.00    +0.000 C 
ENDBRANCH  20  22
ENDBRANCH  17  19
ENDBRANCH  16  17
ENDBRANCH   1  16
TORSDOF 6
ENDMDL
MODEL 4
REMARK VINA RESULT:      -7.7      1.546      1.899
REMARK  Name = 
REMARK  6 active torsions:
REMARK  status: ('A' for Active; 'I' for Inactive)
REMARK    1  A    between atoms: C_2  and  C_3
REMARK    2  A    between atoms: C_3  and  O_4
REMARK    3  A    between atoms: O_4  and  C_5
REMARK    4  A    between atoms: C_8  and  S_9
REMARK    5  A    between atoms: S_9  and  N_12
REMARK    6  A    between atoms: N_20  and  C_21
REMARK                            x       y       z     vdW  Elec       q    Type
REMARK                         _______ _______ _______ _____ _____    ______ ____
ROOT
ATOM      1  C   UNL     1       6.816   6.182  16.973  0.00  0.00    +0.000 A 
ATOM      2  C   UNL     1       5.845   5.929  15.989  0.00  0.00    +0.000 A 
ATOM      3  C   UNL     1       4.819   5.005  16.210  0.00  0.00    +0.000 A 
ATOM      4  C   UNL     1       4.778   4.301  17.408  0.00  0.00    +0.000 A 
ATOM      5  C   UNL     1       5.808   4.445  18.347  0.00  0.00    +0.000 A 
ATOM      6  C   UNL     1       6.818   5.390  18.132  0.00  0.00    +0.000 A 
ATOM      7 CL   UNL     1       8.025   5.588  19.354  0.00  0.00    +0.000 Cl
ENDROOT
BRANCH   4   8
ATOM      8  S   UNL     1       3.399   3.223  17.758  0.00  0.00    +0.000 S 
ATOM      9  O   UNL     1       2.354   3.554  16.821  0.00  0.00    +0.000 OA
ATOM     10  O   UNL     1       3.935   1.881  17.854  0.00  0.00    +0.000 OA
BRANCH   8  11
ATOM     11  N   UNL     1       2.914   3.670  19.304  0.00  0.00    +0.000 NA
ATOM     12  C   UNL     1       2.678   2.683  20.362  0.00  0.00    +0.000 C 
ATOM     13  C   UNL     1       1.286   2.993  20.879  0.00  0.00    +0.000 C 
ATOM     14  C   UNL     1       1.103   4.481  20.637  0.00  0.00    +0.000 C 
ATOM     15  C   UNL     1       2.059   4.849  19.504  0.00  0.00    +0.000 C 
ENDBRANCH   8  11
ENDBRANCH   4   8
BRANCH   1  16
ATOM     16  O   UNL     1       7.758   7.189  16.865  0.00  0.00    +0.000 OA
BRANCH  16  17
ATOM     17  C   UNL     1       7.378   8.413  17.488  0.00  0.00    +0.000 C 
BRANCH  17  19
ATOM     18  O   UNL     1       9.061   8.706  19.179  0.00  0.00    +0.000 OA
ATOM     19  C   UNL     1       8.449   9.212  18.237  0.00  0.00    +0.000 C 
ATOM     20  N   UNL     1       8.689  10.486  17.788  0.00  0.00    +0.000 N 
ATOM     21  H   UNL     1       8.028  10.882  17.127  0.00  0.00    +0.000 HD
BRANCH  20  22
ATOM     22  C   UNL     1       9.649  11.351  18.448  0.00  0.00    +0.000 C 
ATOM     23  C   UNL     1      10.041  12.543  17.587  0.00  0.00    +0.000 C 
ATOM     24  C   UNL     1      10.618  13.538  18.579  0.00  0.00    +0.000 C 
ATOM     25  C   UNL     1       9.850  13.312  19.879  0.00  0.00    +0.000 C 
ATOM     26  C   UNL     1       9.093  11.994  19.718  0.00  0.00    +0.000 C 
ENDBRANCH  20  22
ENDBRANCH  17  19
ENDBRANCH  16  17
ENDBRANCH   1  16
TORSDOF 6
ENDMDL
MODEL 5
REMARK VINA RESULT:      -7.6      1.803      2.261
REMARK  Name = 
REMARK  6 active torsions:
REMARK  status: ('A' for Active; 'I' for Inactive)
REMARK    1  A    between atoms: C_2  and  C_3
REMARK    2  A    between atoms: C_3  and  O_4
REMARK    3  A    between atoms: O_4  and  C_5
REMARK    4  A    between atoms: C_8  and  S_9
REMARK    5  A    between atoms: S_9  and  N_12
REMARK    6  A    between atoms: N_20  and  C_21
REMARK                            x       y       z     vdW  Elec       q    Type
REMARK                         _______ _______ _______ _____ _____    ______ ____
ROOT
ATOM      1  C   UNL     1       6.768   5.751  17.078  0.00  0.00    +0.000 A 
ATOM      2  C   UNL     1       5.950   5.335  16.013  0.00  0.00    +0.000 A 
ATOM      3  C   UNL     1       4.888   4.449  16.223  0.00  0.00    +0.000 A 
ATOM      4  C   UNL     1       4.658   3.946  17.499  0.00  0.00    +0.000 A 
ATOM      5  C   UNL     1       5.538   4.249  18.546  0.00  0.00    +0.000 A 
ATOM      6  C   UNL     1       6.583   5.156  18.336  0.00  0.00    +0.000 A 
ATOM      7 CL   UNL     1       7.597   5.558  19.678  0.00  0.00    +0.000 Cl
ENDROOT
BRANCH   4   8
ATOM      8  S   UNL     1       3.225   2.927  17.806  0.00  0.00    +0.000 S 
ATOM      9  O   UNL     1       2.506   2.820  16.561  0.00  0.00    +0.000 OA
ATOM     10  O   UNL     1       3.695   1.754  18.515  0.00  0.00    +0.000 OA
BRANCH   8  11
ATOM     11  N   UNL     1       2.311   3.825  18.894  0.00  0.00    +0.000 NA
ATOM     12  C   UNL     1       2.064   5.258  18.706  0.00  0.00    +0.000 C 
ATOM     13  C   UNL     1       2.485   5.899  20.014  0.00  0.00    +0.000 C 
ATOM     14  C   UNL     1       2.263   4.824  21.065  0.00  0.00    +0.000 C 
ATOM     15  C   UNL     1       2.315   3.489  20.325  0.00  0.00    +0.000 C 
ENDBRANCH   8  11
ENDBRANCH   4   8
BRANCH   1  16
ATOM     16  O   UNL     1       7.730   6.736  16.953  0.00  0.00    +0.000 OA
BRANCH  16  17
ATOM     17  C   UNL     1       7.270   8.047  17.268  0.00  0.00    +0.000 C 
BRANCH  17  19
ATOM     18  O   UNL     1       8.843   8.575  19.005  0.00  0.00    +0.000 OA
ATOM     19  C   UNL     1       8.208   8.985  18.033  0.00  0.00    +0.000 C 
ATOM     20  N   UNL     1       8.306  10.270  17.562  0.00  0.00    +0.000 N 
ATOM     21  H   UNL     1       7.626  10.570  16.871  0.00  0.00    +0.000 HD
BRANCH  20  22
ATOM     22  C   UNL     1       9.130  11.258  18.233  0.00  0.00    +0.000 C 
ATOM     23  C   UNL     1      10.568  11.248  17.734  0.00  0.00    +0.000 C 
ATOM     24  C   UNL     1      11.112  12.602  18.155  0.00  0.00    +0.000 C 
ATOM     25  C   UNL     1       9.923  13.558  18.095  0.00  0.00    +0.000 C 
ATOM     26  C   UNL     1       8.670  12.691  17.969  0.00  0.00    +0.000 C 
ENDBRANCH  20  22
ENDBRANCH  17  19
ENDBRANCH  16  17
ENDBRANCH   1  16
TORSDOF 6
ENDMDL
MODEL 6
REMARK VINA RESULT:      -7.6      5.865      8.182
REMARK  Name = 
REMARK  6 active torsions:
REMARK  status: ('A' for Active; 'I' for Inactive)
REMARK    1  A    between atoms: C_2  and  C_3
REMARK    2  A    between atoms: C_3  and  O_4
REMARK    3  A    between atoms: O_4  and  C_5
REMARK    4  A    between atoms: C_8  and  S_9
REMARK    5  A    between atoms: S_9  and  N_12
REMARK    6  A    between atoms: N_20  and  C_21
REMARK                            x       y       z     vdW  Elec       q    Type
REMARK                         _______ _______ _______ _____ _____    ______ ____
ROOT
ATOM      1  C   UNL     1       1.596   8.515  20.046  0.00  0.00    +0.000 A 
ATOM      2  C   UNL     1       1.676   7.339  20.811  0.00  0.00    +0.000 A 
ATOM      3  C   UNL     1       2.335   6.205  20.323  0.00  0.00    +0.000 A 
ATOM      4  C   UNL     1       2.890   6.232  19.048  0.00  0.00    +0.000 A 
ATOM      5  C   UNL     1       2.710   7.350  18.223  0.00  0.00    +0.000 A 
ATOM      6  C   UNL     1       2.073   8.490  18.726  0.00  0.00    +0.000 A 
ATOM      7 CL   UNL     1       1.942   9.872  17.696  0.00  0.00    +0.000 Cl
ENDROOT
BRANCH   4   8
ATOM      8  S   UNL     1       3.852   4.844  18.470  0.00  0.00    +0.000 S 
ATOM      9  O   UNL     1       3.964   4.972  17.038  0.00  0.00    +0.000 OA
ATOM     10  O   UNL     1       5.022   4.767  19.319  0.00  0.00    +0.000 OA
BRANCH   8  11
ATOM     11  N   UNL     1       2.896   3.508  18.829  0.00  0.00    +0.000 NA
ATOM     12  C   UNL     1       1.512   3.392  18.358  0.00  0.00    +0.000 C 
ATOM     13  C   UNL     1       0.701   3.099  19.606  0.00  0.00    +0.000 C 
ATOM     14  C   UNL     1       1.662   2.377  20.535  0.00  0.00    +0.000 C 
ATOM     15  C   UNL     1       3.067   2.791  20.101  0.00  0.00    +0.000 C 
ENDBRANCH   8  11
ENDBRANCH   4   8
BRANCH   1  16
ATOM     16  O   UNL     1       1.091   9.704  20.538  0.00  0.00    +0.000 OA
BRANCH  16  17
ATOM     17  C   UNL     1      -0.330   9.801  20.490  0.00  0.00    +0.000 C 
BRANCH  17  19
ATOM     18  O   UNL     1      -0.817  11.942  19.516  0.00  0.00    +0.000 OA
ATOM     19  C   UNL     1      -0.963  10.722  19.443  0.00  0.00    +0.000 C 
ATOM     20  N   UNL     1      -1.667  10.111  18.436  0.00  0.00    +0.000 N 
ATOM     21  H   UNL     1      -1.882   9.125  18.545  0.00  0.00    +0.000 HD
BRANCH  20  22
ATOM     22  C   UNL     1      -2.346  10.885  17.414  0.00  0.00    +0.000 C 
ATOM     23  C   UNL     1      -2.512  10.110  16.115  0.00  0.00    +0.000 C 
ATOM     24  C   UNL     1      -3.623  10.846  15.387  0.00  0.00    +0.000 C 
ATOM     25  C   UNL     1      -4.540  11.389  16.481  0.00  0.00    +0.000 C 
ATOM     26  C   UNL     1      -3.780  11.248  17.800  0.00  0.00    +0.000 C 
ENDBRANCH  20  22
ENDBRANCH  17  19
ENDBRANCH  16  17
ENDBRANCH   1  16
TORSDOF 6
ENDMDL
MODEL 7
REMARK VINA RESULT:      -7.6      3.395      5.481
REMARK  Name = 
REMARK  6 active torsions:
REMARK  status: ('A' for Active; 'I' for Inactive)
REMARK    1  A    between atoms: C_2  and  C_3
REMARK    2  A    between atoms: C_3  and  O_4
REMARK    3  A    between atoms: O_4  and  C_5
REMARK    4  A    between atoms: C_8  and  S_9
REMARK    5  A    between atoms: S_9  and  N_12
REMARK    6  A    between atoms: N_20  and  C_21
REMARK                            x       y       z     vdW  Elec       q    Type
REMARK                         _______ _______ _______ _____ _____    ______ ____
ROOT
ATOM      1  C   UNL     1       5.758   5.829  18.430  0.00  0.00    +0.000 A 
ATOM      2  C   UNL     1       5.941   4.705  19.253  0.00  0.00    +0.000 A 
ATOM      3  C   UNL     1       5.072   3.612  19.184  0.00  0.00    +0.000 A 
ATOM      4  C   UNL     1       3.990   3.652  18.311  0.00  0.00    +0.000 A 
ATOM      5  C   UNL     1       3.718   4.813  17.576  0.00  0.00    +0.000 A 
ATOM      6  C   UNL     1       4.606   5.894  17.630  0.00  0.00    +0.000 A 
ATOM      7 CL   UNL     1       4.270   7.276  16.647  0.00  0.00    +0.000 Cl
ENDROOT
BRANCH   4   8
ATOM      8  S   UNL     1       2.956   2.210  18.113  0.00  0.00    +0.000 S 
ATOM      9  O   UNL     1       2.257   2.358  16.860  0.00  0.00    +0.000 OA
ATOM     10  O   UNL     1       3.792   1.059  18.384  0.00  0.00    +0.000 OA
BRANCH   8  11
ATOM     11  N   UNL     1       1.852   2.324  19.375  0.00  0.00    +0.000 NA
ATOM     12  C   UNL     1       0.703   3.234  19.326  0.00  0.00    +0.000 C 
ATOM     13  C   UNL     1       0.791   4.039  20.608  0.00  0.00    +0.000 C 
ATOM     14  C   UNL     1       1.485   3.120  21.599  0.00  0.00    +0.000 C 
ATOM     15  C   UNL     1       2.287   2.123  20.766  0.00  0.00    +0.000 C 
ENDBRANCH   8  11
ENDBRANCH   4   8
BRANCH   1  16
ATOM     16  O   UNL     1       6.670   6.866  18.351  0.00  0.00    +0.000 OA
BRANCH  16  17
ATOM     17  C   UNL     1       7.488   6.838  17.185  0.00  0.00    +0.000 C 
BRANCH  17  19
ATOM     18  O   UNL     1       7.931   4.508  16.797  0.00  0.00    +0.000 OA
ATOM     19  C   UNL     1       7.500   5.565  16.334  0.00  0.00    +0.000 C 
ATOM     20  N   UNL     1       6.994   5.674  15.063  0.00  0.00    +0.000 N 
ATOM     21  H   UNL     1       6.822   6.608  14.705  0.00  0.00    +0.000 HD
BRANCH  20  22
ATOM     22  C   UNL     1       6.995   4.546  14.151  0.00  0.00    +0.000 C 
ATOM     23  C   UNL     1       5.588   4.096  13.785  0.00  0.00    +0.000 C 
ATOM     24  C   UNL     1       5.779   3.293  12.510  0.00  0.00    +0.000 C 
ATOM     25  C   UNL     1       6.960   3.941  11.791  0.00  0.00    +0.000 C 
ATOM     26  C   UNL     1       7.628   4.875  12.800  0.00  0.00    +0.000 C 
ENDBRANCH  20  22
ENDBRANCH  17  19
ENDBRANCH  16  17
ENDBRANCH   1  16
TORSDOF 6
ENDMDL
MODEL 8
REMARK VINA RESULT:      -7.6      5.977      7.772
REMARK  Name = 
REMARK  6 active torsions:
REMARK  status: ('A' for Active; 'I' for Inactive)
REMARK    1  A    between atoms: C_2  and  C_3
REMARK    2  A    between atoms: C_3  and  O_4
REMARK    3  A    between atoms: O_4  and  C_5
REMARK    4  A    between atoms: C_8  and  S_9
REMARK    5  A    between atoms: S_9  and  N_12
REMARK    6  A    between atoms: N_20  and  C_21
REMARK                            x       y       z     vdW  Elec       q    Type
REMARK                         _______ _______ _______ _____ _____    ______ ____
ROOT
ATOM      1  C   UNL     1       1.828   7.270  20.232  0.00  0.00    +0.000 A 
ATOM      2  C   UNL     1       1.687   6.018  20.855  0.00  0.00    +0.000 A 
ATOM      3  C   UNL     1       2.037   4.838  20.190  0.00  0.00    +0.000 A 
ATOM      4  C   UNL     1       2.499   4.903  18.879  0.00  0.00    +0.000 A 
ATOM      5  C   UNL     1       2.524   6.127  18.200  0.00  0.00    +0.000 A 
ATOM      6  C   UNL     1       2.198   7.307  18.879  0.00  0.00    +0.000 A 
ATOM      7 CL   UNL     1       2.319   8.803  18.020  0.00  0.00    +0.000 Cl
ENDROOT
BRANCH   4   8
ATOM      8  S   UNL     1       3.078   3.421  18.069  0.00  0.00    +0.000 S 
ATOM      9  O   UNL     1       3.124   2.382  19.068  0.00  0.00    +0.000 OA
ATOM     10  O   UNL     1       2.294   3.277  16.860  0.00  0.00    +0.000 OA
BRANCH   8  11
ATOM     11  N   UNL     1       4.646   3.801  17.597  0.00  0.00    +0.000 NA
ATOM     12  C   UNL     1       5.609   4.413  18.517  0.00  0.00    +0.000 C 
ATOM     13  C   UNL     1       6.121   5.639  17.784  0.00  0.00    +0.000 C 
ATOM     14  C   UNL     1       6.004   5.288  16.311  0.00  0.00    +0.000 C 
ATOM     15  C   UNL     1       4.929   4.209  16.213  0.00  0.00    +0.000 C 
ENDBRANCH   8  11
ENDBRANCH   4   8
BRANCH   1  16
ATOM     16  O   UNL     1       1.641   8.469  20.894  0.00  0.00    +0.000 OA
BRANCH  16  17
ATOM     17  C   UNL     1       0.304   8.694  21.332  0.00  0.00    +0.000 C 
BRANCH  17  19
ATOM     18  O   UNL     1       0.644   9.707  23.484  0.00  0.00    +0.000 OA
ATOM     19  C   UNL     1       0.056   9.760  22.403  0.00  0.00    +0.000 C 
ATOM     20  N   UNL     1      -0.825  10.760  22.078  0.00  0.00    +0.000 N 
ATOM     21  H   UNL     1      -1.391  10.636  21.245  0.00  0.00    +0.000 HD
BRANCH  20  22
ATOM     22  C   UNL     1      -1.171  11.799  23.030  0.00  0.00    +0.000 C 
ATOM     23  C   UNL     1      -0.693  13.174  22.586  0.00  0.00    +0.000 C 
ATOM     24  C   UNL     1      -1.539  14.137  23.401  0.00  0.00    +0.000 C 
ATOM     25  C   UNL     1      -2.882  13.439  23.597  0.00  0.00    +0.000 C 
ATOM     26  C   UNL     1      -2.680  11.979  23.191  0.00  0.00    +0.000 C 
ENDBRANCH  20  22
ENDBRANCH  17  19
ENDBRANCH  16  17
ENDBRANCH   1  16
TORSDOF 6
ENDMDL
MODEL 9
REMARK VINA RESULT:      -7.5      4.597      7.054
REMARK  Name = 
REMARK  6 active torsions:
REMARK  status: ('A' for Active; 'I' for Inactive)
REMARK    1  A    between atoms: C_2  and  C_3
REMARK    2  A    between atoms: C_3  and  O_4
REMARK    3  A    between atoms: O_4  and  C_5
REMARK    4  A    between atoms: C_8  and  S_9
REMARK    5  A    between atoms: S_9  and  N_12
REMARK    6  A    between atoms: N_20  and  C_21
REMARK                            x       y       z     vdW  Elec       q    Type
REMARK                         _______ _______ _______ _____ _____    ______ ____
ROOT
ATOM      1  C   UNL     1       4.407   3.307  19.098  0.00  0.00    +0.000 A 
ATOM      2  C   UNL     1       5.600   4.023  19.301  0.00  0.00    +0.000 A 
ATOM      3  C   UNL     1       6.188   4.753  18.263  0.00  0.00    +0.000 A 
ATOM      4  C   UNL     1       5.601   4.743  17.001  0.00  0.00    +0.000 A 
ATOM      5  C   UNL     1       4.486   3.935  16.748  0.00  0.00    +0.000 A 
ATOM      6  C   UNL     1       3.887   3.227  17.796  0.00  0.00    +0.000 A 
ATOM      7 CL   UNL     1       2.467   2.304  17.451  0.00  0.00    +0.000 Cl
ENDROOT
BRANCH   4   8
ATOM      8  S   UNL     1       6.263   5.780  15.707  0.00  0.00    +0.000 S 
ATOM      9  O   UNL     1       5.164   6.544  15.172  0.00  0.00    +0.000 OA
ATOM     10  O   UNL     1       7.441   6.423  16.253  0.00  0.00    +0.000 OA
BRANCH   8  11
ATOM     11  N   UNL     1       6.794   4.690  14.543  0.00  0.00    +0.000 NA
ATOM     12  C   UNL     1       7.815   5.044  13.553  0.00  0.00    +0.000 C 
ATOM     13  C   UNL     1       7.196   4.693  12.213  0.00  0.00    +0.000 C 
ATOM     14  C   UNL     1       6.235   3.555  12.515  0.00  0.00    +0.000 C 
ATOM     15  C   UNL     1       5.875   3.682  13.993  0.00  0.00    +0.000 C 
ENDBRANCH   8  11
ENDBRANCH   4   8
BRANCH   1  16
ATOM     16  O   UNL     1       3.708   2.697  20.123  0.00  0.00    +0.000 OA
BRANCH  16  17
ATOM     17  C   UNL     1       2.998   3.600  20.965  0.00  0.00    +0.000 C 
BRANCH  17  19
ATOM     18  O   UNL     1       0.920   4.354  20.021  0.00  0.00    +0.000 OA
ATOM     19  C   UNL     1       2.082   4.640  20.311  0.00  0.00    +0.000 C 
ATOM     20  N   UNL     1       2.623   5.882  20.095  0.00  0.00    +0.000 N 
ATOM     21  H   UNL     1       3.628   5.982  20.202  0.00  0.00    +0.000 HD
BRANCH  20  22
ATOM     22  C   UNL     1       1.864   6.933  19.442  0.00  0.00    +0.000 C 
ATOM     23  C   UNL     1       1.712   8.167  20.319  0.00  0.00    +0.000 C 
ATOM     24  C   UNL     1       1.358   9.272  19.339  0.00  0.00    +0.000 C 
ATOM     25  C   UNL     1       2.078   8.914  18.041  0.00  0.00    +0.000 C 
ATOM     26  C   UNL     1       2.551   7.468  18.186  0.00  0.00    +0.000 C 
ENDBRANCH  20  22
ENDBRANCH  17  19
ENDBRANCH  16  17
ENDBRANCH   1  16
TORSDOF 6
ENDMDL
