MODEL 1
REMARK VINA RESULT:      -8.2      0.000      0.000
REMARK  Name = 
REMARK  3 active torsions:
REMARK  status: ('A' for Active; 'I' for Inactive)
REMARK    1  A    between atoms: C_2  and  O_3
REMARK    2  A    between atoms: C_2  and  C_10
REMARK    3  A    between atoms: O_3  and  C_4
REMARK                            x       y       z     vdW  Elec       q    Type
REMARK                         _______ _______ _______ _____ _____    ______ ____
ROOT
ATOM      1  C   UNL     1       5.567   4.534  15.523  0.00  0.00    +0.000 A 
ATOM      2  C   UNL     1       4.896   5.592  16.113  0.00  0.00    +0.000 A 
ATOM      3  C   UNL     1       4.153   5.041  17.177  0.00  0.00    +0.000 A 
ATOM      4  C   UNL     1       4.252   3.676  17.058  0.00  0.00    +0.000 A 
ATOM      5  O   UNL     1       5.116   3.347  16.059  0.00  0.00    +0.000 OA
ATOM      6  C   UNL     1       3.609   2.703  17.901  0.00  0.00    +0.000 C 
ATOM      7  O   UNL     1       3.702   1.487  17.791  0.00  0.00    +0.000 OA
ATOM      8  C   UNL     1       2.781   3.306  19.000  0.00  0.00    +0.000 A 
ATOM      9  C   UNL     1       2.037   2.469  19.842  0.00  0.00    +0.000 A 
ATOM     10  C   UNL     1       1.294   3.017  20.892  0.00  0.00    +0.000 A 
ATOM     11  C   UNL     1       1.313   4.391  21.127  0.00  0.00    +0.000 A 
ATOM     12  C   UNL     1       2.040   5.235  20.287  0.00  0.00    +0.000 A 
ATOM     13  C   UNL     1       2.749   4.702  19.204  0.00  0.00    +0.000 A 
ATOM     14  C   UNL     1       3.430   5.646  18.268  0.00  0.00    +0.000 C 
ATOM     15  O   UNL     1       3.395   6.858  18.444  0.00  0.00    +0.000 OA
ENDROOT
BRANCH   1  17
ATOM     16  O   UNL     1       7.714   5.210  14.775  0.00  0.00    +0.000 OA
ATOM     17  C   UNL     1       6.687   4.567  14.607  0.00  0.00    +0.000 C 
BRANCH  17  18
ATOM     18  O   UNL     1       6.520   3.628  13.639  0.00  0.00    +0.000 OA
BRANCH  18  19
ATOM     19  C   UNL     1       6.165   4.143  12.343  0.00  0.00    +0.000 C 
ATOM     20  C   UNL     1       7.390   3.974  11.426  0.00  0.00    +0.000 C 
ATOM     21  C   UNL     1       7.795   2.501  11.306  0.00  0.00    +0.000 C 
ATOM     22  C   UNL     1       6.630   1.601  10.893  0.00  0.00    +0.000 C 
ATOM     23  C   UNL     1       5.367   1.838  11.720  0.00  0.00    +0.000 C 
ATOM     24  C   UNL     1       5.005   3.321  11.785  0.00  0.00    +0.000 C 
ENDBRANCH  18  19
ENDBRANCH  17  18
ENDBRANCH   1  17
TORSDOF 3
ENDMDL
MODEL 2
REMARK VINA RESULT:      -8.0      0.697      2.221
REMARK  Name = 
REMARK  3 active torsions:
REMARK  status: ('A' for Active; 'I' for Inactive)
REMARK    1  A    between atoms: C_2  and  O_3
REMARK    2  A    between atoms: C_2  and  C_10
REMARK    3  A    between atoms: O_3  and  C_4
REMARK                            x       y       z     vdW  Elec       q    Type
REMARK                         _______ _______ _______ _____ _____    ______ ____
ROOT
ATOM      1  C   UNL     1       5.999   4.503  15.573  0.00  0.00    +0.000 A 
ATOM      2  C   UNL     1       5.613   3.335  16.207  0.00  0.00    +0.000 A 
ATOM      3  C   UNL     1       4.616   3.702  17.134  0.00  0.00    +0.000 A 
ATOM      4  C   UNL     1       4.591   5.076  17.157  0.00  0.00    +0.000 A 
ATOM      5  O   UNL     1       5.422   5.583  16.207  0.00  0.00    +0.000 OA
ATOM      6  C   UNL     1       3.758   5.894  17.999  0.00  0.00    +0.000 C 
ATOM      7  O   UNL     1       3.738   7.118  18.014  0.00  0.00    +0.000 OA
ATOM      8  C   UNL     1       2.849   5.107  18.899  0.00  0.00    +0.000 A 
ATOM      9  C   UNL     1       2.044   5.781  19.828  0.00  0.00    +0.000 A 
ATOM     10  C   UNL     1       1.166   5.063  20.644  0.00  0.00    +0.000 A 
ATOM     11  C   UNL     1       1.061   3.677  20.519  0.00  0.00    +0.000 A 
ATOM     12  C   UNL     1       1.867   2.994  19.607  0.00  0.00    +0.000 A 
ATOM     13  C   UNL     1       2.784   3.700  18.819  0.00  0.00    +0.000 A 
ATOM     14  C   UNL     1       3.700   2.923  17.930  0.00  0.00    +0.000 C 
ATOM     15  O   UNL     1       3.647   1.701  17.867  0.00  0.00    +0.000 OA
ENDROOT
BRANCH   1  17
ATOM     16  O   UNL     1       7.656   5.468  14.176  0.00  0.00    +0.000 OA
ATOM     17  C   UNL     1       6.748   4.666  14.345  0.00  0.00    +0.000 C 
BRANCH  17  18
ATOM     18  O   UNL     1       6.436   3.668  13.477  0.00  0.00    +0.000 OA
BRANCH  18  19
ATOM     19  C   UNL     1       6.110   4.098  12.143  0.00  0.00    +0.000 C 
ATOM     20  C   UNL     1       7.347   3.850  11.262  0.00  0.00    +0.000 C 
ATOM     21  C   UNL     1       7.733   2.367  11.249  0.00  0.00    +0.000 C 
ATOM     22  C   UNL     1       6.561   1.457  10.878  0.00  0.00    +0.000 C 
ATOM     23  C   UNL     1       5.289   1.767  11.664  0.00  0.00    +0.000 C 
ATOM     24  C   UNL     1       4.948   3.255  11.622  0.00  0.00    +0.000 C 
ENDBRANCH  18  19
ENDBRANCH  17  18
ENDBRANCH   1  17
TORSDOF 3
ENDMDL
MODEL 3
REMARK VINA RESULT:      -7.8      4.025      6.630
REMARK  Name = 
REMARK  3 active torsions:
REMARK  status: ('A' for Active; 'I' for Inactive)
REMARK    1  A    between atoms: C_2  and  O_3
REMARK    2  A    between atoms: C_2  and  C_10
REMARK    3  A    between atoms: O_3  and  C_4
REMARK                            x       y       z     vdW  Elec       q    Type
REMARK                         _______ _______ _______ _____ _____    ______ ____
ROOT
ATOM      1  C   UNL     1       3.070   6.101  19.251  0.00  0.00    +0.000 A 
ATOM      2  C   UNL     1       2.811   6.985  18.218  0.00  0.00    +0.000 A 
ATOM      3  C   UNL     1       2.119   8.071  18.794  0.00  0.00    +0.000 A 
ATOM      4  C   UNL     1       1.823   7.704  20.085  0.00  0.00    +0.000 A 
ATOM      5  O   UNL     1       2.401   6.509  20.385  0.00  0.00    +0.000 OA
ATOM      6  C   UNL     1       1.077   8.484  21.037  0.00  0.00    +0.000 C 
ATOM      7  O   UNL     1       0.818   8.154  22.188  0.00  0.00    +0.000 OA
ATOM      8  C   UNL     1       0.625   9.815  20.508  0.00  0.00    +0.000 A 
ATOM      9  C   UNL     1      -0.181  10.638  21.306  0.00  0.00    +0.000 A 
ATOM     10  C   UNL     1      -0.576  11.895  20.839  0.00  0.00    +0.000 A 
ATOM     11  C   UNL     1      -0.148  12.350  19.592  0.00  0.00    +0.000 A 
ATOM     12  C   UNL     1       0.644  11.534  18.784  0.00  0.00    +0.000 A 
ATOM     13  C   UNL     1       1.005  10.254  19.222  0.00  0.00    +0.000 A 
ATOM     14  C   UNL     1       1.765   9.372  18.286  0.00  0.00    +0.000 C 
ATOM     15  O   UNL     1       2.089   9.754  17.167  0.00  0.00    +0.000 OA
ENDROOT
BRANCH   1  17
ATOM     16  O   UNL     1       3.692   3.812  19.213  0.00  0.00    +0.000 OA
ATOM     17  C   UNL     1       4.002   4.993  19.287  0.00  0.00    +0.000 C 
BRANCH  17  18
ATOM     18  O   UNL     1       5.276   5.459  19.212  0.00  0.00    +0.000 OA
BRANCH  18  19
ATOM     19  C   UNL     1       6.099   4.829  18.214  0.00  0.00    +0.000 C 
ATOM     20  C   UNL     1       5.820   5.534  16.874  0.00  0.00    +0.000 C 
ATOM     21  C   UNL     1       6.151   7.029  16.952  0.00  0.00    +0.000 C 
ATOM     22  C   UNL     1       7.567   7.292  17.465  0.00  0.00    +0.000 C 
ATOM     23  C   UNL     1       7.900   6.510  18.735  0.00  0.00    +0.000 C 
ATOM     24  C   UNL     1       7.567   5.026  18.586  0.00  0.00    +0.000 C 
ENDBRANCH  18  19
ENDBRANCH  17  18
ENDBRANCH   1  17
TORSDOF 3
ENDMDL
MODEL 4
REMARK VINA RESULT:      -7.8      4.743      7.560
REMARK  Name = 
REMARK  3 active torsions:
REMARK  status: ('A' for Active; 'I' for Inactive)
REMARK    1  A    between atoms: C_2  and  O_3
REMARK    2  A    between atoms: C_2  and  C_10
REMARK    3  A    between atoms: O_3  and  C_4
REMARK                            x       y       z     vdW  Elec       q    Type
REMARK                         _______ _______ _______ _____ _____    ______ ____
ROOT
ATOM      1  C   UNL     1       2.930   6.847  18.775  0.00  0.00    +0.000 A 
ATOM      2  C   UNL     1       2.793   7.913  17.902  0.00  0.00    +0.000 A 
ATOM      3  C   UNL     1       2.052   8.894  18.593  0.00  0.00    +0.000 A 
ATOM      4  C   UNL     1       1.614   8.306  19.755  0.00  0.00    +0.000 A 
ATOM      5  O   UNL     1       2.145   7.060  19.887  0.00  0.00    +0.000 OA
ATOM      6  C   UNL     1       0.776   8.920  20.751  0.00  0.00    +0.000 C 
ATOM      7  O   UNL     1       0.390   8.391  21.786  0.00  0.00    +0.000 OA
ATOM      8  C   UNL     1       0.395  10.337  20.432  0.00  0.00    +0.000 A 
ATOM      9  C   UNL     1      -0.486  11.023  21.280  0.00  0.00    +0.000 A 
ATOM     10  C   UNL     1      -0.817  12.355  21.014  0.00  0.00    +0.000 A 
ATOM     11  C   UNL     1      -0.251  13.018  19.925  0.00  0.00    +0.000 A 
ATOM     12  C   UNL     1       0.616  12.341  19.068  0.00  0.00    +0.000 A 
ATOM     13  C   UNL     1       0.917  10.993  19.297  0.00  0.00    +0.000 A 
ATOM     14  C   UNL     1       1.766  10.276  18.299  0.00  0.00    +0.000 C 
ATOM     15  O   UNL     1       2.213  10.846  17.311  0.00  0.00    +0.000 OA
ENDROOT
BRANCH   1  17
ATOM     16  O   UNL     1       4.865   5.693  18.031  0.00  0.00    +0.000 OA
ATOM     17  C   UNL     1       3.843   5.725  18.703  0.00  0.00    +0.000 C 
BRANCH  17  18
ATOM     18  O   UNL     1       3.511   4.798  19.639  0.00  0.00    +0.000 OA
BRANCH  18  19
ATOM     19  C   UNL     1       3.175   3.499  19.120  0.00  0.00    +0.000 C 
ATOM     20  C   UNL     1       3.513   2.464  20.207  0.00  0.00    +0.000 C 
ATOM     21  C   UNL     1       2.722   2.730  21.493  0.00  0.00    +0.000 C 
ATOM     22  C   UNL     1       1.217   2.844  21.245  0.00  0.00    +0.000 C 
ATOM     23  C   UNL     1       0.869   3.782  20.091  0.00  0.00    +0.000 C 
ATOM     24  C   UNL     1       1.675   3.454  18.835  0.00  0.00    +0.000 C 
ENDBRANCH  18  19
ENDBRANCH  17  18
ENDBRANCH   1  17
TORSDOF 3
ENDMDL
MODEL 5
REMARK VINA RESULT:      -7.7      4.781      7.238
REMARK  Name = 
REMARK  3 active torsions:
REMARK  status: ('A' for Active; 'I' for Inactive)
REMARK    1  A    between atoms: C_2  and  O_3
REMARK    2  A    between atoms: C_2  and  C_10
REMARK    3  A    between atoms: O_3  and  C_4
REMARK                            x       y       z     vdW  Elec       q    Type
REMARK                         _______ _______ _______ _____ _____    ______ ____
ROOT
ATOM      1  C   UNL     1       3.066   6.532  19.148  0.00  0.00    +0.000 A 
ATOM      2  C   UNL     1       2.842   7.473  18.157  0.00  0.00    +0.000 A 
ATOM      3  C   UNL     1       2.069   8.492  18.751  0.00  0.00    +0.000 A 
ATOM      4  C   UNL     1       1.702   8.030  19.992  0.00  0.00    +0.000 A 
ATOM      5  O   UNL     1       2.306   6.840  20.256  0.00  0.00    +0.000 OA
ATOM      6  C   UNL     1       0.861   8.718  20.937  0.00  0.00    +0.000 C 
ATOM      7  O   UNL     1       0.539   8.303  22.043  0.00  0.00    +0.000 OA
ATOM      8  C   UNL     1       0.392  10.063  20.463  0.00  0.00    +0.000 A 
ATOM      9  C   UNL     1      -0.499  10.802  21.254  0.00  0.00    +0.000 A 
ATOM     10  C   UNL     1      -0.913  12.071  20.840  0.00  0.00    +0.000 A 
ATOM     11  C   UNL     1      -0.420  12.623  19.658  0.00  0.00    +0.000 A 
ATOM     12  C   UNL     1       0.456  11.892  18.857  0.00  0.00    +0.000 A 
ATOM     13  C   UNL     1       0.840  10.600  19.237  0.00  0.00    +0.000 A 
ATOM     14  C   UNL     1       1.697   9.810  18.303  0.00  0.00    +0.000 C 
ATOM     15  O   UNL     1       2.080  10.276  17.236  0.00  0.00    +0.000 OA
ENDROOT
BRANCH   1  17
ATOM     16  O   UNL     1       5.130   5.517  19.729  0.00  0.00    +0.000 OA
ATOM     17  C   UNL     1       4.039   5.459  19.179  0.00  0.00    +0.000 C 
BRANCH  17  18
ATOM     18  O   UNL     1       3.486   4.319  18.687  0.00  0.00    +0.000 OA
BRANCH  18  19
ATOM     19  C   UNL     1       3.522   3.190  19.578  0.00  0.00    +0.000 C 
ATOM     20  C   UNL     1       2.381   3.366  20.595  0.00  0.00    +0.000 C 
ATOM     21  C   UNL     1       1.019   3.433  19.897  0.00  0.00    +0.000 C 
ATOM     22  C   UNL     1       0.782   2.253  18.955  0.00  0.00    +0.000 C 
ATOM     23  C   UNL     1       1.956   1.992  18.013  0.00  0.00    +0.000 C 
ATOM     24  C   UNL     1       3.280   1.916  18.770  0.00  0.00    +0.000 C 
ENDBRANCH  18  19
ENDBRANCH  17  18
ENDBRANCH   1  17
TORSDOF 3
ENDMDL
MODEL 6
REMARK VINA RESULT:      -7.7      5.149      8.446
REMARK  Name = 
REMARK  3 active torsions:
REMARK  status: ('A' for Active; 'I' for Inactive)
REMARK    1  A    between atoms: C_2  and  O_3
REMARK    2  A    between atoms: C_2  and  C_10
REMARK    3  A    between atoms: O_3  and  C_4
REMARK                            x       y       z     vdW  Elec       q    Type
REMARK                         _______ _______ _______ _____ _____    ______ ____
ROOT
ATOM      1  C   UNL     1       1.855   8.437  19.249  0.00  0.00    +0.000 A 
ATOM      2  C   UNL     1       1.831   8.590  20.624  0.00  0.00    +0.000 A 
ATOM      3  C   UNL     1       0.809   9.523  20.898  0.00  0.00    +0.000 A 
ATOM      4  C   UNL     1       0.407  10.029  19.686  0.00  0.00    +0.000 A 
ATOM      5  O   UNL     1       1.028   9.374  18.667  0.00  0.00    +0.000 OA
ATOM      6  C   UNL     1      -0.584  11.052  19.482  0.00  0.00    +0.000 C 
ATOM      7  O   UNL     1      -0.940  11.498  18.398  0.00  0.00    +0.000 OA
ATOM      8  C   UNL     1      -1.205  11.556  20.753  0.00  0.00    +0.000 A 
ATOM      9  C   UNL     1      -2.127  12.611  20.701  0.00  0.00    +0.000 A 
ATOM     10  C   UNL     1      -2.739  13.062  21.873  0.00  0.00    +0.000 A 
ATOM     11  C   UNL     1      -2.463  12.448  23.095  0.00  0.00    +0.000 A 
ATOM     12  C   UNL     1      -1.538  11.406  23.161  0.00  0.00    +0.000 A 
ATOM     13  C   UNL     1      -0.882  10.978  21.999  0.00  0.00    +0.000 A 
ATOM     14  C   UNL     1       0.176   9.932  22.127  0.00  0.00    +0.000 C 
ATOM     15  O   UNL     1       0.459   9.436  23.211  0.00  0.00    +0.000 OA
ENDROOT
BRANCH   1  17
ATOM     16  O   UNL     1       3.451   7.552  17.733  0.00  0.00    +0.000 OA
ATOM     17  C   UNL     1       2.480   7.395  18.461  0.00  0.00    +0.000 C 
BRANCH  17  18
ATOM     18  O   UNL     1       1.962   6.186  18.799  0.00  0.00    +0.000 OA
BRANCH  18  19
ATOM     19  C   UNL     1       2.919   5.225  19.281  0.00  0.00    +0.000 C 
ATOM     20  C   UNL     1       2.415   4.712  20.642  0.00  0.00    +0.000 C 
ATOM     21  C   UNL     1       1.038   4.053  20.512  0.00  0.00    +0.000 C 
ATOM     22  C   UNL     1       1.002   2.971  19.433  0.00  0.00    +0.000 C 
ATOM     23  C   UNL     1       1.605   3.428  18.105  0.00  0.00    +0.000 C 
ATOM     24  C   UNL     1       2.984   4.057  18.299  0.00  0.00    +0.000 C 
ENDBRANCH  18  19
ENDBRANCH  17  18
ENDBRANCH   1  17
TORSDOF 3
ENDMDL
MODEL 7
REMARK VINA RESULT:      -7.7      5.007      8.065
REMARK  Name = 
REMARK  3 active torsions:
REMARK  status: ('A' for Active; 'I' for Inactive)
REMARK    1  A    between atoms: C_2  and  O_3
REMARK    2  A    between atoms: C_2  and  C_10
REMARK    3  A    between atoms: O_3  and  C_4
REMARK                            x       y       z     vdW  Elec       q    Type
REMARK                         _______ _______ _______ _____ _____    ______ ____
ROOT
ATOM      1  C   UNL     1       1.995   8.303  18.534  0.00  0.00    +0.000 A 
ATOM      2  C   UNL     1       1.779   9.589  18.068  0.00  0.00    +0.000 A 
ATOM      3  C   UNL     1       1.182  10.297  19.131  0.00  0.00    +0.000 A 
ATOM      4  C   UNL     1       0.888   9.370  20.102  0.00  0.00    +0.000 A 
ATOM      5  O   UNL     1       1.383   8.149  19.759  0.00  0.00    +0.000 OA
ATOM      6  C   UNL     1       0.222   9.633  21.350  0.00  0.00    +0.000 C 
ATOM      7  O   UNL     1      -0.035   8.803  22.213  0.00  0.00    +0.000 OA
ATOM      8  C   UNL     1      -0.143  11.076  21.550  0.00  0.00    +0.000 A 
ATOM      9  C   UNL     1      -0.868  11.454  22.688  0.00  0.00    +0.000 A 
ATOM     10  C   UNL     1      -1.180  12.800  22.903  0.00  0.00    +0.000 A 
ATOM     11  C   UNL     1      -0.747  13.776  22.007  0.00  0.00    +0.000 A 
ATOM     12  C   UNL     1      -0.035  13.410  20.864  0.00  0.00    +0.000 A 
ATOM     13  C   UNL     1       0.241  12.060  20.614  0.00  0.00    +0.000 A 
ATOM     14  C   UNL     1       0.913  11.700  19.330  0.00  0.00    +0.000 C 
ATOM     15  O   UNL     1       1.240  12.555  18.516  0.00  0.00    +0.000 OA
ENDROOT
BRANCH   1  17
ATOM     16  O   UNL     1       3.990   7.434  17.590  0.00  0.00    +0.000 OA
ATOM     17  C   UNL     1       2.844   7.267  17.984  0.00  0.00    +0.000 C 
BRANCH  17  18
ATOM     18  O   UNL     1       2.260   6.052  18.154  0.00  0.00    +0.000 OA
BRANCH  18  19
ATOM     19  C   UNL     1       3.124   5.028  18.678  0.00  0.00    +0.000 C 
ATOM     20  C   UNL     1       2.904   4.971  20.200  0.00  0.00    +0.000 C 
ATOM     21  C   UNL     1       1.445   4.644  20.539  0.00  0.00    +0.000 C 
ATOM     22  C   UNL     1       0.945   3.385  19.831  0.00  0.00    +0.000 C 
ATOM     23  C   UNL     1       1.258   3.373  18.336  0.00  0.00    +0.000 C 
ATOM     24  C   UNL     1       2.728   3.686  18.065  0.00  0.00    +0.000 C 
ENDBRANCH  18  19
ENDBRANCH  17  18
ENDBRANCH   1  17
TORSDOF 3
ENDMDL
MODEL 8
REMARK VINA RESULT:      -7.6      4.731      7.787
REMARK  Name = 
REMARK  3 active torsions:
REMARK  status: ('A' for Active; 'I' for Inactive)
REMARK    1  A    between atoms: C_2  and  O_3
REMARK    2  A    between atoms: C_2  and  C_10
REMARK    3  A    between atoms: O_3  and  C_4
REMARK                            x       y       z     vdW  Elec       q    Type
REMARK                         _______ _______ _______ _____ _____    ______ ____
ROOT
ATOM      1  C   UNL     1       2.705   6.915  18.956  0.00  0.00    +0.000 A 
ATOM      2  C   UNL     1       1.993   7.129  20.124  0.00  0.00    +0.000 A 
ATOM      3  C   UNL     1       1.407   8.405  19.999  0.00  0.00    +0.000 A 
ATOM      4  C   UNL     1       1.947   8.974  18.870  0.00  0.00    +0.000 A 
ATOM      5  O   UNL     1       2.735   8.077  18.216  0.00  0.00    +0.000 OA
ATOM      6  C   UNL     1       1.677  10.299  18.377  0.00  0.00    +0.000 C 
ATOM      7  O   UNL     1       2.158  10.799  17.369  0.00  0.00    +0.000 OA
ATOM      8  C   UNL     1       0.696  11.069  19.215  0.00  0.00    +0.000 A 
ATOM      9  C   UNL     1       0.408  12.402  18.891  0.00  0.00    +0.000 A 
ATOM     10  C   UNL     1      -0.531  13.115  19.640  0.00  0.00    +0.000 A 
ATOM     11  C   UNL     1      -1.209  12.500  20.692  0.00  0.00    +0.000 A 
ATOM     12  C   UNL     1      -0.921  11.178  21.032  0.00  0.00    +0.000 A 
ATOM     13  C   UNL     1       0.053  10.468  20.318  0.00  0.00    +0.000 A 
ATOM     14  C   UNL     1       0.406   9.092  20.777  0.00  0.00    +0.000 C 
ATOM     15  O   UNL     1      -0.149   8.575  21.739  0.00  0.00    +0.000 OA
ENDROOT
BRANCH   1  17
ATOM     16  O   UNL     1       3.724   5.538  17.315  0.00  0.00    +0.000 OA
ATOM     17  C   UNL     1       3.231   5.674  18.427  0.00  0.00    +0.000 C 
BRANCH  17  18
ATOM     18  O   UNL     1       3.283   4.737  19.409  0.00  0.00    +0.000 OA
BRANCH  18  19
ATOM     19  C   UNL     1       2.956   3.399  18.994  0.00  0.00    +0.000 C 
ATOM     20  C   UNL     1       3.460   2.439  20.087  0.00  0.00    +0.000 C 
ATOM     21  C   UNL     1       2.800   2.740  21.438  0.00  0.00    +0.000 C 
ATOM     22  C   UNL     1       1.274   2.776  21.352  0.00  0.00    +0.000 C 
ATOM     23  C   UNL     1       0.758   3.634  20.198  0.00  0.00    +0.000 C 
ATOM     24  C   UNL     1       1.438   3.274  18.879  0.00  0.00    +0.000 C 
ENDBRANCH  18  19
ENDBRANCH  17  18
ENDBRANCH   1  17
TORSDOF 3
ENDMDL
MODEL 9
REMARK VINA RESULT:      -7.6      5.008      8.456
REMARK  Name = 
REMARK  3 active torsions:
REMARK  status: ('A' for Active; 'I' for Inactive)
REMARK    1  A    between atoms: C_2  and  O_3
REMARK    2  A    between atoms: C_2  and  C_10
REMARK    3  A    between atoms: O_3  and  C_4
REMARK                            x       y       z     vdW  Elec       q    Type
REMARK                         _______ _______ _______ _____ _____    ______ ____
ROOT
ATOM      1  C   UNL     1       1.961   8.011  19.640  0.00  0.00    +0.000 A 
ATOM      2  C   UNL     1       1.752   8.159  21.000  0.00  0.00    +0.000 A 
ATOM      3  C   UNL     1       0.823   9.210  21.144  0.00  0.00    +0.000 A 
ATOM      4  C   UNL     1       0.671   9.769  19.898  0.00  0.00    +0.000 A 
ATOM      5  O   UNL     1       1.351   9.047  18.966  0.00  0.00    +0.000 OA
ATOM      6  C   UNL     1      -0.146  10.909  19.575  0.00  0.00    +0.000 C 
ATOM      7  O   UNL     1      -0.280  11.402  18.462  0.00  0.00    +0.000 OA
ATOM      8  C   UNL     1      -0.882  11.480  20.753  0.00  0.00    +0.000 A 
ATOM      9  C   UNL     1      -1.649  12.642  20.592  0.00  0.00    +0.000 A 
ATOM     10  C   UNL     1      -2.369  13.160  21.672  0.00  0.00    +0.000 A 
ATOM     11  C   UNL     1      -2.354  12.510  22.906  0.00  0.00    +0.000 A 
ATOM     12  C   UNL     1      -1.583  11.361  23.082  0.00  0.00    +0.000 A 
ATOM     13  C   UNL     1      -0.821  10.860  22.019  0.00  0.00    +0.000 A 
ATOM     14  C   UNL     1       0.070   9.689  22.276  0.00  0.00    +0.000 C 
ATOM     15  O   UNL     1       0.126   9.156  23.378  0.00  0.00    +0.000 OA
ENDROOT
BRANCH   1  17
ATOM     16  O   UNL     1       3.129   6.989  17.847  0.00  0.00    +0.000 OA
ATOM     17  C   UNL     1       2.563   6.904  18.928  0.00  0.00    +0.000 C 
BRANCH  17  18
ATOM     18  O   UNL     1       2.587   5.801  19.721  0.00  0.00    +0.000 OA
BRANCH  18  19
ATOM     19  C   UNL     1       1.805   4.690  19.247  0.00  0.00    +0.000 C 
ATOM     20  C   UNL     1       2.781   3.657  18.655  0.00  0.00    +0.000 C 
ATOM     21  C   UNL     1       3.784   3.174  19.708  0.00  0.00    +0.000 C 
ATOM     22  C   UNL     1       3.105   2.671  20.981  0.00  0.00    +0.000 C 
ATOM     23  C   UNL     1       2.049   3.635  21.520  0.00  0.00    +0.000 C 
ATOM     24  C   UNL     1       1.069   4.063  20.429  0.00  0.00    +0.000 C 
ENDBRANCH  18  19
ENDBRANCH  17  18
ENDBRANCH   1  17
TORSDOF 3
ENDMDL
