MODEL 1
REMARK VINA RESULT:      -8.8      0.000      0.000
REMARK  Name = 
REMARK  5 active torsions:
REMARK  status: ('A' for Active; 'I' for Inactive)
REMARK    1  A    between atoms: C_1  and  C_2
REMARK    2  A    between atoms: C_5  and  N_6
REMARK    3  A    between atoms: N_9  and  C_10
REMARK    4  A    between atoms: C_14  and  C_16
REMARK    5  A    between atoms: C_23  and  C_24
REMARK                            x       y       z     vdW  Elec       q    Type
REMARK                         _______ _______ _______ _____ _____    ______ ____
ROOT
ATOM      1  N   UNL     1       9.149   9.334  19.188  0.00  0.00    +0.000 N 
ATOM      2  C   UNL     1       8.328   8.671  18.301  0.00  0.00    +0.000 C 
ATOM      3  O   UNL     1       7.783   9.122  17.304  0.00  0.00    +0.000 OA
ATOM      4  N   UNL     1       8.165   7.349  18.676  0.00  0.00    +0.000 N 
ATOM      5  H   UNL     1       9.382   8.814  20.016  0.00  0.00    +0.000 HD
ATOM      6  H   UNL     1       8.986   6.949  19.102  0.00  0.00    +0.000 HD
ENDROOT
BRANCH   1  11
ATOM      7  C   UNL     1      11.444  14.589  18.875  0.00  0.00    +0.000 C 
ATOM      8  C   UNL     1      10.785  13.246  18.933  0.00  0.00    +0.000 A 
ATOM      9  C   UNL     1      10.777  12.408  17.824  0.00  0.00    +0.000 A 
ATOM     10  C   UNL     1      10.209  11.133  17.902  0.00  0.00    +0.000 A 
ATOM     11  C   UNL     1       9.639  10.657  19.090  0.00  0.00    +0.000 A 
ATOM     12  C   UNL     1       9.587  11.520  20.207  0.00  0.00    +0.000 A 
ATOM     13  C   UNL     1       8.960  11.181  21.533  0.00  0.00    +0.000 C 
ATOM     14  C   UNL     1      10.181  12.800  20.111  0.00  0.00    +0.000 A 
ENDBRANCH   1  11
BRANCH   4  15
ATOM     15  C   UNL     1       7.408   6.457  17.807  0.00  0.00    +0.000 C 
ATOM     16  C   UNL     1       7.780   5.002  18.074  0.00  0.00    +0.000 C 
ATOM     17  C   UNL     1       6.596   4.233  17.518  0.00  0.00    +0.000 C 
ATOM     18  N   UNL     1       5.455   5.067  17.844  0.00  0.00    +0.000 N 
ATOM     19  C   UNL     1       4.142   4.704  18.037  0.00  0.00    +0.000 C 
ATOM     20  O   UNL     1       3.301   5.567  18.305  0.00  0.00    +0.000 OA
ATOM     21  C   UNL     1       5.876   6.463  18.004  0.00  0.00    +0.000 C 
BRANCH  19  22
ATOM     22  C   UNL     1       3.763   3.206  18.029  0.00  0.00    +0.000 C 
ATOM     23  C   UNL     1       3.912   2.579  19.431  0.00  0.00    +0.000 C 
ATOM     24  C   UNL     1       2.821   3.019  20.410  0.00  0.00    +0.000 C 
ATOM     25  C   UNL     1       1.403   2.900  19.854  0.00  0.00    +0.000 C 
ATOM     26  C   UNL     1       1.254   3.363  18.411  0.00  0.00    +0.000 C 
ATOM     27  C   UNL     1       2.367   2.853  17.508  0.00  0.00    +0.000 C 
ENDBRANCH  19  22
ENDBRANCH   4  15
TORSDOF 3
ENDMDL
MODEL 2
REMARK VINA RESULT:      -7.8      1.346      1.579
REMARK  Name = 
REMARK  5 active torsions:
REMARK  status: ('A' for Active; 'I' for Inactive)
REMARK    1  A    between atoms: C_1  and  C_2
REMARK    2  A    between atoms: C_5  and  N_6
REMARK    3  A    between atoms: N_9  and  C_10
REMARK    4  A    between atoms: C_14  and  C_16
REMARK    5  A    between atoms: C_23  and  C_24
REMARK                            x       y       z     vdW  Elec       q    Type
REMARK                         _______ _______ _______ _____ _____    ______ ____
ROOT
ATOM      1  N   UNL     1       9.120  10.392  19.043  0.00  0.00    +0.000 N 
ATOM      2  C   UNL     1       8.528   9.450  18.229  0.00  0.00    +0.000 C 
ATOM      3  O   UNL     1       8.069   9.611  17.108  0.00  0.00    +0.000 OA
ATOM      4  N   UNL     1       8.497   8.213  18.849  0.00  0.00    +0.000 N 
ATOM      5  H   UNL     1       9.306  10.081  19.981  0.00  0.00    +0.000 HD
ATOM      6  H   UNL     1       9.298   8.038  19.435  0.00  0.00    +0.000 HD
ENDROOT
BRANCH   1  11
ATOM      7  C   UNL     1      10.443  15.744  17.439  0.00  0.00    +0.000 C 
ATOM      8  C   UNL     1      10.084  14.374  17.921  0.00  0.00    +0.000 A 
ATOM      9  C   UNL     1       8.772  13.916  17.851  0.00  0.00    +0.000 A 
ATOM     10  C   UNL     1       8.454  12.615  18.251  0.00  0.00    +0.000 A 
ATOM     11  C   UNL     1       9.434  11.734  18.727  0.00  0.00    +0.000 A 
ATOM     12  C   UNL     1      10.758  12.206  18.859  0.00  0.00    +0.000 A 
ATOM     13  C   UNL     1      11.911  11.405  19.405  0.00  0.00    +0.000 C 
ATOM     14  C   UNL     1      11.063  13.520  18.434  0.00  0.00    +0.000 A 
ENDBRANCH   1  11
BRANCH   4  15
ATOM     15  C   UNL     1       7.996   7.064  18.107  0.00  0.00    +0.000 C 
ATOM     16  C   UNL     1       8.087   5.797  18.952  0.00  0.00    +0.000 C 
ATOM     17  C   UNL     1       7.092   4.864  18.287  0.00  0.00    +0.000 C 
ATOM     18  N   UNL     1       6.010   5.739  17.881  0.00  0.00    +0.000 N 
ATOM     19  C   UNL     1       4.680   5.443  17.688  0.00  0.00    +0.000 C 
ATOM     20  O   UNL     1       3.900   6.332  17.332  0.00  0.00    +0.000 OA
ATOM     21  C   UNL     1       6.502   7.112  17.718  0.00  0.00    +0.000 C 
BRANCH  19  22
ATOM     22  C   UNL     1       4.163   4.029  18.033  0.00  0.00    +0.000 C 
ATOM     23  C   UNL     1       3.969   3.854  19.553  0.00  0.00    +0.000 C 
ATOM     24  C   UNL     1       2.755   4.610  20.100  0.00  0.00    +0.000 C 
ATOM     25  C   UNL     1       1.470   4.377  19.306  0.00  0.00    +0.000 C 
ATOM     26  C   UNL     1       1.657   4.383  17.795  0.00  0.00    +0.000 C 
ATOM     27  C   UNL     1       2.869   3.583  17.345  0.00  0.00    +0.000 C 
ENDBRANCH  19  22
ENDBRANCH   4  15
TORSDOF 3
ENDMDL
MODEL 3
REMARK VINA RESULT:      -7.7      6.715      9.655
REMARK  Name = 
REMARK  5 active torsions:
REMARK  status: ('A' for Active; 'I' for Inactive)
REMARK    1  A    between atoms: C_1  and  C_2
REMARK    2  A    between atoms: C_5  and  N_6
REMARK    3  A    between atoms: N_9  and  C_10
REMARK    4  A    between atoms: C_14  and  C_16
REMARK    5  A    between atoms: C_23  and  C_24
REMARK                            x       y       z     vdW  Elec       q    Type
REMARK                         _______ _______ _______ _____ _____    ______ ____
ROOT
ATOM      1  N   UNL     1      -1.197  10.962  17.488  0.00  0.00    +0.000 N 
ATOM      2  C   UNL     1      -0.428  10.275  18.403  0.00  0.00    +0.000 C 
ATOM      3  O   UNL     1      -0.756   9.887  19.515  0.00  0.00    +0.000 OA
ATOM      4  N   UNL     1       0.846  10.054  17.909  0.00  0.00    +0.000 N 
ATOM      5  H   UNL     1      -0.693  11.305  16.689  0.00  0.00    +0.000 HD
ATOM      6  H   UNL     1       0.868   9.896  16.914  0.00  0.00    +0.000 HD
ENDROOT
BRANCH   1  11
ATOM      7  C   UNL     1      -6.834  11.937  17.977  0.00  0.00    +0.000 C 
ATOM      8  C   UNL     1      -5.357  11.750  17.829  0.00  0.00    +0.000 A 
ATOM      9  C   UNL     1      -4.494  12.033  18.882  0.00  0.00    +0.000 A 
ATOM     10  C   UNL     1      -3.121  11.802  18.755  0.00  0.00    +0.000 A 
ATOM     11  C   UNL     1      -2.572  11.278  17.577  0.00  0.00    +0.000 A 
ATOM     12  C   UNL     1      -3.429  11.042  16.480  0.00  0.00    +0.000 A 
ATOM     13  C   UNL     1      -2.989  10.536  15.132  0.00  0.00    +0.000 C 
ATOM     14  C   UNL     1      -4.817  11.268  16.634  0.00  0.00    +0.000 A 
ENDBRANCH   1  11
BRANCH   4  15
ATOM     15  C   UNL     1       1.778   9.255  18.694  0.00  0.00    +0.000 C 
ATOM     16  C   UNL     1       1.144   8.833  20.017  0.00  0.00    +0.000 C 
ATOM     17  C   UNL     1       1.981   7.640  20.438  0.00  0.00    +0.000 C 
ATOM     18  N   UNL     1       2.278   6.963  19.191  0.00  0.00    +0.000 N 
ATOM     19  C   UNL     1       2.559   5.634  18.970  0.00  0.00    +0.000 C 
ATOM     20  O   UNL     1       2.794   5.240  17.824  0.00  0.00    +0.000 OA
ATOM     21  C   UNL     1       2.204   7.908  18.071  0.00  0.00    +0.000 C 
BRANCH  19  22
ATOM     22  C   UNL     1       2.461   4.637  20.146  0.00  0.00    +0.000 C 
ATOM     23  C   UNL     1       1.030   4.080  20.296  0.00  0.00    +0.000 C 
ATOM     24  C   UNL     1       0.650   3.081  19.201  0.00  0.00    +0.000 C 
ATOM     25  C   UNL     1       1.691   1.987  18.971  0.00  0.00    +0.000 C 
ATOM     26  C   UNL     1       3.132   2.481  18.977  0.00  0.00    +0.000 C 
ATOM     27  C   UNL     1       3.422   3.444  20.117  0.00  0.00    +0.000 C 
ENDBRANCH  19  22
ENDBRANCH   4  15
TORSDOF 3
ENDMDL
MODEL 4
REMARK VINA RESULT:      -7.7      1.354      1.901
REMARK  Name = 
REMARK  5 active torsions:
REMARK  status: ('A' for Active; 'I' for Inactive)
REMARK    1  A    between atoms: C_1  and  C_2
REMARK    2  A    between atoms: C_5  and  N_6
REMARK    3  A    between atoms: N_9  and  C_10
REMARK    4  A    between atoms: C_14  and  C_16
REMARK    5  A    between atoms: C_23  and  C_24
REMARK                            x       y       z     vdW  Elec       q    Type
REMARK                         _______ _______ _______ _____ _____    ______ ____
ROOT
ATOM      1  N   UNL     1       8.335   9.906  17.586  0.00  0.00    +0.000 N 
ATOM      2  C   UNL     1       8.140   8.584  17.924  0.00  0.00    +0.000 C 
ATOM      3  O   UNL     1       8.552   7.995  18.913  0.00  0.00    +0.000 OA
ATOM      4  N   UNL     1       7.379   7.938  16.966  0.00  0.00    +0.000 N 
ATOM      5  H   UNL     1       8.025  10.154  16.662  0.00  0.00    +0.000 HD
ATOM      6  H   UNL     1       6.679   8.528  16.545  0.00  0.00    +0.000 HD
ENDROOT
BRANCH   1  11
ATOM      7  C   UNL     1      10.638  13.954  20.945  0.00  0.00    +0.000 C 
ATOM      8  C   UNL     1      10.093  12.906  20.026  0.00  0.00    +0.000 A 
ATOM      9  C   UNL     1      10.449  11.570  20.178  0.00  0.00    +0.000 A 
ATOM     10  C   UNL     1       9.893  10.590  19.352  0.00  0.00    +0.000 A 
ATOM     11  C   UNL     1       8.962  10.913  18.356  0.00  0.00    +0.000 A 
ATOM     12  C   UNL     1       8.637  12.272  18.152  0.00  0.00    +0.000 A 
ATOM     13  C   UNL     1       7.700  12.786  17.090  0.00  0.00    +0.000 C 
ATOM     14  C   UNL     1       9.199  13.247  19.008  0.00  0.00    +0.000 A 
ENDBRANCH   1  11
BRANCH   4  15
ATOM     15  C   UNL     1       6.982   6.555  17.195  0.00  0.00    +0.000 C 
ATOM     16  C   UNL     1       7.378   6.107  18.599  0.00  0.00    +0.000 C 
ATOM     17  C   UNL     1       6.472   4.916  18.852  0.00  0.00    +0.000 C 
ATOM     18  N   UNL     1       5.222   5.287  18.218  0.00  0.00    +0.000 N 
ATOM     19  C   UNL     1       3.943   4.872  18.511  0.00  0.00    +0.000 C 
ATOM     20  O   UNL     1       2.993   5.299  17.848  0.00  0.00    +0.000 OA
ATOM     21  C   UNL     1       5.464   6.274  17.159  0.00  0.00    +0.000 C 
BRANCH  19  22
ATOM     22  C   UNL     1       3.707   3.966  19.740  0.00  0.00    +0.000 C 
ATOM     23  C   UNL     1       2.482   4.428  20.554  0.00  0.00    +0.000 C 
ATOM     24  C   UNL     1       1.147   4.125  19.868  0.00  0.00    +0.000 C 
ATOM     25  C   UNL     1       1.020   2.687  19.369  0.00  0.00    +0.000 C 
ATOM     26  C   UNL     1       2.274   2.141  18.699  0.00  0.00    +0.000 C 
ATOM     27  C   UNL     1       3.545   2.467  19.468  0.00  0.00    +0.000 C 
ENDBRANCH  19  22
ENDBRANCH   4  15
TORSDOF 3
ENDMDL
MODEL 5
REMARK VINA RESULT:      -7.6      7.442     10.019
REMARK  Name = 
REMARK  5 active torsions:
REMARK  status: ('A' for Active; 'I' for Inactive)
REMARK    1  A    between atoms: C_1  and  C_2
REMARK    2  A    between atoms: C_5  and  N_6
REMARK    3  A    between atoms: N_9  and  C_10
REMARK    4  A    between atoms: C_14  and  C_16
REMARK    5  A    between atoms: C_23  and  C_24
REMARK                            x       y       z     vdW  Elec       q    Type
REMARK                         _______ _______ _______ _____ _____    ______ ____
ROOT
ATOM      1  N   UNL     1       2.582   7.147  18.730  0.00  0.00    +0.000 N 
ATOM      2  C   UNL     1       2.211   8.432  18.397  0.00  0.00    +0.000 C 
ATOM      3  O   UNL     1       2.595   9.100  17.448  0.00  0.00    +0.000 OA
ATOM      4  N   UNL     1       1.300   8.934  19.310  0.00  0.00    +0.000 N 
ATOM      5  H   UNL     1       2.252   6.833  19.627  0.00  0.00    +0.000 HD
ATOM      6  H   UNL     1       0.671   8.236  19.674  0.00  0.00    +0.000 HD
ENDROOT
BRANCH   1  11
ATOM      7  C   UNL     1       5.766   3.674  15.448  0.00  0.00    +0.000 C 
ATOM      8  C   UNL     1       4.973   4.558  16.359  0.00  0.00    +0.000 A 
ATOM      9  C   UNL     1       5.395   5.853  16.640  0.00  0.00    +0.000 A 
ATOM     10  C   UNL     1       4.621   6.692  17.447  0.00  0.00    +0.000 A 
ATOM     11  C   UNL     1       3.403   6.264  17.991  0.00  0.00    +0.000 A 
ATOM     12  C   UNL     1       2.993   4.932  17.763  0.00  0.00    +0.000 A 
ATOM     13  C   UNL     1       1.742   4.305  18.323  0.00  0.00    +0.000 C 
ATOM     14  C   UNL     1       3.782   4.105  16.932  0.00  0.00    +0.000 A 
ENDBRANCH   1  11
BRANCH   4  15
ATOM     15  C   UNL     1       0.715  10.247  19.073  0.00  0.00    +0.000 C 
ATOM     16  C   UNL     1      -0.784  10.129  18.812  0.00  0.00    +0.000 C 
ATOM     17  C   UNL     1      -1.299  11.525  19.108  0.00  0.00    +0.000 C 
ATOM     18  N   UNL     1      -0.495  11.963  20.233  0.00  0.00    +0.000 N 
ATOM     19  C   UNL     1      -0.799  12.879  21.213  0.00  0.00    +0.000 C 
ATOM     20  O   UNL     1       0.026  13.128  22.096  0.00  0.00    +0.000 OA
ATOM     21  C   UNL     1       0.781  11.238  20.255  0.00  0.00    +0.000 C 
BRANCH  19  22
ATOM     22  C   UNL     1      -2.215  13.496  21.256  0.00  0.00    +0.000 C 
ATOM     23  C   UNL     1      -3.226  12.542  21.925  0.00  0.00    +0.000 C 
ATOM     24  C   UNL     1      -3.047  12.434  23.441  0.00  0.00    +0.000 C 
ATOM     25  C   UNL     1      -2.946  13.783  24.151  0.00  0.00    +0.000 C 
ATOM     26  C   UNL     1      -2.079  14.807  23.430  0.00  0.00    +0.000 C 
ATOM     27  C   UNL     1      -2.349  14.863  21.935  0.00  0.00    +0.000 C 
ENDBRANCH  19  22
ENDBRANCH   4  15
TORSDOF 3
ENDMDL
MODEL 6
REMARK VINA RESULT:      -7.5      6.164      9.041
REMARK  Name = 
REMARK  5 active torsions:
REMARK  status: ('A' for Active; 'I' for Inactive)
REMARK    1  A    between atoms: C_1  and  C_2
REMARK    2  A    between atoms: C_5  and  N_6
REMARK    3  A    between atoms: N_9  and  C_10
REMARK    4  A    between atoms: C_14  and  C_16
REMARK    5  A    between atoms: C_23  and  C_24
REMARK                            x       y       z     vdW  Elec       q    Type
REMARK                         _______ _______ _______ _____ _____    ______ ____
ROOT
ATOM      1  N   UNL     1      -0.377  10.316  17.813  0.00  0.00    +0.000 N 
ATOM      2  C   UNL     1       0.549   9.610  18.551  0.00  0.00    +0.000 C 
ATOM      3  O   UNL     1       0.626   9.519  19.767  0.00  0.00    +0.000 OA
ATOM      4  N   UNL     1       1.454   8.970  17.722  0.00  0.00    +0.000 N 
ATOM      5  H   UNL     1      -0.179  10.370  16.829  0.00  0.00    +0.000 HD
ATOM      6  H   UNL     1       1.047   8.648  16.858  0.00  0.00    +0.000 HD
ENDROOT
BRANCH   1  11
ATOM      7  C   UNL     1      -5.046  12.872  19.968  0.00  0.00    +0.000 C 
ATOM      8  C   UNL     1      -3.821  12.261  19.365  0.00  0.00    +0.000 A 
ATOM      9  C   UNL     1      -2.560  12.527  19.888  0.00  0.00    +0.000 A 
ATOM     10  C   UNL     1      -1.425  11.910  19.354  0.00  0.00    +0.000 A 
ATOM     11  C   UNL     1      -1.517  11.006  18.288  0.00  0.00    +0.000 A 
ATOM     12  C   UNL     1      -2.783  10.773  17.708  0.00  0.00    +0.000 A 
ATOM     13  C   UNL     1      -3.040   9.877  16.525  0.00  0.00    +0.000 C 
ATOM     14  C   UNL     1      -3.920  11.395  18.273  0.00  0.00    +0.000 A 
ENDBRANCH   1  11
BRANCH   4  15
ATOM     15  C   UNL     1       2.454   8.091  18.314  0.00  0.00    +0.000 C 
ATOM     16  C   UNL     1       2.016   6.633  18.213  0.00  0.00    +0.000 C 
ATOM     17  C   UNL     1       3.318   5.869  18.366  0.00  0.00    +0.000 C 
ATOM     18  N   UNL     1       4.289   6.689  17.670  0.00  0.00    +0.000 N 
ATOM     19  C   UNL     1       5.467   6.315  17.066  0.00  0.00    +0.000 C 
ATOM     20  O   UNL     1       6.174   7.168  16.520  0.00  0.00    +0.000 OA
ATOM     21  C   UNL     1       3.837   8.084  17.628  0.00  0.00    +0.000 C 
BRANCH  19  22
ATOM     22  C   UNL     1       5.829   4.816  16.980  0.00  0.00    +0.000 C 
ATOM     23  C   UNL     1       4.852   4.051  16.063  0.00  0.00    +0.000 C 
ATOM     24  C   UNL     1       5.053   4.354  14.576  0.00  0.00    +0.000 C 
ATOM     25  C   UNL     1       6.505   4.251  14.113  0.00  0.00    +0.000 C 
ATOM     26  C   UNL     1       7.516   4.857  15.078  0.00  0.00    +0.000 C 
ATOM     27  C   UNL     1       7.253   4.477  16.526  0.00  0.00    +0.000 C 
ENDBRANCH  19  22
ENDBRANCH   4  15
TORSDOF 3
ENDMDL
MODEL 7
REMARK VINA RESULT:      -7.5      1.106      1.389
REMARK  Name = 
REMARK  5 active torsions:
REMARK  status: ('A' for Active; 'I' for Inactive)
REMARK    1  A    between atoms: C_1  and  C_2
REMARK    2  A    between atoms: C_5  and  N_6
REMARK    3  A    between atoms: N_9  and  C_10
REMARK    4  A    between atoms: C_14  and  C_16
REMARK    5  A    between atoms: C_23  and  C_24
REMARK                            x       y       z     vdW  Elec       q    Type
REMARK                         _______ _______ _______ _____ _____    ______ ____
ROOT
ATOM      1  N   UNL     1       9.201  10.060  19.088  0.00  0.00    +0.000 N 
ATOM      2  C   UNL     1       8.703   9.145  18.185  0.00  0.00    +0.000 C 
ATOM      3  O   UNL     1       8.675   9.236  16.966  0.00  0.00    +0.000 OA
ATOM      4  N   UNL     1       8.196   8.035  18.837  0.00  0.00    +0.000 N 
ATOM      5  H   UNL     1       9.002   9.851  20.051  0.00  0.00    +0.000 HD
ATOM      6  H   UNL     1       8.706   7.792  19.671  0.00  0.00    +0.000 HD
ENDROOT
BRANCH   1  11
ATOM      7  C   UNL     1      11.914  15.053  18.262  0.00  0.00    +0.000 C 
ATOM      8  C   UNL     1      11.235  13.729  18.417  0.00  0.00    +0.000 A 
ATOM      9  C   UNL     1      11.872  12.672  19.060  0.00  0.00    +0.000 A 
ATOM     10  C   UNL     1      11.211  11.455  19.250  0.00  0.00    +0.000 A 
ATOM     11  C   UNL     1       9.895  11.260  18.811  0.00  0.00    +0.000 A 
ATOM     12  C   UNL     1       9.258  12.304  18.105  0.00  0.00    +0.000 A 
ATOM     13  C   UNL     1       7.871  12.232  17.521  0.00  0.00    +0.000 C 
ATOM     14  C   UNL     1       9.938  13.532  17.936  0.00  0.00    +0.000 A 
ENDBRANCH   1  11
BRANCH   4  15
ATOM     15  C   UNL     1       7.711   6.912  18.045  0.00  0.00    +0.000 C 
ATOM     16  C   UNL     1       7.871   5.604  18.813  0.00  0.00    +0.000 C 
ATOM     17  C   UNL     1       6.889   4.675  18.124  0.00  0.00    +0.000 C 
ATOM     18  N   UNL     1       5.765   5.532  17.800  0.00  0.00    +0.000 N 
ATOM     19  C   UNL     1       4.441   5.200  17.629  0.00  0.00    +0.000 C 
ATOM     20  O   UNL     1       3.621   6.079  17.347  0.00  0.00    +0.000 OA
ATOM     21  C   UNL     1       6.206   6.928  17.701  0.00  0.00    +0.000 C 
BRANCH  19  22
ATOM     22  C   UNL     1       3.984   3.751  17.908  0.00  0.00    +0.000 C 
ATOM     23  C   UNL     1       3.920   3.461  19.421  0.00  0.00    +0.000 C 
ATOM     24  C   UNL     1       2.741   4.142  20.120  0.00  0.00    +0.000 C 
ATOM     25  C   UNL     1       1.400   3.934  19.419  0.00  0.00    +0.000 C 
ATOM     26  C   UNL     1       1.460   4.056  17.902  0.00  0.00    +0.000 C 
ATOM     27  C   UNL     1       2.646   3.323  17.296  0.00  0.00    +0.000 C 
ENDBRANCH  19  22
ENDBRANCH   4  15
TORSDOF 3
ENDMDL
MODEL 8
REMARK VINA RESULT:      -7.5      0.927      1.657
REMARK  Name = 
REMARK  5 active torsions:
REMARK  status: ('A' for Active; 'I' for Inactive)
REMARK    1  A    between atoms: C_1  and  C_2
REMARK    2  A    between atoms: C_5  and  N_6
REMARK    3  A    between atoms: N_9  and  C_10
REMARK    4  A    between atoms: C_14  and  C_16
REMARK    5  A    between atoms: C_23  and  C_24
REMARK                            x       y       z     vdW  Elec       q    Type
REMARK                         _______ _______ _______ _____ _____    ______ ____
ROOT
ATOM      1  N   UNL     1       9.347   9.616  19.549  0.00  0.00    +0.000 N 
ATOM      2  C   UNL     1       8.424   9.175  18.625  0.00  0.00    +0.000 C 
ATOM      3  O   UNL     1       7.701   9.851  17.906  0.00  0.00    +0.000 OA
ATOM      4  N   UNL     1       8.387   7.792  18.588  0.00  0.00    +0.000 N 
ATOM      5  H   UNL     1       9.737   8.896  20.131  0.00  0.00    +0.000 HD
ATOM      6  H   UNL     1       9.284   7.363  18.747  0.00  0.00    +0.000 HD
ENDROOT
BRANCH   1  11
ATOM      7  C   UNL     1      10.694  15.127  20.439  0.00  0.00    +0.000 C 
ATOM      8  C   UNL     1      10.402  13.673  20.240  0.00  0.00    +0.000 A 
ATOM      9  C   UNL     1       9.716  12.944  21.206  0.00  0.00    +0.000 A 
ATOM     10  C   UNL     1       9.399  11.601  20.989  0.00  0.00    +0.000 A 
ATOM     11  C   UNL     1       9.751  10.948  19.800  0.00  0.00    +0.000 A 
ATOM     12  C   UNL     1      10.499  11.659  18.836  0.00  0.00    +0.000 A 
ATOM     13  C   UNL     1      11.000  11.086  17.536  0.00  0.00    +0.000 C 
ATOM     14  C   UNL     1      10.797  13.022  19.069  0.00  0.00    +0.000 A 
ENDBRANCH   1  11
BRANCH   4  15
ATOM     15  C   UNL     1       7.540   7.136  17.601  0.00  0.00    +0.000 C 
ATOM     16  C   UNL     1       7.786   5.630  17.597  0.00  0.00    +0.000 C 
ATOM     17  C   UNL     1       6.530   5.074  16.953  0.00  0.00    +0.000 C 
ATOM     18  N   UNL     1       5.472   5.930  17.455  0.00  0.00    +0.000 N 
ATOM     19  C   UNL     1       4.136   5.650  17.623  0.00  0.00    +0.000 C 
ATOM     20  O   UNL     1       3.379   6.520  18.064  0.00  0.00    +0.000 OA
ATOM     21  C   UNL     1       6.018   7.235  17.844  0.00  0.00    +0.000 C 
BRANCH  19  22
ATOM     22  C   UNL     1       3.626   4.215  17.366  0.00  0.00    +0.000 C 
ATOM     23  C   UNL     1       4.248   3.209  18.356  0.00  0.00    +0.000 C 
ATOM     24  C   UNL     1       3.687   3.330  19.775  0.00  0.00    +0.000 C 
ATOM     25  C   UNL     1       2.161   3.359  19.839  0.00  0.00    +0.000 C 
ATOM     26  C   UNL     1       1.505   4.220  18.767  0.00  0.00    +0.000 C 
ATOM     27  C   UNL     1       2.108   4.009  17.388  0.00  0.00    +0.000 C 
ENDBRANCH  19  22
ENDBRANCH   4  15
TORSDOF 3
ENDMDL
MODEL 9
REMARK VINA RESULT:      -7.4      6.985      8.764
REMARK  Name = 
REMARK  5 active torsions:
REMARK  status: ('A' for Active; 'I' for Inactive)
REMARK    1  A    between atoms: C_1  and  C_2
REMARK    2  A    between atoms: C_5  and  N_6
REMARK    3  A    between atoms: N_9  and  C_10
REMARK    4  A    between atoms: C_14  and  C_16
REMARK    5  A    between atoms: C_23  and  C_24
REMARK                            x       y       z     vdW  Elec       q    Type
REMARK                         _______ _______ _______ _____ _____    ______ ____
ROOT
ATOM      1  N   UNL     1       0.074  10.647  22.027  0.00  0.00    +0.000 N 
ATOM      2  C   UNL     1       0.062   9.965  20.829  0.00  0.00    +0.000 C 
ATOM      3  O   UNL     1      -0.762  10.047  19.930  0.00  0.00    +0.000 OA
ATOM      4  N   UNL     1       1.148   9.113  20.736  0.00  0.00    +0.000 N 
ATOM      5  H   UNL     1       0.767  10.331  22.684  0.00  0.00    +0.000 HD
ATOM      6  H   UNL     1       1.979   9.473  21.178  0.00  0.00    +0.000 HD
ENDROOT
BRANCH   1  11
ATOM      7  C   UNL     1      -3.655  14.776  23.449  0.00  0.00    +0.000 C 
ATOM      8  C   UNL     1      -2.650  13.710  23.140  0.00  0.00    +0.000 A 
ATOM      9  C   UNL     1      -2.859  12.396  23.543  0.00  0.00    +0.000 A 
ATOM     10  C   UNL     1      -1.944  11.396  23.202  0.00  0.00    +0.000 A 
ATOM     11  C   UNL     1      -0.799  11.678  22.446  0.00  0.00    +0.000 A 
ATOM     12  C   UNL     1      -0.544  13.018  22.081  0.00  0.00    +0.000 A 
ATOM     13  C   UNL     1       0.666  13.492  21.320  0.00  0.00    +0.000 C 
ATOM     14  C   UNL     1      -1.490  14.012  22.423  0.00  0.00    +0.000 A 
ENDBRANCH   1  11
BRANCH   4  15
ATOM     15  C   UNL     1       1.362   8.377  19.497  0.00  0.00    +0.000 C 
ATOM     16  C   UNL     1       1.997   9.275  18.440  0.00  0.00    +0.000 C 
ATOM     17  C   UNL     1       2.613   8.286  17.468  0.00  0.00    +0.000 C 
ATOM     18  N   UNL     1       3.100   7.217  18.319  0.00  0.00    +0.000 N 
ATOM     19  C   UNL     1       4.128   6.331  18.096  0.00  0.00    +0.000 C 
ATOM     20  O   UNL     1       4.394   5.476  18.946  0.00  0.00    +0.000 OA
ATOM     21  C   UNL     1       2.349   7.191  19.579  0.00  0.00    +0.000 C 
BRANCH  19  22
ATOM     22  C   UNL     1       5.007   6.494  16.836  0.00  0.00    +0.000 C 
ATOM     23  C   UNL     1       6.405   7.040  17.190  0.00  0.00    +0.000 C 
ATOM     24  C   UNL     1       7.301   6.009  17.882  0.00  0.00    +0.000 C 
ATOM     25  C   UNL     1       7.353   4.657  17.172  0.00  0.00    +0.000 C 
ATOM     26  C   UNL     1       6.005   4.162  16.665  0.00  0.00    +0.000 C 
ATOM     27  C   UNL     1       5.201   5.248  15.967  0.00  0.00    +0.000 C 
ENDBRANCH  19  22
ENDBRANCH   4  15
TORSDOF 3
ENDMDL
