MODEL 1
REMARK VINA RESULT:      -6.6      0.000      0.000
REMARK  Name = 
REMARK  1 active torsions:
REMARK  status: ('A' for Active; 'I' for Inactive)
REMARK    1  A    between atoms: C_11  and  C_12
REMARK                            x       y       z     vdW  Elec       q    Type
REMARK                         _______ _______ _______ _____ _____    ______ ____
ROOT
ATOM      1  O   UNL     1      -6.371  13.174  16.787  0.00  0.00    +0.000 OA
ATOM      2  S   UNL     1      -5.961  12.335  17.894  0.00  0.00    +0.000 S 
ATOM      3  O   UNL     1      -6.801  11.271  18.390  0.00  0.00    +0.000 OA
ATOM      4  N   UNL     1      -5.652  13.355  19.174  0.00  0.00    +0.000 NA
ATOM      5  C   UNL     1      -4.908  12.661  20.199  0.00  0.00    +0.000 C 
ATOM      6  C   UNL     1      -4.743  13.607  21.387  0.00  0.00    +0.000 C 
ATOM      7  C   UNL     1      -3.258  13.804  21.593  0.00  0.00    +0.000 C 
ATOM      8  C   UNL     1      -2.551  12.893  20.602  0.00  0.00    +0.000 C 
ATOM      9  N   UNL     1      -3.572  12.331  19.730  0.00  0.00    +0.000 N 
ATOM     10  C   UNL     1      -3.343  11.697  18.510  0.00  0.00    +0.000 A 
ATOM     11  C   UNL     1      -2.119  11.078  18.092  0.00  0.00    +0.000 A 
ATOM     12  C   UNL     1      -2.004  10.533  16.782  0.00  0.00    +0.000 A 
ATOM     13  C   UNL     1      -3.047  10.571  15.871  0.00  0.00    +0.000 A 
ATOM     14 CL   UNL     1      -2.848   9.918  14.295  0.00  0.00    +0.000 Cl
ATOM     15  C   UNL     1      -4.250  11.124  16.245  0.00  0.00    +0.000 A 
ATOM     16  C   UNL     1      -4.381  11.651  17.541  0.00  0.00    +0.000 A 
ATOM     17  H   UNL     1      -6.547  13.701  19.515  0.00  0.00    +0.000 HD
ENDROOT
BRANCH  11  18
ATOM     18  C   UNL     1      -0.929  10.884  18.928  0.00  0.00    +0.000 A 
ATOM     19  C   UNL     1      -0.616   9.906  19.913  0.00  0.00    +0.000 A 
ATOM     20  C   UNL     1       0.637  10.207  20.391  0.00  0.00    +0.000 A 
ATOM     21  O   UNL     1       1.184  11.217  19.670  0.00  0.00    +0.000 OA
ATOM     22  C   UNL     1       0.247  11.599  18.766  0.00  0.00    +0.000 A 
ENDBRANCH  11  18
TORSDOF 1
ENDMDL
MODEL 2
REMARK VINA RESULT:      -6.2      2.411      4.143
REMARK  Name = 
REMARK  1 active torsions:
REMARK  status: ('A' for Active; 'I' for Inactive)
REMARK    1  A    between atoms: C_11  and  C_12
REMARK                            x       y       z     vdW  Elec       q    Type
REMARK                         _______ _______ _______ _____ _____    ______ ____
ROOT
ATOM      1  O   UNL     1      -7.206  11.507  18.889  0.00  0.00    +0.000 OA
ATOM      2  S   UNL     1      -6.111  12.179  18.221  0.00  0.00    +0.000 S 
ATOM      3  O   UNL     1      -6.287  13.460  17.579  0.00  0.00    +0.000 OA
ATOM      4  N   UNL     1      -5.542  11.123  17.064  0.00  0.00    +0.000 NA
ATOM      5  C   UNL     1      -4.245  11.550  16.592  0.00  0.00    +0.000 C 
ATOM      6  C   UNL     1      -3.819  10.610  15.465  0.00  0.00    +0.000 C 
ATOM      7  C   UNL     1      -2.532   9.949  15.904  0.00  0.00    +0.000 C 
ATOM      8  C   UNL     1      -2.145  10.577  17.234  0.00  0.00    +0.000 C 
ATOM      9  N   UNL     1      -3.250  11.430  17.644  0.00  0.00    +0.000 N 
ATOM     10  C   UNL     1      -3.448  11.947  18.923  0.00  0.00    +0.000 A 
ATOM     11  C   UNL     1      -2.442  12.137  19.928  0.00  0.00    +0.000 A 
ATOM     12  C   UNL     1      -2.802  12.606  21.222  0.00  0.00    +0.000 A 
ATOM     13  C   UNL     1      -4.113  12.897  21.564  0.00  0.00    +0.000 A 
ATOM     14 CL   UNL     1      -4.496  13.440  23.148  0.00  0.00    +0.000 Cl
ATOM     15  C   UNL     1      -5.103  12.763  20.619  0.00  0.00    +0.000 A 
ATOM     16  C   UNL     1      -4.757  12.317  19.333  0.00  0.00    +0.000 A 
ATOM     17  H   UNL     1      -6.231  11.085  16.316  0.00  0.00    +0.000 HD
ENDROOT
BRANCH  11  18
ATOM     18  C   UNL     1      -0.999  11.945  19.741  0.00  0.00    +0.000 A 
ATOM     19  C   UNL     1      -0.013  12.754  19.108  0.00  0.00    +0.000 A 
ATOM     20  C   UNL     1       1.182  12.083  19.216  0.00  0.00    +0.000 A 
ATOM     21  O   UNL     1       1.034  10.984  19.996  0.00  0.00    +0.000 OA
ATOM     22  C   UNL     1      -0.277  10.925  20.338  0.00  0.00    +0.000 A 
ENDBRANCH  11  18
TORSDOF 1
ENDMDL
MODEL 3
REMARK VINA RESULT:      -6.0      3.013      6.164
REMARK  Name = 
REMARK  1 active torsions:
REMARK  status: ('A' for Active; 'I' for Inactive)
REMARK    1  A    between atoms: C_11  and  C_12
REMARK                            x       y       z     vdW  Elec       q    Type
REMARK                         _______ _______ _______ _____ _____    ______ ____
ROOT
ATOM      1  O   UNL     1       0.683  12.050  19.176  0.00  0.00    +0.000 OA
ATOM      2  S   UNL     1      -0.442  11.138  19.206  0.00  0.00    +0.000 S 
ATOM      3  O   UNL     1      -0.349   9.841  19.834  0.00  0.00    +0.000 OA
ATOM      4  N   UNL     1      -0.890  10.885  17.621  0.00  0.00    +0.000 NA
ATOM      5  C   UNL     1      -2.201  10.282  17.562  0.00  0.00    +0.000 C 
ATOM      6  C   UNL     1      -2.517   9.979  16.098  0.00  0.00    +0.000 C 
ATOM      7  C   UNL     1      -3.760  10.763  15.742  0.00  0.00    +0.000 C 
ATOM      8  C   UNL     1      -4.236  11.438  17.019  0.00  0.00    +0.000 C 
ATOM      9  N   UNL     1      -3.215  11.212  18.031  0.00  0.00    +0.000 N 
ATOM     10  C   UNL     1      -3.098  11.900  19.238  0.00  0.00    +0.000 A 
ATOM     11  C   UNL     1      -4.146  12.602  19.920  0.00  0.00    +0.000 A 
ATOM     12  C   UNL     1      -3.863  13.328  21.111  0.00  0.00    +0.000 A 
ATOM     13  C   UNL     1      -2.591  13.388  21.656  0.00  0.00    +0.000 A 
ATOM     14 CL   UNL     1      -2.300  14.297  23.084  0.00  0.00    +0.000 Cl
ATOM     15  C   UNL     1      -1.565  12.699  21.052  0.00  0.00    +0.000 A 
ATOM     16  C   UNL     1      -1.835  11.965  19.886  0.00  0.00    +0.000 A 
ATOM     17  H   UNL     1      -0.177  10.300  17.189  0.00  0.00    +0.000 HD
ENDROOT
BRANCH  11  18
ATOM     18  C   UNL     1      -5.562  12.608  19.537  0.00  0.00    +0.000 A 
ATOM     19  C   UNL     1      -6.319  13.506  18.733  0.00  0.00    +0.000 A 
ATOM     20  C   UNL     1      -7.611  13.035  18.717  0.00  0.00    +0.000 A 
ATOM     21  O   UNL     1      -7.678  11.830  19.334  0.00  0.00    +0.000 OA
ATOM     22  C   UNL     1      -6.432  11.561  19.798  0.00  0.00    +0.000 A 
ENDBRANCH  11  18
TORSDOF 1
ENDMDL
MODEL 4
REMARK VINA RESULT:      -5.9      2.825      4.845
REMARK  Name = 
REMARK  1 active torsions:
REMARK  status: ('A' for Active; 'I' for Inactive)
REMARK    1  A    between atoms: C_11  and  C_12
REMARK                            x       y       z     vdW  Elec       q    Type
REMARK                         _______ _______ _______ _____ _____    ______ ____
ROOT
ATOM      1  O   UNL     1      -0.330  11.118  22.925  0.00  0.00    +0.000 OA
ATOM      2  S   UNL     1      -0.617  12.013  21.823  0.00  0.00    +0.000 S 
ATOM      3  O   UNL     1       0.109  13.248  21.642  0.00  0.00    +0.000 OA
ATOM      4  N   UNL     1      -2.232  12.405  21.938  0.00  0.00    +0.000 NA
ATOM      5  C   UNL     1      -2.693  12.998  20.704  0.00  0.00    +0.000 C 
ATOM      6  C   UNL     1      -4.145  13.430  20.900  0.00  0.00    +0.000 C 
ATOM      7  C   UNL     1      -4.973  12.670  19.888  0.00  0.00    +0.000 C 
ATOM      8  C   UNL     1      -4.000  11.877  19.029  0.00  0.00    +0.000 C 
ATOM      9  N   UNL     1      -2.682  12.020  19.629  0.00  0.00    +0.000 N 
ATOM     10  C   UNL     1      -1.570  11.225  19.351  0.00  0.00    +0.000 A 
ATOM     11  C   UNL     1      -1.353  10.454  18.162  0.00  0.00    +0.000 A 
ATOM     12  C   UNL     1      -0.202   9.626  18.046  0.00  0.00    +0.000 A 
ATOM     13  C   UNL     1       0.744   9.529  19.055  0.00  0.00    +0.000 A 
ATOM     14 CL   UNL     1       2.104   8.496  18.873  0.00  0.00    +0.000 Cl
ATOM     15  C   UNL     1       0.591  10.279  20.197  0.00  0.00    +0.000 A 
ATOM     16  C   UNL     1      -0.532  11.114  20.316  0.00  0.00    +0.000 A 
ATOM     17  H   UNL     1      -2.341  13.033  22.732  0.00  0.00    +0.000 HD
ENDROOT
BRANCH  11  18
ATOM     18  C   UNL     1      -2.202  10.470  16.965  0.00  0.00    +0.000 A 
ATOM     19  C   UNL     1      -3.119   9.512  16.445  0.00  0.00    +0.000 A 
ATOM     20  C   UNL     1      -3.634  10.043  15.286  0.00  0.00    +0.000 A 
ATOM     21  O   UNL     1      -3.211  11.321  15.127  0.00  0.00    +0.000 OA
ATOM     22  C   UNL     1      -2.374  11.585  16.161  0.00  0.00    +0.000 A 
ENDBRANCH  11  18
TORSDOF 1
ENDMDL
MODEL 5
REMARK VINA RESULT:      -5.8      2.642      4.330
REMARK  Name = 
REMARK  1 active torsions:
REMARK  status: ('A' for Active; 'I' for Inactive)
REMARK    1  A    between atoms: C_11  and  C_12
REMARK                            x       y       z     vdW  Elec       q    Type
REMARK                         _______ _______ _______ _____ _____    ______ ____
ROOT
ATOM      1  O   UNL     1      -7.026  10.990  18.509  0.00  0.00    +0.000 OA
ATOM      2  S   UNL     1      -5.892  11.769  18.055  0.00  0.00    +0.000 S 
ATOM      3  O   UNL     1      -6.054  12.901  17.174  0.00  0.00    +0.000 OA
ATOM      4  N   UNL     1      -4.856  10.704  17.301  0.00  0.00    +0.000 NA
ATOM      5  C   UNL     1      -3.554  11.308  17.131  0.00  0.00    +0.000 C 
ATOM      6  C   UNL     1      -2.679  10.331  16.346  0.00  0.00    +0.000 C 
ATOM      7  C   UNL     1      -1.499   9.989  17.227  0.00  0.00    +0.000 C 
ATOM      8  C   UNL     1      -1.622  10.843  18.480  0.00  0.00    +0.000 C 
ATOM      9  N   UNL     1      -2.912  11.514  18.418  0.00  0.00    +0.000 N 
ATOM     10  C   UNL     1      -3.555  12.142  19.484  0.00  0.00    +0.000 A 
ATOM     11  C   UNL     1      -2.933  12.645  20.673  0.00  0.00    +0.000 A 
ATOM     12  C   UNL     1      -3.728  13.197  21.718  0.00  0.00    +0.000 A 
ATOM     13  C   UNL     1      -5.109  13.273  21.635  0.00  0.00    +0.000 A 
ATOM     14 CL   UNL     1      -6.022  13.928  22.934  0.00  0.00    +0.000 Cl
ATOM     15  C   UNL     1      -5.741  12.833  20.495  0.00  0.00    +0.000 A 
ATOM     16  C   UNL     1      -4.967  12.302  19.451  0.00  0.00    +0.000 A 
ATOM     17  H   UNL     1      -5.278  10.440  16.413  0.00  0.00    +0.000 HD
ENDROOT
BRANCH  11  18
ATOM     18  C   UNL     1      -1.488  12.711  20.922  0.00  0.00    +0.000 A 
ATOM     19  C   UNL     1      -0.488  13.602  20.443  0.00  0.00    +0.000 A 
ATOM     20  C   UNL     1       0.705  13.193  20.991  0.00  0.00    +0.000 A 
ATOM     21  O   UNL     1       0.494  12.200  21.889  0.00  0.00    +0.000 OA
ATOM     22  C   UNL     1      -0.837  11.936  21.868  0.00  0.00    +0.000 A 
ENDBRANCH  11  18
TORSDOF 1
ENDMDL
MODEL 6
REMARK VINA RESULT:      -5.8      2.080      4.882
REMARK  Name = 
REMARK  1 active torsions:
REMARK  status: ('A' for Active; 'I' for Inactive)
REMARK    1  A    between atoms: C_11  and  C_12
REMARK                            x       y       z     vdW  Elec       q    Type
REMARK                         _______ _______ _______ _____ _____    ______ ____
ROOT
ATOM      1  O   UNL     1       0.197  10.383  18.854  0.00  0.00    +0.000 OA
ATOM      2  S   UNL     1      -0.496  11.650  18.964  0.00  0.00    +0.000 S 
ATOM      3  O   UNL     1       0.106  12.885  18.519  0.00  0.00    +0.000 OA
ATOM      4  N   UNL     1      -0.878  11.844  20.575  0.00  0.00    +0.000 NA
ATOM      5  C   UNL     1      -1.866  12.886  20.733  0.00  0.00    +0.000 C 
ATOM      6  C   UNL     1      -2.101  13.091  22.229  0.00  0.00    +0.000 C 
ATOM      7  C   UNL     1      -3.561  12.800  22.490  0.00  0.00    +0.000 C 
ATOM      8  C   UNL     1      -4.206  12.531  21.139  0.00  0.00    +0.000 C 
ATOM      9  N   UNL     1      -3.136  12.483  20.154  0.00  0.00    +0.000 N 
ATOM     10  C   UNL     1      -3.240  11.967  18.863  0.00  0.00    +0.000 A 
ATOM     11  C   UNL     1      -4.447  11.813  18.105  0.00  0.00    +0.000 A 
ATOM     12  C   UNL     1      -4.413  11.198  16.822  0.00  0.00    +0.000 A 
ATOM     13  C   UNL     1      -3.237  10.731  16.257  0.00  0.00    +0.000 A 
ATOM     14 CL   UNL     1      -3.255   9.976  14.714  0.00  0.00    +0.000 Cl
ATOM     15  C   UNL     1      -2.052  10.892  16.936  0.00  0.00    +0.000 A 
ATOM     16  C   UNL     1      -2.070  11.512  18.196  0.00  0.00    +0.000 A 
ATOM     17  H   UNL     1      -0.015  12.051  21.073  0.00  0.00    +0.000 HD
ENDROOT
BRANCH  11  18
ATOM     18  C   UNL     1      -5.775  12.296  18.502  0.00  0.00    +0.000 A 
ATOM     19  C   UNL     1      -6.398  13.567  18.359  0.00  0.00    +0.000 A 
ATOM     20  C   UNL     1      -7.648  13.464  18.922  0.00  0.00    +0.000 A 
ATOM     21  O   UNL     1      -7.899  12.179  19.274  0.00  0.00    +0.000 OA
ATOM     22  C   UNL     1      -6.778  11.472  18.987  0.00  0.00    +0.000 A 
ENDBRANCH  11  18
TORSDOF 1
ENDMDL
MODEL 7
REMARK VINA RESULT:      -5.8      2.924      4.445
REMARK  Name = 
REMARK  1 active torsions:
REMARK  status: ('A' for Active; 'I' for Inactive)
REMARK    1  A    between atoms: C_11  and  C_12
REMARK                            x       y       z     vdW  Elec       q    Type
REMARK                         _______ _______ _______ _____ _____    ______ ____
ROOT
ATOM      1  O   UNL     1      -2.796  11.263  15.666  0.00  0.00    +0.000 OA
ATOM      2  S   UNL     1      -3.330  10.741  16.907  0.00  0.00    +0.000 S 
ATOM      3  O   UNL     1      -3.238   9.340  17.241  0.00  0.00    +0.000 OA
ATOM      4  N   UNL     1      -4.945  11.149  16.938  0.00  0.00    +0.000 NA
ATOM      5  C   UNL     1      -5.477  10.988  18.271  0.00  0.00    +0.000 C 
ATOM      6  C   UNL     1      -6.977  11.274  18.220  0.00  0.00    +0.000 C 
ATOM      7  C   UNL     1      -7.236  12.444  19.142  0.00  0.00    +0.000 C 
ATOM      8  C   UNL     1      -5.913  12.775  19.816  0.00  0.00    +0.000 C 
ATOM      9  N   UNL     1      -4.890  11.960  19.179  0.00  0.00    +0.000 N 
ATOM     10  C   UNL     1      -3.513  12.161  19.272  0.00  0.00    +0.000 A 
ATOM     11  C   UNL     1      -2.827  12.867  20.313  0.00  0.00    +0.000 A 
ATOM     12  C   UNL     1      -1.419  13.060  20.240  0.00  0.00    +0.000 A 
ATOM     13  C   UNL     1      -0.662  12.584  19.182  0.00  0.00    +0.000 A 
ATOM     14 CL   UNL     1       1.032  12.864  19.130  0.00  0.00    +0.000 Cl
ATOM     15  C   UNL     1      -1.277  11.870  18.180  0.00  0.00    +0.000 A 
ATOM     16  C   UNL     1      -2.663  11.658  18.250  0.00  0.00    +0.000 A 
ATOM     17  H   UNL     1      -5.424  10.561  16.258  0.00  0.00    +0.000 HD
ENDROOT
BRANCH  11  18
ATOM     18  C   UNL     1      -3.439  13.390  21.540  0.00  0.00    +0.000 A 
ATOM     19  C   UNL     1      -3.842  12.746  22.744  0.00  0.00    +0.000 A 
ATOM     20  C   UNL     1      -4.368  13.719  23.560  0.00  0.00    +0.000 A 
ATOM     21  O   UNL     1      -4.189  14.943  23.007  0.00  0.00    +0.000 OA
ATOM     22  C   UNL     1      -3.597  14.742  21.803  0.00  0.00    +0.000 A 
ENDBRANCH  11  18
TORSDOF 1
ENDMDL
MODEL 8
REMARK VINA RESULT:      -5.7      3.064      4.483
REMARK  Name = 
REMARK  1 active torsions:
REMARK  status: ('A' for Active; 'I' for Inactive)
REMARK    1  A    between atoms: C_11  and  C_12
REMARK                            x       y       z     vdW  Elec       q    Type
REMARK                         _______ _______ _______ _____ _____    ______ ____
ROOT
ATOM      1  O   UNL     1      -3.963  13.047  22.975  0.00  0.00    +0.000 OA
ATOM      2  S   UNL     1      -4.531  13.323  21.672  0.00  0.00    +0.000 S 
ATOM      3  O   UNL     1      -5.043  14.628  21.328  0.00  0.00    +0.000 OA
ATOM      4  N   UNL     1      -5.775  12.236  21.457  0.00  0.00    +0.000 NA
ATOM      5  C   UNL     1      -6.168  12.193  20.067  0.00  0.00    +0.000 C 
ATOM      6  C   UNL     1      -7.374  11.263  19.945  0.00  0.00    +0.000 C 
ATOM      7  C   UNL     1      -6.972  10.138  19.017  0.00  0.00    +0.000 C 
ATOM      8  C   UNL     1      -5.576  10.462  18.510  0.00  0.00    +0.000 C 
ATOM      9  N   UNL     1      -5.108  11.624  19.251  0.00  0.00    +0.000 N 
ATOM     10  C   UNL     1      -3.788  12.066  19.325  0.00  0.00    +0.000 A 
ATOM     11  C   UNL     1      -2.744  11.783  18.383  0.00  0.00    +0.000 A 
ATOM     12  C   UNL     1      -1.418  12.240  18.627  0.00  0.00    +0.000 A 
ATOM     13  C   UNL     1      -1.081  12.963  19.759  0.00  0.00    +0.000 A 
ATOM     14 CL   UNL     1       0.540  13.470  20.015  0.00  0.00    +0.000 Cl
ATOM     15  C   UNL     1      -2.060  13.285  20.670  0.00  0.00    +0.000 A 
ATOM     16  C   UNL     1      -3.376  12.855  20.432  0.00  0.00    +0.000 A 
ATOM     17  H   UNL     1      -6.541  12.519  22.065  0.00  0.00    +0.000 HD
ENDROOT
BRANCH  11  18
ATOM     18  C   UNL     1      -2.913  11.089  17.101  0.00  0.00    +0.000 A 
ATOM     19  C   UNL     1      -2.479   9.809  16.657  0.00  0.00    +0.000 A 
ATOM     20  C   UNL     1      -2.906   9.672  15.357  0.00  0.00    +0.000 A 
ATOM     21  O   UNL     1      -3.697  10.717  15.011  0.00  0.00    +0.000 OA
ATOM     22  C   UNL     1      -3.726  11.553  16.079  0.00  0.00    +0.000 A 
ENDBRANCH  11  18
TORSDOF 1
ENDMDL
MODEL 9
REMARK VINA RESULT:      -5.7      3.402      5.722
REMARK  Name = 
REMARK  1 active torsions:
REMARK  status: ('A' for Active; 'I' for Inactive)
REMARK    1  A    between atoms: C_11  and  C_12
REMARK                            x       y       z     vdW  Elec       q    Type
REMARK                         _______ _______ _______ _____ _____    ______ ____
ROOT
ATOM      1  O   UNL     1      -0.249  12.780  22.947  0.00  0.00    +0.000 OA
ATOM      2  S   UNL     1      -0.683  11.524  22.369  0.00  0.00    +0.000 S 
ATOM      3  O   UNL     1      -1.232  10.466  23.183  0.00  0.00    +0.000 OA
ATOM      4  N   UNL     1       0.632  10.893  21.564  0.00  0.00    +0.000 NA
ATOM      5  C   UNL     1       0.213   9.838  20.671  0.00  0.00    +0.000 C 
ATOM      6  C   UNL     1       1.464   9.229  20.040  0.00  0.00    +0.000 C 
ATOM      7  C   UNL     1       1.344   9.422  18.545  0.00  0.00    +0.000 C 
ATOM      8  C   UNL     1      -0.020  10.045  18.290  0.00  0.00    +0.000 C 
ATOM      9  N   UNL     1      -0.593  10.372  19.587  0.00  0.00    +0.000 N 
ATOM     10  C   UNL     1      -1.677  11.221  19.808  0.00  0.00    +0.000 A 
ATOM     11  C   UNL     1      -2.694  11.565  18.858  0.00  0.00    +0.000 A 
ATOM     12  C   UNL     1      -3.703  12.508  19.200  0.00  0.00    +0.000 A 
ATOM     13  C   UNL     1      -3.750  13.124  20.440  0.00  0.00    +0.000 A 
ATOM     14 CL   UNL     1      -4.977  14.272  20.794  0.00  0.00    +0.000 Cl
ATOM     15  C   UNL     1      -2.814  12.794  21.392  0.00  0.00    +0.000 A 
ATOM     16  C   UNL     1      -1.823  11.852  21.073  0.00  0.00    +0.000 A 
ATOM     17  H   UNL     1       1.295  10.566  22.265  0.00  0.00    +0.000 HD
ENDROOT
BRANCH  11  18
ATOM     18  C   UNL     1      -2.850  10.978  17.522  0.00  0.00    +0.000 A 
ATOM     19  C   UNL     1      -2.491  11.460  16.231  0.00  0.00    +0.000 A 
ATOM     20  C   UNL     1      -2.882  10.502  15.326  0.00  0.00    +0.000 A 
ATOM     21  O   UNL     1      -3.326   9.398  15.973  0.00  0.00    +0.000 OA
ATOM     22  C   UNL     1      -3.273   9.678  17.300  0.00  0.00    +0.000 A 
ENDBRANCH  11  18
TORSDOF 1
ENDMDL
