MODEL 1
REMARK VINA RESULT:      -7.4      0.000      0.000
REMARK  Name = 
REMARK  5 active torsions:
REMARK  status: ('A' for Active; 'I' for Inactive)
REMARK    1  A    between atoms: C_1  and  N_2
REMARK    2  A    between atoms: C_6  and  N_7
REMARK    3  A    between atoms: C_8  and  C_10
REMARK    4  A    between atoms: C_13  and  C_14
REMARK    5  A    between atoms: C_17  and  C_18
REMARK                            x       y       z     vdW  Elec       q    Type
REMARK                         _______ _______ _______ _____ _____    ______ ____
ROOT
ATOM      1  C   UNL     1       2.118   7.576  19.332  0.00  0.00    +0.000 A 
ATOM      2  C   UNL     1       1.471   8.193  20.407  0.00  0.00    +0.000 A 
ATOM      3  C   UNL     1       0.938   9.472  20.259  0.00  0.00    +0.000 A 
ATOM      4  C   UNL     1       1.063  10.156  19.042  0.00  0.00    +0.000 A 
ATOM      5  C   UNL     1       1.729   9.538  17.974  0.00  0.00    +0.000 A 
ATOM      6  C   UNL     1       2.272   8.257  18.120  0.00  0.00    +0.000 A 
ENDROOT
BRANCH   4   7
ATOM      7  C   UNL     1       0.503  11.488  18.879  0.00  0.00    +0.000 A 
ATOM      8  N   UNL     1      -0.739  11.728  18.431  0.00  0.00    +0.000 NA
ATOM      9  O   UNL     1      -0.835  13.111  18.434  0.00  0.00    +0.000 OA
ATOM     10  C   UNL     1       0.367  13.590  18.869  0.00  0.00    +0.000 A 
ATOM     11  N   UNL     1       1.218  12.629  19.175  0.00  0.00    +0.000 NA
BRANCH  10  12
ATOM     12  C   UNL     1       0.499  15.067  18.897  0.00  0.00    +0.000 C 
ATOM     13  F   UNL     1       1.681  15.490  18.372  0.00  0.00    +0.000 F 
ATOM     14  F   UNL     1      -0.482  15.688  18.190  0.00  0.00    +0.000 F 
ATOM     15  F   UNL     1       0.443  15.568  20.161  0.00  0.00    +0.000 F 
ENDBRANCH  10  12
ENDBRANCH   4   7
BRANCH   1  17
ATOM     16  N   UNL     1       3.437   5.734  18.453  0.00  0.00    +0.000 N 
ATOM     17  C   UNL     1       2.603   6.176  19.469  0.00  0.00    +0.000 C 
ATOM     18  O   UNL     1       2.278   5.505  20.427  0.00  0.00    +0.000 OA
ATOM     19  H   UNL     1       3.878   6.422  17.858  0.00  0.00    +0.000 HD
BRANCH  16  25
ATOM     20  C   UNL     1       7.742   5.007  18.224  0.00  0.00    +0.000 C 
ATOM     21  N   UNL     1       6.339   5.008  17.801  0.00  0.00    +0.000 NA
ATOM     22  C   UNL     1       6.192   4.336  16.502  0.00  0.00    +0.000 C 
ATOM     23  C   UNL     1       4.730   4.315  16.045  0.00  0.00    +0.000 C 
ATOM     24  C   UNL     1       3.816   3.697  17.105  0.00  0.00    +0.000 C 
ATOM     25  C   UNL     1       4.003   4.383  18.465  0.00  0.00    +0.000 C 
ATOM     26  C   UNL     1       5.506   4.353  18.833  0.00  0.00    +0.000 C 
ENDBRANCH  16  25
ENDBRANCH   1  17
TORSDOF 4
ENDMDL
MODEL 2
REMARK VINA RESULT:      -7.4      3.111      3.911
REMARK  Name = 
REMARK  5 active torsions:
REMARK  status: ('A' for Active; 'I' for Inactive)
REMARK    1  A    between atoms: C_1  and  N_2
REMARK    2  A    between atoms: C_6  and  N_7
REMARK    3  A    between atoms: C_8  and  C_10
REMARK    4  A    between atoms: C_13  and  C_14
REMARK    5  A    between atoms: C_17  and  C_18
REMARK                            x       y       z     vdW  Elec       q    Type
REMARK                         _______ _______ _______ _____ _____    ______ ____
ROOT
ATOM      1  C   UNL     1       1.805   8.419  18.982  0.00  0.00    +0.000 A 
ATOM      2  C   UNL     1       1.136   9.566  18.544  0.00  0.00    +0.000 A 
ATOM      3  C   UNL     1       0.391  10.326  19.445  0.00  0.00    +0.000 A 
ATOM      4  C   UNL     1       0.290   9.936  20.787  0.00  0.00    +0.000 A 
ATOM      5  C   UNL     1       0.949   8.773  21.215  0.00  0.00    +0.000 A 
ATOM      6  C   UNL     1       1.691   8.004  20.313  0.00  0.00    +0.000 A 
ENDROOT
BRANCH   4   7
ATOM      7  C   UNL     1      -0.480  10.727  21.734  0.00  0.00    +0.000 A 
ATOM      8  N   UNL     1      -0.300  10.685  23.064  0.00  0.00    +0.000 NA
ATOM      9  O   UNL     1      -1.238  11.580  23.556  0.00  0.00    +0.000 OA
ATOM     10  C   UNL     1      -1.916  12.074  22.480  0.00  0.00    +0.000 A 
ATOM     11  N   UNL     1      -1.473  11.594  21.333  0.00  0.00    +0.000 NA
BRANCH  10  12
ATOM     12  C   UNL     1      -3.015  13.021  22.791  0.00  0.00    +0.000 C 
ATOM     13  F   UNL     1      -3.058  13.348  24.111  0.00  0.00    +0.000 F 
ATOM     14  F   UNL     1      -2.899  14.190  22.107  0.00  0.00    +0.000 F 
ATOM     15  F   UNL     1      -4.239  12.512  22.484  0.00  0.00    +0.000 F 
ENDBRANCH  10  12
ENDBRANCH   4   7
BRANCH   1  17
ATOM     16  N   UNL     1       2.865   6.328  18.343  0.00  0.00    +0.000 N 
ATOM     17  C   UNL     1       2.672   7.666  18.036  0.00  0.00    +0.000 C 
ATOM     18  O   UNL     1       3.147   8.220  17.065  0.00  0.00    +0.000 OA
ATOM     19  H   UNL     1       2.225   5.884  18.988  0.00  0.00    +0.000 HD
BRANCH  16  25
ATOM     20  C   UNL     1       2.818   1.973  18.726  0.00  0.00    +0.000 C 
ATOM     21  N   UNL     1       3.350   3.337  18.785  0.00  0.00    +0.000 NA
ATOM     22  C   UNL     1       4.759   3.324  19.202  0.00  0.00    +0.000 C 
ATOM     23  C   UNL     1       5.340   4.740  19.259  0.00  0.00    +0.000 C 
ATOM     24  C   UNL     1       5.151   5.481  17.935  0.00  0.00    +0.000 C 
ATOM     25  C   UNL     1       3.682   5.460  17.492  0.00  0.00    +0.000 C 
ATOM     26  C   UNL     1       3.194   3.992  17.468  0.00  0.00    +0.000 C 
ENDBRANCH  16  25
ENDBRANCH   1  17
TORSDOF 4
ENDMDL
MODEL 3
REMARK VINA RESULT:      -7.4      0.369      1.289
REMARK  Name = 
REMARK  5 active torsions:
REMARK  status: ('A' for Active; 'I' for Inactive)
REMARK    1  A    between atoms: C_1  and  N_2
REMARK    2  A    between atoms: C_6  and  N_7
REMARK    3  A    between atoms: C_8  and  C_10
REMARK    4  A    between atoms: C_13  and  C_14
REMARK    5  A    between atoms: C_17  and  C_18
REMARK                            x       y       z     vdW  Elec       q    Type
REMARK                         _______ _______ _______ _____ _____    ______ ____
ROOT
ATOM      1  C   UNL     1       2.162   7.474  19.157  0.00  0.00    +0.000 A 
ATOM      2  C   UNL     1       2.207   8.156  17.937  0.00  0.00    +0.000 A 
ATOM      3  C   UNL     1       1.681   9.443  17.837  0.00  0.00    +0.000 A 
ATOM      4  C   UNL     1       1.085  10.053  18.949  0.00  0.00    +0.000 A 
ATOM      5  C   UNL     1       1.026   9.355  20.165  0.00  0.00    +0.000 A 
ATOM      6  C   UNL     1       1.547   8.061  20.268  0.00  0.00    +0.000 A 
ENDROOT
BRANCH   4   7
ATOM      7  C   UNL     1       0.538  11.397  18.854  0.00  0.00    +0.000 A 
ATOM      8  N   UNL     1      -0.728  11.666  18.497  0.00  0.00    +0.000 NA
ATOM      9  O   UNL     1      -0.799  13.050  18.537  0.00  0.00    +0.000 OA
ATOM     10  C   UNL     1       0.437  13.500  18.899  0.00  0.00    +0.000 A 
ATOM     11  N   UNL     1       1.291  12.519  19.125  0.00  0.00    +0.000 NA
BRANCH  10  12
ATOM     12  C   UNL     1       0.596  14.973  18.951  0.00  0.00    +0.000 C 
ATOM     13  F   UNL     1      -0.417  15.626  18.320  0.00  0.00    +0.000 F 
ATOM     14  F   UNL     1       0.625  15.446  20.225  0.00  0.00    +0.000 F 
ATOM     15  F   UNL     1       1.747  15.391  18.356  0.00  0.00    +0.000 F 
ENDBRANCH  10  12
ENDBRANCH   4   7
BRANCH   1  17
ATOM     16  N   UNL     1       3.515   5.716  18.165  0.00  0.00    +0.000 N 
ATOM     17  C   UNL     1       2.808   6.140  19.280  0.00  0.00    +0.000 C 
ATOM     18  O   UNL     1       2.711   5.503  20.310  0.00  0.00    +0.000 OA
ATOM     19  H   UNL     1       3.782   6.404  17.473  0.00  0.00    +0.000 HD
BRANCH  16  25
ATOM     20  C   UNL     1       7.833   5.407  18.773  0.00  0.00    +0.000 C 
ATOM     21  N   UNL     1       6.552   5.339  18.065  0.00  0.00    +0.000 NA
ATOM     22  C   UNL     1       6.743   4.832  16.700  0.00  0.00    +0.000 C 
ATOM     23  C   UNL     1       5.414   4.741  15.945  0.00  0.00    +0.000 C 
ATOM     24  C   UNL     1       4.383   3.913  16.714  0.00  0.00    +0.000 C 
ATOM     25  C   UNL     1       4.216   4.430  18.149  0.00  0.00    +0.000 C 
ATOM     26  C   UNL     1       5.609   4.485  18.820  0.00  0.00    +0.000 C 
ENDBRANCH  16  25
ENDBRANCH   1  17
TORSDOF 4
ENDMDL
MODEL 4
REMARK VINA RESULT:      -7.4      3.193      3.933
REMARK  Name = 
REMARK  5 active torsions:
REMARK  status: ('A' for Active; 'I' for Inactive)
REMARK    1  A    between atoms: C_1  and  N_2
REMARK    2  A    between atoms: C_6  and  N_7
REMARK    3  A    between atoms: C_8  and  C_10
REMARK    4  A    between atoms: C_13  and  C_14
REMARK    5  A    between atoms: C_17  and  C_18
REMARK                            x       y       z     vdW  Elec       q    Type
REMARK                         _______ _______ _______ _____ _____    ______ ____
ROOT
ATOM      1  C   UNL     1       1.876   8.485  19.046  0.00  0.00    +0.000 A 
ATOM      2  C   UNL     1       1.707   8.020  20.354  0.00  0.00    +0.000 A 
ATOM      3  C   UNL     1       0.928   8.744  21.256  0.00  0.00    +0.000 A 
ATOM      4  C   UNL     1       0.328   9.949  20.867  0.00  0.00    +0.000 A 
ATOM      5  C   UNL     1       0.518  10.419  19.559  0.00  0.00    +0.000 A 
ATOM      6  C   UNL     1       1.304   9.699  18.652  0.00  0.00    +0.000 A 
ENDROOT
BRANCH   4   7
ATOM      7  C   UNL     1      -0.490  10.706  21.801  0.00  0.00    +0.000 A 
ATOM      8  N   UNL     1      -0.303  10.703  23.131  0.00  0.00    +0.000 NA
ATOM      9  O   UNL     1      -1.297  11.544  23.609  0.00  0.00    +0.000 OA
ATOM     10  C   UNL     1      -2.010  11.969  22.527  0.00  0.00    +0.000 A 
ATOM     11  N   UNL     1      -1.540  11.496  21.388  0.00  0.00    +0.000 NA
BRANCH  10  12
ATOM     12  C   UNL     1      -3.168  12.846  22.823  0.00  0.00    +0.000 C 
ATOM     13  F   UNL     1      -4.185  12.680  21.935  0.00  0.00    +0.000 F 
ATOM     14  F   UNL     1      -3.692  12.612  24.056  0.00  0.00    +0.000 F 
ATOM     15  F   UNL     1      -2.842  14.167  22.786  0.00  0.00    +0.000 F 
ENDBRANCH  10  12
ENDBRANCH   4   7
BRANCH   1  17
ATOM     16  N   UNL     1       2.820   6.336  18.420  0.00  0.00    +0.000 N 
ATOM     17  C   UNL     1       2.631   7.662  18.063  0.00  0.00    +0.000 C 
ATOM     18  O   UNL     1       3.024   8.153  17.025  0.00  0.00    +0.000 OA
ATOM     19  H   UNL     1       2.234   5.942  19.144  0.00  0.00    +0.000 HD
BRANCH  16  25
ATOM     20  C   UNL     1       2.569   2.001  18.928  0.00  0.00    +0.000 C 
ATOM     21  N   UNL     1       3.175   3.334  18.913  0.00  0.00    +0.000 NA
ATOM     22  C   UNL     1       4.607   3.255  19.236  0.00  0.00    +0.000 C 
ATOM     23  C   UNL     1       5.264   4.638  19.215  0.00  0.00    +0.000 C 
ATOM     24  C   UNL     1       5.026   5.356  17.886  0.00  0.00    +0.000 C 
ATOM     25  C   UNL     1       3.531   5.403  17.542  0.00  0.00    +0.000 C 
ATOM     26  C   UNL     1       2.965   3.964  17.591  0.00  0.00    +0.000 C 
ENDBRANCH  16  25
ENDBRANCH   1  17
TORSDOF 4
ENDMDL
MODEL 5
REMARK VINA RESULT:      -7.4      5.214      9.031
REMARK  Name = 
REMARK  5 active torsions:
REMARK  status: ('A' for Active; 'I' for Inactive)
REMARK    1  A    between atoms: C_1  and  N_2
REMARK    2  A    between atoms: C_6  and  N_7
REMARK    3  A    between atoms: C_8  and  C_10
REMARK    4  A    between atoms: C_13  and  C_14
REMARK    5  A    between atoms: C_17  and  C_18
REMARK                            x       y       z     vdW  Elec       q    Type
REMARK                         _______ _______ _______ _____ _____    ______ ____
ROOT
ATOM      1  C   UNL     1       1.210  10.121  19.136  0.00  0.00    +0.000 A 
ATOM      2  C   UNL     1       0.962   9.543  20.385  0.00  0.00    +0.000 A 
ATOM      3  C   UNL     1       1.359   8.231  20.638  0.00  0.00    +0.000 A 
ATOM      4  C   UNL     1       1.989   7.476  19.640  0.00  0.00    +0.000 A 
ATOM      5  C   UNL     1       2.217   8.056  18.383  0.00  0.00    +0.000 A 
ATOM      6  C   UNL     1       1.815   9.370  18.123  0.00  0.00    +0.000 A 
ENDROOT
BRANCH   4   7
ATOM      7  C   UNL     1       2.411   6.109  19.899  0.00  0.00    +0.000 A 
ATOM      8  N   UNL     1       3.566   5.586  19.456  0.00  0.00    +0.000 NA
ATOM      9  O   UNL     1       3.544   4.282  19.928  0.00  0.00    +0.000 OA
ATOM     10  C   UNL     1       2.369   4.124  20.602  0.00  0.00    +0.000 A 
ATOM     11  N   UNL     1       1.644   5.227  20.629  0.00  0.00    +0.000 NA
BRANCH  10  12
ATOM     12  C   UNL     1       2.117   2.769  21.149  0.00  0.00    +0.000 C 
ATOM     13  F   UNL     1       3.221   2.235  21.738  0.00  0.00    +0.000 F 
ATOM     14  F   UNL     1       1.138   2.765  22.091  0.00  0.00    +0.000 F 
ATOM     15  F   UNL     1       1.734   1.885  20.188  0.00  0.00    +0.000 F 
ENDBRANCH  10  12
ENDBRANCH   4   7
BRANCH   1  17
ATOM     16  N   UNL     1       1.866  12.459  19.217  0.00  0.00    +0.000 N 
ATOM     17  C   UNL     1       0.868  11.550  18.904  0.00  0.00    +0.000 C 
ATOM     18  O   UNL     1      -0.219  11.855  18.455  0.00  0.00    +0.000 OA
ATOM     19  H   UNL     1       2.814  12.121  19.312  0.00  0.00    +0.000 HD
BRANCH  16  25
ATOM     20  C   UNL     1       5.085  15.072  17.831  0.00  0.00    +0.000 C 
ATOM     21  N   UNL     1       4.093  14.509  18.749  0.00  0.00    +0.000 NA
ATOM     22  C   UNL     1       4.093  15.241  20.023  0.00  0.00    +0.000 C 
ATOM     23  C   UNL     1       3.053  14.676  20.995  0.00  0.00    +0.000 C 
ATOM     24  C   UNL     1       1.658  14.636  20.369  0.00  0.00    +0.000 C 
ATOM     25  C   UNL     1       1.676  13.898  19.024  0.00  0.00    +0.000 C 
ATOM     26  C   UNL     1       2.754  14.542  18.120  0.00  0.00    +0.000 C 
ENDBRANCH  16  25
ENDBRANCH   1  17
TORSDOF 4
ENDMDL
MODEL 6
REMARK VINA RESULT:      -7.3      4.832      9.069
REMARK  Name = 
REMARK  5 active torsions:
REMARK  status: ('A' for Active; 'I' for Inactive)
REMARK    1  A    between atoms: C_1  and  N_2
REMARK    2  A    between atoms: C_6  and  N_7
REMARK    3  A    between atoms: C_8  and  C_10
REMARK    4  A    between atoms: C_13  and  C_14
REMARK    5  A    between atoms: C_17  and  C_18
REMARK                            x       y       z     vdW  Elec       q    Type
REMARK                         _______ _______ _______ _____ _____    ______ ____
ROOT
ATOM      1  C   UNL     1       1.509   8.286  20.045  0.00  0.00    +0.000 A 
ATOM      2  C   UNL     1       1.798   7.006  20.528  0.00  0.00    +0.000 A 
ATOM      3  C   UNL     1       2.511   6.105  19.738  0.00  0.00    +0.000 A 
ATOM      4  C   UNL     1       2.923   6.467  18.448  0.00  0.00    +0.000 A 
ATOM      5  C   UNL     1       2.612   7.746  17.962  0.00  0.00    +0.000 A 
ATOM      6  C   UNL     1       1.892   8.650  18.750  0.00  0.00    +0.000 A 
ENDROOT
BRANCH   4   7
ATOM      7  C   UNL     1       3.671   5.535  17.620  0.00  0.00    +0.000 A 
ATOM      8  N   UNL     1       3.354   4.238  17.481  0.00  0.00    +0.000 NA
ATOM      9  O   UNL     1       4.326   3.748  16.620  0.00  0.00    +0.000 OA
ATOM     10  C   UNL     1       5.156   4.789  16.327  0.00  0.00    +0.000 A 
ATOM     11  N   UNL     1       4.784   5.917  16.902  0.00  0.00    +0.000 NA
BRANCH  10  12
ATOM     12  C   UNL     1       6.310   4.466  15.452  0.00  0.00    +0.000 C 
ATOM     13  F   UNL     1       6.511   5.407  14.491  0.00  0.00    +0.000 F 
ATOM     14  F   UNL     1       7.474   4.369  16.147  0.00  0.00    +0.000 F 
ATOM     15  F   UNL     1       6.149   3.283  14.799  0.00  0.00    +0.000 F 
ENDBRANCH  10  12
ENDBRANCH   4   7
BRANCH   1  17
ATOM     16  N   UNL     1       0.870  10.587  20.492  0.00  0.00    +0.000 N 
ATOM     17  C   UNL     1       0.830   9.271  20.928  0.00  0.00    +0.000 C 
ATOM     18  O   UNL     1       0.278   8.905  21.946  0.00  0.00    +0.000 OA
ATOM     19  H   UNL     1       1.093  10.767  19.522  0.00  0.00    +0.000 HD
BRANCH  16  25
ATOM     20  C   UNL     1      -3.045  12.199  19.406  0.00  0.00    +0.000 C 
ATOM     21  N   UNL     1      -1.595  12.175  19.610  0.00  0.00    +0.000 NA
ATOM     22  C   UNL     1      -1.009  13.488  19.309  0.00  0.00    +0.000 C 
ATOM     23  C   UNL     1       0.507  13.489  19.528  0.00  0.00    +0.000 C 
ATOM     24  C   UNL     1       0.874  13.018  20.936  0.00  0.00    +0.000 C 
ATOM     25  C   UNL     1       0.230  11.662  21.253  0.00  0.00    +0.000 C 
ATOM     26  C   UNL     1      -1.293  11.767  21.000  0.00  0.00    +0.000 C 
ENDBRANCH  16  25
ENDBRANCH   1  17
TORSDOF 4
ENDMDL
MODEL 7
REMARK VINA RESULT:      -7.3      0.759      1.180
REMARK  Name = 
REMARK  5 active torsions:
REMARK  status: ('A' for Active; 'I' for Inactive)
REMARK    1  A    between atoms: C_1  and  N_2
REMARK    2  A    between atoms: C_6  and  N_7
REMARK    3  A    between atoms: C_8  and  C_10
REMARK    4  A    between atoms: C_13  and  C_14
REMARK    5  A    between atoms: C_17  and  C_18
REMARK                            x       y       z     vdW  Elec       q    Type
REMARK                         _______ _______ _______ _____ _____    ______ ____
ROOT
ATOM      1  C   UNL     1       2.247   7.496  19.133  0.00  0.00    +0.000 A 
ATOM      2  C   UNL     1       1.643   8.000  20.289  0.00  0.00    +0.000 A 
ATOM      3  C   UNL     1       0.939   9.203  20.240  0.00  0.00    +0.000 A 
ATOM      4  C   UNL     1       0.851   9.924  19.041  0.00  0.00    +0.000 A 
ATOM      5  C   UNL     1       1.477   9.421  17.890  0.00  0.00    +0.000 A 
ATOM      6  C   UNL     1       2.189   8.218  17.937  0.00  0.00    +0.000 A 
ENDROOT
BRANCH   4   7
ATOM      7  C   UNL     1       0.115  11.177  18.981  0.00  0.00    +0.000 A 
ATOM      8  N   UNL     1      -1.099  11.304  18.423  0.00  0.00    +0.000 NA
ATOM      9  O   UNL     1      -1.403  12.647  18.589  0.00  0.00    +0.000 OA
ATOM     10  C   UNL     1      -0.338  13.219  19.219  0.00  0.00    +0.000 A 
ATOM     11  N   UNL     1       0.616  12.351  19.500  0.00  0.00    +0.000 NA
BRANCH  10  12
ATOM     12  C   UNL     1      -0.434  14.682  19.448  0.00  0.00    +0.000 C 
ATOM     13  F   UNL     1      -1.562  15.026  20.127  0.00  0.00    +0.000 F 
ATOM     14  F   UNL     1       0.612  15.162  20.170  0.00  0.00    +0.000 F 
ATOM     15  F   UNL     1      -0.460  15.387  18.285  0.00  0.00    +0.000 F 
ENDBRANCH  10  12
ENDBRANCH   4   7
BRANCH   1  17
ATOM     16  N   UNL     1       3.670   5.849  18.053  0.00  0.00    +0.000 N 
ATOM     17  C   UNL     1       2.916   6.167  19.171  0.00  0.00    +0.000 C 
ATOM     18  O   UNL     1       2.795   5.448  20.142  0.00  0.00    +0.000 OA
ATOM     19  H   UNL     1       3.947   6.595  17.429  0.00  0.00    +0.000 HD
BRANCH  16  25
ATOM     20  C   UNL     1       7.947   5.545  18.906  0.00  0.00    +0.000 C 
ATOM     21  N   UNL     1       6.715   5.527  18.114  0.00  0.00    +0.000 NA
ATOM     22  C   UNL     1       7.001   5.158  16.720  0.00  0.00    +0.000 C 
ATOM     23  C   UNL     1       5.724   5.121  15.876  0.00  0.00    +0.000 C 
ATOM     24  C   UNL     1       4.665   4.208  16.494  0.00  0.00    +0.000 C 
ATOM     25  C   UNL     1       4.398   4.581  17.958  0.00  0.00    +0.000 C 
ATOM     26  C   UNL     1       5.744   4.591  18.720  0.00  0.00    +0.000 C 
ENDBRANCH  16  25
ENDBRANCH   1  17
TORSDOF 4
ENDMDL
MODEL 8
REMARK VINA RESULT:      -7.2      4.852      9.094
REMARK  Name = 
REMARK  5 active torsions:
REMARK  status: ('A' for Active; 'I' for Inactive)
REMARK    1  A    between atoms: C_1  and  N_2
REMARK    2  A    between atoms: C_6  and  N_7
REMARK    3  A    between atoms: C_8  and  C_10
REMARK    4  A    between atoms: C_13  and  C_14
REMARK    5  A    between atoms: C_17  and  C_18
REMARK                            x       y       z     vdW  Elec       q    Type
REMARK                         _______ _______ _______ _____ _____    ______ ____
ROOT
ATOM      1  C   UNL     1       1.639   8.153  19.940  0.00  0.00    +0.000 A 
ATOM      2  C   UNL     1       2.087   8.554  18.678  0.00  0.00    +0.000 A 
ATOM      3  C   UNL     1       2.809   7.667  17.879  0.00  0.00    +0.000 A 
ATOM      4  C   UNL     1       3.108   6.379  18.343  0.00  0.00    +0.000 A 
ATOM      5  C   UNL     1       2.671   5.990  19.618  0.00  0.00    +0.000 A 
ATOM      6  C   UNL     1       1.953   6.879  20.425  0.00  0.00    +0.000 A 
ENDROOT
BRANCH   4   7
ATOM      7  C   UNL     1       3.855   5.447  17.513  0.00  0.00    +0.000 A 
ATOM      8  N   UNL     1       3.664   4.119  17.523  0.00  0.00    +0.000 NA
ATOM      9  O   UNL     1       4.582   3.643  16.598  0.00  0.00    +0.000 OA
ATOM     10  C   UNL     1       5.260   4.726  16.121  0.00  0.00    +0.000 A 
ATOM     11  N   UNL     1       4.836   5.863  16.639  0.00  0.00    +0.000 NA
BRANCH  10  12
ATOM     12  C   UNL     1       6.339   4.431  15.146  0.00  0.00    +0.000 C 
ATOM     13  F   UNL     1       6.474   5.410  14.212  0.00  0.00    +0.000 F 
ATOM     14  F   UNL     1       7.553   4.298  15.744  0.00  0.00    +0.000 F 
ATOM     15  F   UNL     1       6.116   3.277  14.460  0.00  0.00    +0.000 F 
ENDBRANCH  10  12
ENDBRANCH   4   7
BRANCH   1  17
ATOM     16  N   UNL     1       0.915  10.417  20.441  0.00  0.00    +0.000 N 
ATOM     17  C   UNL     1       0.791   9.070  20.747  0.00  0.00    +0.000 C 
ATOM     18  O   UNL     1       0.044   8.628  21.596  0.00  0.00    +0.000 OA
ATOM     19  H   UNL     1       1.330  10.675  19.556  0.00  0.00    +0.000 HD
BRANCH  16  25
ATOM     20  C   UNL     1      -2.878  11.926  18.875  0.00  0.00    +0.000 C 
ATOM     21  N   UNL     1      -1.470  11.947  19.281  0.00  0.00    +0.000 NA
ATOM     22  C   UNL     1      -0.906  13.294  19.114  0.00  0.00    +0.000 C 
ATOM     23  C   UNL     1       0.564  13.342  19.544  0.00  0.00    +0.000 C 
ATOM     24  C   UNL     1       0.752  12.826  20.971  0.00  0.00    +0.000 C 
ATOM     25  C   UNL     1       0.129  11.434  21.143  0.00  0.00    +0.000 C 
ATOM     26  C   UNL     1      -1.347  11.492  20.683  0.00  0.00    +0.000 C 
ENDBRANCH  16  25
ENDBRANCH   1  17
TORSDOF 4
ENDMDL
MODEL 9
REMARK VINA RESULT:      -7.2      0.777      1.305
REMARK  Name = 
REMARK  5 active torsions:
REMARK  status: ('A' for Active; 'I' for Inactive)
REMARK    1  A    between atoms: C_1  and  N_2
REMARK    2  A    between atoms: C_6  and  N_7
REMARK    3  A    between atoms: C_8  and  C_10
REMARK    4  A    between atoms: C_13  and  C_14
REMARK    5  A    between atoms: C_17  and  C_18
REMARK                            x       y       z     vdW  Elec       q    Type
REMARK                         _______ _______ _______ _____ _____    ______ ____
ROOT
ATOM      1  C   UNL     1       2.166   7.574  19.134  0.00  0.00    +0.000 A 
ATOM      2  C   UNL     1       2.093   8.329  17.959  0.00  0.00    +0.000 A 
ATOM      3  C   UNL     1       1.443   9.563  17.961  0.00  0.00    +0.000 A 
ATOM      4  C   UNL     1       0.842  10.045  19.132  0.00  0.00    +0.000 A 
ATOM      5  C   UNL     1       0.903   9.273  20.302  0.00  0.00    +0.000 A 
ATOM      6  C   UNL     1       1.548   8.032  20.302  0.00  0.00    +0.000 A 
ENDROOT
BRANCH   4   7
ATOM      7  C   UNL     1       0.168  11.333  19.143  0.00  0.00    +0.000 A 
ATOM      8  N   UNL     1      -1.147  11.491  18.922  0.00  0.00    +0.000 NA
ATOM      9  O   UNL     1      -1.341  12.860  19.023  0.00  0.00    +0.000 OA
ATOM     10  C   UNL     1      -0.121  13.414  19.281  0.00  0.00    +0.000 A 
ATOM     11  N   UNL     1       0.838  12.513  19.384  0.00  0.00    +0.000 NA
BRANCH  10  12
ATOM     12  C   UNL     1      -0.093  14.894  19.375  0.00  0.00    +0.000 C 
ATOM     13  F   UNL     1       1.128  15.367  19.744  0.00  0.00    +0.000 F 
ATOM     14  F   UNL     1      -0.397  15.493  18.193  0.00  0.00    +0.000 F 
ATOM     15  F   UNL     1      -0.979  15.372  20.291  0.00  0.00    +0.000 F 
ENDBRANCH  10  12
ENDBRANCH   4   7
BRANCH   1  17
ATOM     16  N   UNL     1       3.616   6.008  17.973  0.00  0.00    +0.000 N 
ATOM     17  C   UNL     1       2.940   6.304  19.147  0.00  0.00    +0.000 C 
ATOM     18  O   UNL     1       2.963   5.610  20.143  0.00  0.00    +0.000 OA
ATOM     19  H   UNL     1       3.776   6.752  17.308  0.00  0.00    +0.000 HD
BRANCH  16  25
ATOM     20  C   UNL     1       7.858   5.935  19.030  0.00  0.00    +0.000 C 
ATOM     21  N   UNL     1       6.669   5.883  18.175  0.00  0.00    +0.000 NA
ATOM     22  C   UNL     1       7.047   5.615  16.780  0.00  0.00    +0.000 C 
ATOM     23  C   UNL     1       5.818   5.545  15.870  0.00  0.00    +0.000 C 
ATOM     24  C   UNL     1       4.794   4.530  16.380  0.00  0.00    +0.000 C 
ATOM     25  C   UNL     1       4.432   4.798  17.847  0.00  0.00    +0.000 C 
ATOM     26  C   UNL     1       5.736   4.851  18.678  0.00  0.00    +0.000 C 
ENDBRANCH  16  25
ENDBRANCH   1  17
TORSDOF 4
ENDMDL
