MODEL 1
REMARK VINA RESULT:      -7.5      0.000      0.000
REMARK  Name = 
REMARK  14 active torsions:
REMARK  status: ('A' for Active; 'I' for Inactive)
REMARK    1  A    between atoms: C_1  and  N_2
REMARK    2  A    between atoms: N_2  and  C_3
REMARK    3  A    between atoms: N_2  and  C_29
REMARK    4  A    between atoms: C_3  and  C_4
REMARK    5  A    between atoms: C_4  and  C_5
REMARK    6  A    between atoms: C_5  and  C_6
REMARK    7  A    between atoms: C_6  and  C_7
REMARK    8  A    between atoms: C_7  and  C_8
REMARK    9  A    between atoms: C_8  and  O_9
REMARK   10  A    between atoms: O_9  and  C_10
REMARK   11  A    between atoms: C_13  and  C_14
REMARK   12  A    between atoms: C_19  and  O_20
REMARK   13  A    between atoms: C_22  and  O_23
REMARK   14  A    between atoms: C_29  and  C_30
REMARK                            x       y       z     vdW  Elec       q    Type
REMARK                         _______ _______ _______ _____ _____    ______ ____
ROOT
ATOM      1  C   UNL     1       2.327   5.577  19.642  0.00  0.00    +0.000 A 
ATOM      2  C   UNL     1       2.635   6.502  18.650  0.00  0.00    +0.000 A 
ATOM      3  C   UNL     1       2.235   7.829  18.779  0.00  0.00    +0.000 A 
ATOM      4  C   UNL     1       1.463   8.261  19.867  0.00  0.00    +0.000 A 
ATOM      5  C   UNL     1       1.232   7.339  20.903  0.00  0.00    +0.000 A 
ATOM      6  C   UNL     1       1.663   6.007  20.787  0.00  0.00    +0.000 A 
ENDROOT
BRANCH   4   7
ATOM      7  C   UNL     1       0.858   9.614  19.873  0.00  0.00    +0.000 A 
ATOM      8  C   UNL     1       0.354  10.146  18.751  0.00  0.00    +0.000 A 
ATOM      9  O   UNL     1      -0.195  11.403  18.613  0.00  0.00    +0.000 OA
ATOM     10  C   UNL     1      -0.788  11.901  19.744  0.00  0.00    +0.000 A 
ATOM     11  C   UNL     1      -1.761  12.877  19.558  0.00  0.00    +0.000 A 
ATOM     12  C   UNL     1      -2.546  13.238  20.644  0.00  0.00    +0.000 A 
ATOM     13  C   UNL     1      -2.384  12.619  21.881  0.00  0.00    +0.000 A 
ATOM     14  C   UNL     1      -1.355  11.692  22.068  0.00  0.00    +0.000 A 
ATOM     15  C   UNL     1      -0.507  11.379  21.005  0.00  0.00    +0.000 A 
ATOM     16  C   UNL     1       0.645  10.446  21.096  0.00  0.00    +0.000 A 
ATOM     17  O   UNL     1       1.370  10.392  22.078  0.00  0.00    +0.000 OA
BRANCH  12  18
ATOM     18  O   UNL     1      -3.528  14.176  20.518  0.00  0.00    +0.000 OA
ATOM     19  H   UNL     1      -3.846  14.176  19.598  0.00  0.00    +0.000 HD
ENDBRANCH  12  18
BRANCH  14  20
ATOM     20  O   UNL     1      -1.250  11.028  23.254  0.00  0.00    +0.000 OA
ATOM     21  H   UNL     1      -1.645  11.567  23.959  0.00  0.00    +0.000 HD
ENDBRANCH  14  20
ENDBRANCH   4   7
BRANCH   1  22
ATOM     22  O   UNL     1       2.690   4.294  19.343  0.00  0.00    +0.000 OA
BRANCH  22  23
ATOM     23  C   UNL     1       3.813   4.163  18.481  0.00  0.00    +0.000 C 
BRANCH  23  24
ATOM     24  C   UNL     1       5.055   3.899  19.327  0.00  0.00    +0.000 C 
BRANCH  24  25
ATOM     25  C   UNL     1       5.857   5.190  19.459  0.00  0.00    +0.000 C 
BRANCH  25  26
ATOM     26  C   UNL     1       7.326   5.009  19.092  0.00  0.00    +0.000 C 
BRANCH  26  27
ATOM     27  C   UNL     1       7.567   5.037  17.576  0.00  0.00    +0.000 C 
BRANCH  27  28
ATOM     28  C   UNL     1       7.240   6.394  16.930  0.00  0.00    +0.000 C 
BRANCH  28  30
ATOM     29  C   UNL     1       4.955   7.018  16.385  0.00  0.00    +0.000 C 
ATOM     30  N   UNL     1       6.169   6.345  15.911  0.00  0.00    +0.000 NA
BRANCH  30  31
ATOM     31  C   UNL     1       5.897   4.929  15.578  0.00  0.00    +0.000 C 
BRANCH  31  32
ATOM     32  C   UNL     1       6.252   4.534  14.159  0.00  0.00    +0.000 A 
ATOM     33  C   UNL     1       7.325   5.139  13.491  0.00  0.00    +0.000 A 
ATOM     34  C   UNL     1       7.647   4.765  12.185  0.00  0.00    +0.000 A 
ATOM     35  C   UNL     1       6.900   3.784  11.533  0.00  0.00    +0.000 A 
ATOM     36  C   UNL     1       5.833   3.174  12.188  0.00  0.00    +0.000 A 
ATOM     37  C   UNL     1       5.511   3.545  13.494  0.00  0.00    +0.000 A 
ENDBRANCH  31  32
ENDBRANCH  30  31
ENDBRANCH  28  30
ENDBRANCH  27  28
ENDBRANCH  26  27
ENDBRANCH  25  26
ENDBRANCH  24  25
ENDBRANCH  23  24
ENDBRANCH  22  23
ENDBRANCH   1  22
TORSDOF 13
ENDMDL
MODEL 2
REMARK VINA RESULT:      -7.3      1.394      2.127
REMARK  Name = 
REMARK  14 active torsions:
REMARK  status: ('A' for Active; 'I' for Inactive)
REMARK    1  A    between atoms: C_1  and  N_2
REMARK    2  A    between atoms: N_2  and  C_3
REMARK    3  A    between atoms: N_2  and  C_29
REMARK    4  A    between atoms: C_3  and  C_4
REMARK    5  A    between atoms: C_4  and  C_5
REMARK    6  A    between atoms: C_5  and  C_6
REMARK    7  A    between atoms: C_6  and  C_7
REMARK    8  A    between atoms: C_7  and  C_8
REMARK    9  A    between atoms: C_8  and  O_9
REMARK   10  A    between atoms: O_9  and  C_10
REMARK   11  A    between atoms: C_13  and  C_14
REMARK   12  A    between atoms: C_19  and  O_20
REMARK   13  A    between atoms: C_22  and  O_23
REMARK   14  A    between atoms: C_29  and  C_30
REMARK                            x       y       z     vdW  Elec       q    Type
REMARK                         _______ _______ _______ _____ _____    ______ ____
ROOT
ATOM      1  C   UNL     1       2.200   8.076  18.758  0.00  0.00    +0.000 A 
ATOM      2  C   UNL     1       1.878   9.016  17.785  0.00  0.00    +0.000 A 
ATOM      3  C   UNL     1       0.973  10.035  18.067  0.00  0.00    +0.000 A 
ATOM      4  C   UNL     1       0.315  10.112  19.304  0.00  0.00    +0.000 A 
ATOM      5  C   UNL     1       0.713   9.210  20.305  0.00  0.00    +0.000 A 
ATOM      6  C   UNL     1       1.650   8.200  20.030  0.00  0.00    +0.000 A 
ENDROOT
BRANCH   4   7
ATOM      7  C   UNL     1      -0.804  11.062  19.505  0.00  0.00    +0.000 A 
ATOM      8  C   UNL     1      -1.859  11.065  18.678  0.00  0.00    +0.000 A 
ATOM      9  O   UNL     1      -2.940  11.919  18.729  0.00  0.00    +0.000 OA
ATOM     10  C   UNL     1      -3.252  12.382  19.981  0.00  0.00    +0.000 A 
ATOM     11  C   UNL     1      -4.562  12.804  20.180  0.00  0.00    +0.000 A 
ATOM     12  C   UNL     1      -4.981  13.055  21.479  0.00  0.00    +0.000 A 
ATOM     13  C   UNL     1      -4.123  12.863  22.558  0.00  0.00    +0.000 A 
ATOM     14  C   UNL     1      -2.790  12.507  22.334  0.00  0.00    +0.000 A 
ATOM     15  C   UNL     1      -2.333  12.328  21.028  0.00  0.00    +0.000 A 
ATOM     16  C   UNL     1      -0.933  11.995  20.665  0.00  0.00    +0.000 A 
ATOM     17  O   UNL     1       0.029  12.472  21.251  0.00  0.00    +0.000 OA
BRANCH  12  18
ATOM     18  O   UNL     1      -6.260  13.454  21.738  0.00  0.00    +0.000 OA
ATOM     19  H   UNL     1      -6.461  14.237  21.195  0.00  0.00    +0.000 HD
ENDBRANCH  12  18
BRANCH  14  20
ATOM     20  O   UNL     1      -1.974  12.239  23.393  0.00  0.00    +0.000 OA
ATOM     21  H   UNL     1      -1.375  11.511  23.161  0.00  0.00    +0.000 HD
ENDBRANCH  14  20
ENDBRANCH   4   7
BRANCH   1  22
ATOM     22  O   UNL     1       3.021   7.075  18.319  0.00  0.00    +0.000 OA
BRANCH  22  23
ATOM     23  C   UNL     1       2.441   5.778  18.291  0.00  0.00    +0.000 C 
BRANCH  23  24
ATOM     24  C   UNL     1       3.534   4.744  18.541  0.00  0.00    +0.000 C 
BRANCH  24  25
ATOM     25  C   UNL     1       4.624   5.365  19.408  0.00  0.00    +0.000 C 
BRANCH  25  26
ATOM     26  C   UNL     1       5.913   4.550  19.405  0.00  0.00    +0.000 C 
BRANCH  26  27
ATOM     27  C   UNL     1       6.935   5.061  18.381  0.00  0.00    +0.000 C 
BRANCH  27  28
ATOM     28  C   UNL     1       6.487   6.341  17.655  0.00  0.00    +0.000 C 
BRANCH  28  30
ATOM     29  C   UNL     1       5.071   6.681  15.709  0.00  0.00    +0.000 C 
ATOM     30  N   UNL     1       6.374   6.206  16.187  0.00  0.00    +0.000 NA
BRANCH  30  31
ATOM     31  C   UNL     1       6.587   4.786  15.825  0.00  0.00    +0.000 C 
BRANCH  31  32
ATOM     32  C   UNL     1       6.707   4.525  14.338  0.00  0.00    +0.000 A 
ATOM     33  C   UNL     1       5.904   3.562  13.709  0.00  0.00    +0.000 A 
ATOM     34  C   UNL     1       6.019   3.331  12.337  0.00  0.00    +0.000 A 
ATOM     35  C   UNL     1       6.936   4.059  11.579  0.00  0.00    +0.000 A 
ATOM     36  C   UNL     1       7.736   5.020  12.192  0.00  0.00    +0.000 A 
ATOM     37  C   UNL     1       7.622   5.253  13.563  0.00  0.00    +0.000 A 
ENDBRANCH  31  32
ENDBRANCH  30  31
ENDBRANCH  28  30
ENDBRANCH  27  28
ENDBRANCH  26  27
ENDBRANCH  25  26
ENDBRANCH  24  25
ENDBRANCH  23  24
ENDBRANCH  22  23
ENDBRANCH   1  22
TORSDOF 13
ENDMDL
MODEL 3
REMARK VINA RESULT:      -7.3      2.642      4.239
REMARK  Name = 
REMARK  14 active torsions:
REMARK  status: ('A' for Active; 'I' for Inactive)
REMARK    1  A    between atoms: C_1  and  N_2
REMARK    2  A    between atoms: N_2  and  C_3
REMARK    3  A    between atoms: N_2  and  C_29
REMARK    4  A    between atoms: C_3  and  C_4
REMARK    5  A    between atoms: C_4  and  C_5
REMARK    6  A    between atoms: C_5  and  C_6
REMARK    7  A    between atoms: C_6  and  C_7
REMARK    8  A    between atoms: C_7  and  C_8
REMARK    9  A    between atoms: C_8  and  O_9
REMARK   10  A    between atoms: O_9  and  C_10
REMARK   11  A    between atoms: C_13  and  C_14
REMARK   12  A    between atoms: C_19  and  O_20
REMARK   13  A    between atoms: C_22  and  O_23
REMARK   14  A    between atoms: C_29  and  C_30
REMARK                            x       y       z     vdW  Elec       q    Type
REMARK                         _______ _______ _______ _____ _____    ______ ____
ROOT
ATOM      1  C   UNL     1       1.903   7.477  19.606  0.00  0.00    +0.000 A 
ATOM      2  C   UNL     1       2.144   8.051  18.362  0.00  0.00    +0.000 A 
ATOM      3  C   UNL     1       1.912   9.407  18.158  0.00  0.00    +0.000 A 
ATOM      4  C   UNL     1       1.375  10.220  19.167  0.00  0.00    +0.000 A 
ATOM      5  C   UNL     1       1.218   9.650  20.442  0.00  0.00    +0.000 A 
ATOM      6  C   UNL     1       1.482   8.287  20.656  0.00  0.00    +0.000 A 
ENDROOT
BRANCH   4   7
ATOM      7  C   UNL     1       0.925  11.600  18.865  0.00  0.00    +0.000 A 
ATOM      8  C   UNL     1      -0.366  11.941  18.975  0.00  0.00    +0.000 A 
ATOM      9  O   UNL     1      -0.918  13.171  18.686  0.00  0.00    +0.000 OA
ATOM     10  C   UNL     1      -0.076  14.238  18.861  0.00  0.00    +0.000 A 
ATOM     11  C   UNL     1      -0.674  15.473  19.080  0.00  0.00    +0.000 A 
ATOM     12  C   UNL     1       0.129  16.528  19.492  0.00  0.00    +0.000 A 
ATOM     13  C   UNL     1       1.492  16.348  19.709  0.00  0.00    +0.000 A 
ATOM     14  C   UNL     1       2.088  15.118  19.416  0.00  0.00    +0.000 A 
ATOM     15  C   UNL     1       1.307  14.072  18.924  0.00  0.00    +0.000 A 
ATOM     16  C   UNL     1       1.834  12.740  18.536  0.00  0.00    +0.000 A 
ATOM     17  O   UNL     1       2.908  12.598  17.968  0.00  0.00    +0.000 OA
BRANCH  12  18
ATOM     18  O   UNL     1      -0.405  17.759  19.741  0.00  0.00    +0.000 OA
ATOM     19  H   UNL     1      -0.613  18.188  18.892  0.00  0.00    +0.000 HD
ENDBRANCH  12  18
BRANCH  14  20
ATOM     20  O   UNL     1       3.406  14.919  19.705  0.00  0.00    +0.000 OA
ATOM     21  H   UNL     1       3.483  14.242  20.398  0.00  0.00    +0.000 HD
ENDBRANCH  14  20
ENDBRANCH   4   7
BRANCH   1  22
ATOM     22  O   UNL     1       2.077   6.122  19.641  0.00  0.00    +0.000 OA
BRANCH  22  23
ATOM     23  C   UNL     1       1.875   5.513  20.909  0.00  0.00    +0.000 C 
BRANCH  23  24
ATOM     24  C   UNL     1       1.266   4.130  20.701  0.00  0.00    +0.000 C 
BRANCH  24  25
ATOM     25  C   UNL     1       0.870   3.971  19.237  0.00  0.00    +0.000 C 
BRANCH  25  26
ATOM     26  C   UNL     1       0.885   2.517  18.779  0.00  0.00    +0.000 C 
BRANCH  26  27
ATOM     27  C   UNL     1       2.148   1.767  19.224  0.00  0.00    +0.000 C 
BRANCH  27  28
ATOM     28  C   UNL     1       3.358   2.009  18.306  0.00  0.00    +0.000 C 
BRANCH  28  30
ATOM     29  C   UNL     1       4.623   1.961  20.381  0.00  0.00    +0.000 C 
ATOM     30  N   UNL     1       4.575   2.472  19.007  0.00  0.00    +0.000 NA
BRANCH  30  31
ATOM     31  C   UNL     1       4.598   3.952  18.989  0.00  0.00    +0.000 C 
BRANCH  31  32
ATOM     32  C   UNL     1       4.895   4.562  17.634  0.00  0.00    +0.000 A 
ATOM     33  C   UNL     1       4.833   5.949  17.440  0.00  0.00    +0.000 A 
ATOM     34  C   UNL     1       5.112   6.502  16.189  0.00  0.00    +0.000 A 
ATOM     35  C   UNL     1       5.457   5.676  15.119  0.00  0.00    +0.000 A 
ATOM     36  C   UNL     1       5.524   4.297  15.301  0.00  0.00    +0.000 A 
ATOM     37  C   UNL     1       5.247   3.743  16.551  0.00  0.00    +0.000 A 
ENDBRANCH  31  32
ENDBRANCH  30  31
ENDBRANCH  28  30
ENDBRANCH  27  28
ENDBRANCH  26  27
ENDBRANCH  25  26
ENDBRANCH  24  25
ENDBRANCH  23  24
ENDBRANCH  22  23
ENDBRANCH   1  22
TORSDOF 13
ENDMDL
MODEL 4
REMARK VINA RESULT:      -7.3      1.836      2.736
REMARK  Name = 
REMARK  14 active torsions:
REMARK  status: ('A' for Active; 'I' for Inactive)
REMARK    1  A    between atoms: C_1  and  N_2
REMARK    2  A    between atoms: N_2  and  C_3
REMARK    3  A    between atoms: N_2  and  C_29
REMARK    4  A    between atoms: C_3  and  C_4
REMARK    5  A    between atoms: C_4  and  C_5
REMARK    6  A    between atoms: C_5  and  C_6
REMARK    7  A    between atoms: C_6  and  C_7
REMARK    8  A    between atoms: C_7  and  C_8
REMARK    9  A    between atoms: C_8  and  O_9
REMARK   10  A    between atoms: O_9  and  C_10
REMARK   11  A    between atoms: C_13  and  C_14
REMARK   12  A    between atoms: C_19  and  O_20
REMARK   13  A    between atoms: C_22  and  O_23
REMARK   14  A    between atoms: C_29  and  C_30
REMARK                            x       y       z     vdW  Elec       q    Type
REMARK                         _______ _______ _______ _____ _____    ______ ____
ROOT
ATOM      1  C   UNL     1       1.922   5.120  19.256  0.00  0.00    +0.000 A 
ATOM      2  C   UNL     1       2.206   6.070  18.280  0.00  0.00    +0.000 A 
ATOM      3  C   UNL     1       2.086   7.426  18.566  0.00  0.00    +0.000 A 
ATOM      4  C   UNL     1       1.620   7.876  19.809  0.00  0.00    +0.000 A 
ATOM      5  C   UNL     1       1.419   6.912  20.812  0.00  0.00    +0.000 A 
ATOM      6  C   UNL     1       1.571   5.544  20.533  0.00  0.00    +0.000 A 
ENDROOT
BRANCH   4   7
ATOM      7  C   UNL     1       1.284   9.305  20.017  0.00  0.00    +0.000 A 
ATOM      8  C   UNL     1       1.216   9.822  21.251  0.00  0.00    +0.000 A 
ATOM      9  O   UNL     1       0.875  11.117  21.581  0.00  0.00    +0.000 OA
ATOM     10  C   UNL     1       1.190  12.056  20.634  0.00  0.00    +0.000 A 
ATOM     11  C   UNL     1       1.346  13.363  21.082  0.00  0.00    +0.000 A 
ATOM     12  C   UNL     1       1.890  14.296  20.210  0.00  0.00    +0.000 A 
ATOM     13  C   UNL     1       2.295  13.928  18.929  0.00  0.00    +0.000 A 
ATOM     14  C   UNL     1       2.065  12.627  18.472  0.00  0.00    +0.000 A 
ATOM     15  C   UNL     1       1.446  11.700  19.311  0.00  0.00    +0.000 A 
ATOM     16  C   UNL     1       1.111  10.307  18.922  0.00  0.00    +0.000 A 
ATOM     17  O   UNL     1       0.699  10.018  17.808  0.00  0.00    +0.000 OA
BRANCH  12  18
ATOM     18  O   UNL     1       2.084  15.589  20.599  0.00  0.00    +0.000 OA
ATOM     19  H   UNL     1       1.640  16.179  19.964  0.00  0.00    +0.000 HD
ENDBRANCH  12  18
BRANCH  14  20
ATOM     20  O   UNL     1       2.536  12.247  17.251  0.00  0.00    +0.000 OA
ATOM     21  H   UNL     1       2.030  11.480  16.937  0.00  0.00    +0.000 HD
ENDBRANCH  14  20
ENDBRANCH   4   7
BRANCH   1  22
ATOM     22  O   UNL     1       1.984   3.828  18.814  0.00  0.00    +0.000 OA
BRANCH  22  23
ATOM     23  C   UNL     1       2.976   3.567  17.830  0.00  0.00    +0.000 C 
BRANCH  23  24
ATOM     24  C   UNL     1       4.017   2.620  18.419  0.00  0.00    +0.000 C 
BRANCH  24  25
ATOM     25  C   UNL     1       4.698   3.296  19.604  0.00  0.00    +0.000 C 
BRANCH  25  26
ATOM     26  C   UNL     1       5.579   4.468  19.184  0.00  0.00    +0.000 C 
BRANCH  26  27
ATOM     27  C   UNL     1       6.345   4.198  17.882  0.00  0.00    +0.000 C 
BRANCH  27  28
ATOM     28  C   UNL     1       7.550   5.132  17.678  0.00  0.00    +0.000 C 
BRANCH  28  30
ATOM     29  C   UNL     1       7.298   7.503  17.203  0.00  0.00    +0.000 C 
ATOM     30  N   UNL     1       7.360   6.155  16.627  0.00  0.00    +0.000 NA
BRANCH  30  31
ATOM     31  C   UNL     1       6.123   5.840  15.877  0.00  0.00    +0.000 C 
BRANCH  31  32
ATOM     32  C   UNL     1       6.347   5.114  14.567  0.00  0.00    +0.000 A 
ATOM     33  C   UNL     1       7.479   5.375  13.783  0.00  0.00    +0.000 A 
ATOM     34  C   UNL     1       7.678   4.698  12.578  0.00  0.00    +0.000 A 
ATOM     35  C   UNL     1       6.748   3.753  12.144  0.00  0.00    +0.000 A 
ATOM     36  C   UNL     1       5.621   3.483  12.916  0.00  0.00    +0.000 A 
ATOM     37  C   UNL     1       5.421   4.157  14.121  0.00  0.00    +0.000 A 
ENDBRANCH  31  32
ENDBRANCH  30  31
ENDBRANCH  28  30
ENDBRANCH  27  28
ENDBRANCH  26  27
ENDBRANCH  25  26
ENDBRANCH  24  25
ENDBRANCH  23  24
ENDBRANCH  22  23
ENDBRANCH   1  22
TORSDOF 13
ENDMDL
MODEL 5
REMARK VINA RESULT:      -7.3      2.074      3.528
REMARK  Name = 
REMARK  14 active torsions:
REMARK  status: ('A' for Active; 'I' for Inactive)
REMARK    1  A    between atoms: C_1  and  N_2
REMARK    2  A    between atoms: N_2  and  C_3
REMARK    3  A    between atoms: N_2  and  C_29
REMARK    4  A    between atoms: C_3  and  C_4
REMARK    5  A    between atoms: C_4  and  C_5
REMARK    6  A    between atoms: C_5  and  C_6
REMARK    7  A    between atoms: C_6  and  C_7
REMARK    8  A    between atoms: C_7  and  C_8
REMARK    9  A    between atoms: C_8  and  O_9
REMARK   10  A    between atoms: O_9  and  C_10
REMARK   11  A    between atoms: C_13  and  C_14
REMARK   12  A    between atoms: C_19  and  O_20
REMARK   13  A    between atoms: C_22  and  O_23
REMARK   14  A    between atoms: C_29  and  C_30
REMARK                            x       y       z     vdW  Elec       q    Type
REMARK                         _______ _______ _______ _____ _____    ______ ____
ROOT
ATOM      1  C   UNL     1       1.935   7.697  19.592  0.00  0.00    +0.000 A 
ATOM      2  C   UNL     1       1.784   8.571  18.520  0.00  0.00    +0.000 A 
ATOM      3  C   UNL     1       1.141   9.793  18.697  0.00  0.00    +0.000 A 
ATOM      4  C   UNL     1       0.574  10.153  19.928  0.00  0.00    +0.000 A 
ATOM      5  C   UNL     1       0.808   9.301  21.022  0.00  0.00    +0.000 A 
ATOM      6  C   UNL     1       1.484   8.083  20.850  0.00  0.00    +0.000 A 
ENDROOT
BRANCH   4   7
ATOM      7  C   UNL     1      -0.297  11.347  20.036  0.00  0.00    +0.000 A 
ATOM      8  C   UNL     1      -1.475  11.397  19.400  0.00  0.00    +0.000 A 
ATOM      9  O   UNL     1      -2.356  12.458  19.384  0.00  0.00    +0.000 OA
ATOM     10  C   UNL     1      -2.330  13.247  20.505  0.00  0.00    +0.000 A 
ATOM     11  C   UNL     1      -3.479  13.981  20.776  0.00  0.00    +0.000 A 
ATOM     12  C   UNL     1      -3.585  14.604  22.013  0.00  0.00    +0.000 A 
ATOM     13  C   UNL     1      -2.580  14.474  22.968  0.00  0.00    +0.000 A 
ATOM     14  C   UNL     1      -1.402  13.790  22.652  0.00  0.00    +0.000 A 
ATOM     15  C   UNL     1      -1.248  13.228  21.385  0.00  0.00    +0.000 A 
ATOM     16  C   UNL     1      -0.028  12.521  20.921  0.00  0.00    +0.000 A 
ATOM     17  O   UNL     1       1.098  12.893  21.217  0.00  0.00    +0.000 OA
BRANCH  12  18
ATOM     18  O   UNL     1      -4.696  15.322  22.342  0.00  0.00    +0.000 OA
ATOM     19  H   UNL     1      -5.483  14.856  22.008  0.00  0.00    +0.000 HD
ENDBRANCH  12  18
BRANCH  14  20
ATOM     20  O   UNL     1      -0.456  13.594  23.614  0.00  0.00    +0.000 OA
ATOM     21  H   UNL     1      -0.111  14.454  23.905  0.00  0.00    +0.000 HD
ENDBRANCH  14  20
ENDBRANCH   4   7
BRANCH   1  22
ATOM     22  O   UNL     1       2.493   6.495  19.258  0.00  0.00    +0.000 OA
BRANCH  22  23
ATOM     23  C   UNL     1       2.614   5.562  20.324  0.00  0.00    +0.000 C 
BRANCH  23  24
ATOM     24  C   UNL     1       1.235   4.985  20.632  0.00  0.00    +0.000 C 
BRANCH  24  25
ATOM     25  C   UNL     1       1.317   3.462  20.636  0.00  0.00    +0.000 C 
BRANCH  25  26
ATOM     26  C   UNL     1       0.581   2.832  19.459  0.00  0.00    +0.000 C 
BRANCH  26  27
ATOM     27  C   UNL     1       1.533   2.308  18.375  0.00  0.00    +0.000 C 
BRANCH  27  28
ATOM     28  C   UNL     1       2.894   1.851  18.926  0.00  0.00    +0.000 C 
BRANCH  28  30
ATOM     29  C   UNL     1       4.802   3.288  19.376  0.00  0.00    +0.000 C 
ATOM     30  N   UNL     1       4.058   2.555  18.346  0.00  0.00    +0.000 NA
BRANCH  30  31
ATOM     31  C   UNL     1       3.577   3.470  17.286  0.00  0.00    +0.000 C 
BRANCH  31  32
ATOM     32  C   UNL     1       4.658   4.312  16.640  0.00  0.00    +0.000 A 
ATOM     33  C   UNL     1       4.620   5.711  16.713  0.00  0.00    +0.000 A 
ATOM     34  C   UNL     1       5.624   6.478  16.118  0.00  0.00    +0.000 A 
ATOM     35  C   UNL     1       6.674   5.856  15.443  0.00  0.00    +0.000 A 
ATOM     36  C   UNL     1       6.723   4.466  15.366  0.00  0.00    +0.000 A 
ATOM     37  C   UNL     1       5.723   3.698  15.962  0.00  0.00    +0.000 A 
ENDBRANCH  31  32
ENDBRANCH  30  31
ENDBRANCH  28  30
ENDBRANCH  27  28
ENDBRANCH  26  27
ENDBRANCH  25  26
ENDBRANCH  24  25
ENDBRANCH  23  24
ENDBRANCH  22  23
ENDBRANCH   1  22
TORSDOF 13
ENDMDL
MODEL 6
REMARK VINA RESULT:      -7.2      1.354      2.347
REMARK  Name = 
REMARK  14 active torsions:
REMARK  status: ('A' for Active; 'I' for Inactive)
REMARK    1  A    between atoms: C_1  and  N_2
REMARK    2  A    between atoms: N_2  and  C_3
REMARK    3  A    between atoms: N_2  and  C_29
REMARK    4  A    between atoms: C_3  and  C_4
REMARK    5  A    between atoms: C_4  and  C_5
REMARK    6  A    between atoms: C_5  and  C_6
REMARK    7  A    between atoms: C_6  and  C_7
REMARK    8  A    between atoms: C_7  and  C_8
REMARK    9  A    between atoms: C_8  and  O_9
REMARK   10  A    between atoms: O_9  and  C_10
REMARK   11  A    between atoms: C_13  and  C_14
REMARK   12  A    between atoms: C_19  and  O_20
REMARK   13  A    between atoms: C_22  and  O_23
REMARK   14  A    between atoms: C_29  and  C_30
REMARK                            x       y       z     vdW  Elec       q    Type
REMARK                         _______ _______ _______ _____ _____    ______ ____
ROOT
ATOM      1  C   UNL     1       1.949   7.342  19.747  0.00  0.00    +0.000 A 
ATOM      2  C   UNL     1       1.329   7.529  20.978  0.00  0.00    +0.000 A 
ATOM      3  C   UNL     1       0.684   8.728  21.264  0.00  0.00    +0.000 A 
ATOM      4  C   UNL     1       0.689   9.799  20.359  0.00  0.00    +0.000 A 
ATOM      5  C   UNL     1       1.244   9.569  19.088  0.00  0.00    +0.000 A 
ATOM      6  C   UNL     1       1.868   8.347  18.788  0.00  0.00    +0.000 A 
ENDROOT
BRANCH   4   7
ATOM      7  C   UNL     1       0.197  11.135  20.768  0.00  0.00    +0.000 A 
ATOM      8  C   UNL     1       0.186  12.158  19.903  0.00  0.00    +0.000 A 
ATOM      9  O   UNL     1      -0.206  13.453  20.167  0.00  0.00    +0.000 OA
ATOM     10  C   UNL     1      -1.158  13.581  21.144  0.00  0.00    +0.000 A 
ATOM     11  C   UNL     1      -1.937  14.733  21.108  0.00  0.00    +0.000 A 
ATOM     12  C   UNL     1      -3.058  14.795  21.925  0.00  0.00    +0.000 A 
ATOM     13  C   UNL     1      -3.410  13.721  22.738  0.00  0.00    +0.000 A 
ATOM     14  C   UNL     1      -2.578  12.601  22.814  0.00  0.00    +0.000 A 
ATOM     15  C   UNL     1      -1.406  12.559  22.059  0.00  0.00    +0.000 A 
ATOM     16  C   UNL     1      -0.424  11.446  22.092  0.00  0.00    +0.000 A 
ATOM     17  O   UNL     1      -0.131  10.859  23.124  0.00  0.00    +0.000 OA
BRANCH  12  18
ATOM     18  O   UNL     1      -3.869  15.891  21.918  0.00  0.00    +0.000 OA
ATOM     19  H   UNL     1      -3.321  16.687  21.797  0.00  0.00    +0.000 HD
ENDBRANCH  12  18
BRANCH  14  20
ATOM     20  O   UNL     1      -2.967  11.519  23.547  0.00  0.00    +0.000 OA
ATOM     21  H   UNL     1      -2.228  11.228  24.106  0.00  0.00    +0.000 HD
ENDBRANCH  14  20
ENDBRANCH   4   7
BRANCH   1  22
ATOM     22  O   UNL     1       2.629   6.162  19.636  0.00  0.00    +0.000 OA
BRANCH  22  23
ATOM     23  C   UNL     1       2.185   5.119  20.495  0.00  0.00    +0.000 C 
BRANCH  23  24
ATOM     24  C   UNL     1       2.066   3.831  19.686  0.00  0.00    +0.000 C 
BRANCH  24  25
ATOM     25  C   UNL     1       3.044   2.799  20.237  0.00  0.00    +0.000 C 
BRANCH  25  26
ATOM     26  C   UNL     1       4.166   2.472  19.259  0.00  0.00    +0.000 C 
BRANCH  26  27
ATOM     27  C   UNL     1       4.195   3.418  18.050  0.00  0.00    +0.000 C 
BRANCH  27  28
ATOM     28  C   UNL     1       5.308   4.477  18.129  0.00  0.00    +0.000 C 
BRANCH  28  30
ATOM     29  C   UNL     1       7.679   4.601  17.612  0.00  0.00    +0.000 C 
ATOM     30  N   UNL     1       6.336   4.366  17.073  0.00  0.00    +0.000 NA
BRANCH  30  31
ATOM     31  C   UNL     1       6.017   5.334  15.999  0.00  0.00    +0.000 C 
BRANCH  31  32
ATOM     32  C   UNL     1       6.338   4.852  14.599  0.00  0.00    +0.000 A 
ATOM     33  C   UNL     1       7.458   5.339  13.909  0.00  0.00    +0.000 A 
ATOM     34  C   UNL     1       7.748   4.885  12.620  0.00  0.00    +0.000 A 
ATOM     35  C   UNL     1       6.922   3.943  12.008  0.00  0.00    +0.000 A 
ATOM     36  C   UNL     1       5.808   3.451  12.684  0.00  0.00    +0.000 A 
ATOM     37  C   UNL     1       5.518   3.901  13.973  0.00  0.00    +0.000 A 
ENDBRANCH  31  32
ENDBRANCH  30  31
ENDBRANCH  28  30
ENDBRANCH  27  28
ENDBRANCH  26  27
ENDBRANCH  25  26
ENDBRANCH  24  25
ENDBRANCH  23  24
ENDBRANCH  22  23
ENDBRANCH   1  22
TORSDOF 13
ENDMDL
MODEL 7
REMARK VINA RESULT:      -7.2      2.941      9.847
REMARK  Name = 
REMARK  14 active torsions:
REMARK  status: ('A' for Active; 'I' for Inactive)
REMARK    1  A    between atoms: C_1  and  N_2
REMARK    2  A    between atoms: N_2  and  C_3
REMARK    3  A    between atoms: N_2  and  C_29
REMARK    4  A    between atoms: C_3  and  C_4
REMARK    5  A    between atoms: C_4  and  C_5
REMARK    6  A    between atoms: C_5  and  C_6
REMARK    7  A    between atoms: C_6  and  C_7
REMARK    8  A    between atoms: C_7  and  C_8
REMARK    9  A    between atoms: C_8  and  O_9
REMARK   10  A    between atoms: O_9  and  C_10
REMARK   11  A    between atoms: C_13  and  C_14
REMARK   12  A    between atoms: C_19  and  O_20
REMARK   13  A    between atoms: C_22  and  O_23
REMARK   14  A    between atoms: C_29  and  C_30
REMARK                            x       y       z     vdW  Elec       q    Type
REMARK                         _______ _______ _______ _____ _____    ______ ____
ROOT
ATOM      1  C   UNL     1       1.243   7.245  20.883  0.00  0.00    +0.000 A 
ATOM      2  C   UNL     1       1.455   5.879  21.043  0.00  0.00    +0.000 A 
ATOM      3  C   UNL     1       2.368   5.212  20.232  0.00  0.00    +0.000 A 
ATOM      4  C   UNL     1       3.050   5.869  19.197  0.00  0.00    +0.000 A 
ATOM      5  C   UNL     1       2.892   7.263  19.102  0.00  0.00    +0.000 A 
ATOM      6  C   UNL     1       1.994   7.942  19.942  0.00  0.00    +0.000 A 
ENDROOT
BRANCH   4   7
ATOM      7  C   UNL     1       3.839   5.100  18.207  0.00  0.00    +0.000 A 
ATOM      8  C   UNL     1       3.233   4.321  17.301  0.00  0.00    +0.000 A 
ATOM      9  O   UNL     1       3.849   3.526  16.357  0.00  0.00    +0.000 OA
ATOM     10  C   UNL     1       5.069   3.980  15.928  0.00  0.00    +0.000 A 
ATOM     11  C   UNL     1       5.489   3.544  14.677  0.00  0.00    +0.000 A 
ATOM     12  C   UNL     1       6.596   4.156  14.105  0.00  0.00    +0.000 A 
ATOM     13  C   UNL     1       7.252   5.199  14.754  0.00  0.00    +0.000 A 
ATOM     14  C   UNL     1       6.858   5.577  16.041  0.00  0.00    +0.000 A 
ATOM     15  C   UNL     1       5.797   4.915  16.660  0.00  0.00    +0.000 A 
ATOM     16  C   UNL     1       5.321   5.197  18.038  0.00  0.00    +0.000 A 
ATOM     17  O   UNL     1       6.085   5.455  18.957  0.00  0.00    +0.000 OA
BRANCH  12  18
ATOM     18  O   UNL     1       7.044   3.783  12.871  0.00  0.00    +0.000 OA
ATOM     19  H   UNL     1       7.199   4.583  12.338  0.00  0.00    +0.000 HD
ENDBRANCH  12  18
BRANCH  14  20
ATOM     20  O   UNL     1       7.447   6.651  16.640  0.00  0.00    +0.000 OA
ATOM     21  H   UNL     1       7.892   6.360  17.452  0.00  0.00    +0.000 HD
ENDBRANCH  14  20
ENDBRANCH   4   7
BRANCH   1  22
ATOM     22  O   UNL     1       0.251   7.753  21.674  0.00  0.00    +0.000 OA
BRANCH  22  23
ATOM     23  C   UNL     1       0.315   9.154  21.907  0.00  0.00    +0.000 C 
BRANCH  23  24
ATOM     24  C   UNL     1      -0.503   9.484  23.152  0.00  0.00    +0.000 C 
BRANCH  24  25
ATOM     25  C   UNL     1      -1.034  10.910  23.040  0.00  0.00    +0.000 C 
BRANCH  25  26
ATOM     26  C   UNL     1      -0.213  11.769  22.086  0.00  0.00    +0.000 C 
BRANCH  26  27
ATOM     27  C   UNL     1      -0.653  13.240  22.083  0.00  0.00    +0.000 C 
BRANCH  27  28
ATOM     28  C   UNL     1       0.332  14.171  21.356  0.00  0.00    +0.000 C 
BRANCH  28  30
ATOM     29  C   UNL     1       2.721  14.069  20.919  0.00  0.00    +0.000 C 
ATOM     30  N   UNL     1       1.413  13.472  20.629  0.00  0.00    +0.000 NA
BRANCH  30  31
ATOM     31  C   UNL     1       1.115  13.521  19.179  0.00  0.00    +0.000 C 
BRANCH  31  32
ATOM     32  C   UNL     1       0.207  12.415  18.682  0.00  0.00    +0.000 A 
ATOM     33  C   UNL     1       0.629  11.079  18.691  0.00  0.00    +0.000 A 
ATOM     34  C   UNL     1      -0.218  10.066  18.235  0.00  0.00    +0.000 A 
ATOM     35  C   UNL     1      -1.494  10.378  17.766  0.00  0.00    +0.000 A 
ATOM     36  C   UNL     1      -1.924  11.703  17.755  0.00  0.00    +0.000 A 
ATOM     37  C   UNL     1      -1.081  12.716  18.212  0.00  0.00    +0.000 A 
ENDBRANCH  31  32
ENDBRANCH  30  31
ENDBRANCH  28  30
ENDBRANCH  27  28
ENDBRANCH  26  27
ENDBRANCH  25  26
ENDBRANCH  24  25
ENDBRANCH  23  24
ENDBRANCH  22  23
ENDBRANCH   1  22
TORSDOF 13
ENDMDL
MODEL 8
REMARK VINA RESULT:      -7.1      1.523      2.445
REMARK  Name = 
REMARK  14 active torsions:
REMARK  status: ('A' for Active; 'I' for Inactive)
REMARK    1  A    between atoms: C_1  and  N_2
REMARK    2  A    between atoms: N_2  and  C_3
REMARK    3  A    between atoms: N_2  and  C_29
REMARK    4  A    between atoms: C_3  and  C_4
REMARK    5  A    between atoms: C_4  and  C_5
REMARK    6  A    between atoms: C_5  and  C_6
REMARK    7  A    between atoms: C_6  and  C_7
REMARK    8  A    between atoms: C_7  and  C_8
REMARK    9  A    between atoms: C_8  and  O_9
REMARK   10  A    between atoms: O_9  and  C_10
REMARK   11  A    between atoms: C_13  and  C_14
REMARK   12  A    between atoms: C_19  and  O_20
REMARK   13  A    between atoms: C_22  and  O_23
REMARK   14  A    between atoms: C_29  and  C_30
REMARK                            x       y       z     vdW  Elec       q    Type
REMARK                         _______ _______ _______ _____ _____    ______ ____
ROOT
ATOM      1  C   UNL     1       1.876   7.421  19.708  0.00  0.00    +0.000 A 
ATOM      2  C   UNL     1       1.552   7.483  21.059  0.00  0.00    +0.000 A 
ATOM      3  C   UNL     1       1.031   8.653  21.603  0.00  0.00    +0.000 A 
ATOM      4  C   UNL     1       0.876   9.815  20.833  0.00  0.00    +0.000 A 
ATOM      5  C   UNL     1       1.125   9.715  19.454  0.00  0.00    +0.000 A 
ATOM      6  C   UNL     1       1.621   8.524  18.899  0.00  0.00    +0.000 A 
ENDROOT
BRANCH   4   7
ATOM      7  C   UNL     1       0.537  11.106  21.477  0.00  0.00    +0.000 A 
ATOM      8  C   UNL     1       1.020  12.260  20.997  0.00  0.00    +0.000 A 
ATOM      9  O   UNL     1       0.816  13.518  21.524  0.00  0.00    +0.000 OA
ATOM     10  C   UNL     1      -0.372  13.681  22.188  0.00  0.00    +0.000 A 
ATOM     11  C   UNL     1      -0.855  14.980  22.290  0.00  0.00    +0.000 A 
ATOM     12  C   UNL     1      -2.155  15.165  22.741  0.00  0.00    +0.000 A 
ATOM     13  C   UNL     1      -2.964  14.077  23.058  0.00  0.00    +0.000 A 
ATOM     14  C   UNL     1      -2.439  12.782  23.017  0.00  0.00    +0.000 A 
ATOM     15  C   UNL     1      -1.109  12.588  22.641  0.00  0.00    +0.000 A 
ATOM     16  C   UNL     1      -0.430  11.268  22.605  0.00  0.00    +0.000 A 
ATOM     17  O   UNL     1      -0.628  10.405  23.447  0.00  0.00    +0.000 OA
BRANCH  12  18
ATOM     18  O   UNL     1      -2.690  16.416  22.844  0.00  0.00    +0.000 OA
ATOM     19  H   UNL     1      -3.156  16.627  22.016  0.00  0.00    +0.000 HD
ENDBRANCH  12  18
BRANCH  14  20
ATOM     20  O   UNL     1      -3.254  11.714  23.247  0.00  0.00    +0.000 OA
ATOM     21  H   UNL     1      -2.721  10.963  23.555  0.00  0.00    +0.000 HD
ENDBRANCH  14  20
ENDBRANCH   4   7
BRANCH   1  22
ATOM     22  O   UNL     1       2.469   6.250  19.328  0.00  0.00    +0.000 OA
BRANCH  22  23
ATOM     23  C   UNL     1       2.530   6.024  17.926  0.00  0.00    +0.000 C 
BRANCH  23  24
ATOM     24  C   UNL     1       3.301   4.733  17.667  0.00  0.00    +0.000 C 
BRANCH  24  25
ATOM     25  C   UNL     1       3.614   4.060  19.000  0.00  0.00    +0.000 C 
BRANCH  25  26
ATOM     26  C   UNL     1       5.104   3.802  19.192  0.00  0.00    +0.000 C 
BRANCH  26  27
ATOM     27  C   UNL     1       5.969   5.013  18.817  0.00  0.00    +0.000 C 
BRANCH  27  28
ATOM     28  C   UNL     1       7.094   4.676  17.824  0.00  0.00    +0.000 C 
BRANCH  28  30
ATOM     29  C   UNL     1       7.355   7.010  17.195  0.00  0.00    +0.000 C 
ATOM     30  N   UNL     1       7.231   5.632  16.705  0.00  0.00    +0.000 NA
BRANCH  30  31
ATOM     31  C   UNL     1       6.057   5.489  15.814  0.00  0.00    +0.000 C 
BRANCH  31  32
ATOM     32  C   UNL     1       6.368   4.908  14.449  0.00  0.00    +0.000 A 
ATOM     33  C   UNL     1       5.522   3.956  13.863  0.00  0.00    +0.000 A 
ATOM     34  C   UNL     1       5.815   3.430  12.603  0.00  0.00    +0.000 A 
ATOM     35  C   UNL     1       6.954   3.849  11.916  0.00  0.00    +0.000 A 
ATOM     36  C   UNL     1       7.800   4.796  12.488  0.00  0.00    +0.000 A 
ATOM     37  C   UNL     1       7.509   5.325  13.746  0.00  0.00    +0.000 A 
ENDBRANCH  31  32
ENDBRANCH  30  31
ENDBRANCH  28  30
ENDBRANCH  27  28
ENDBRANCH  26  27
ENDBRANCH  25  26
ENDBRANCH  24  25
ENDBRANCH  23  24
ENDBRANCH  22  23
ENDBRANCH   1  22
TORSDOF 13
ENDMDL
MODEL 9
REMARK VINA RESULT:      -7.1      3.933     11.706
REMARK  Name = 
REMARK  14 active torsions:
REMARK  status: ('A' for Active; 'I' for Inactive)
REMARK    1  A    between atoms: C_1  and  N_2
REMARK    2  A    between atoms: N_2  and  C_3
REMARK    3  A    between atoms: N_2  and  C_29
REMARK    4  A    between atoms: C_3  and  C_4
REMARK    5  A    between atoms: C_4  and  C_5
REMARK    6  A    between atoms: C_5  and  C_6
REMARK    7  A    between atoms: C_6  and  C_7
REMARK    8  A    between atoms: C_7  and  C_8
REMARK    9  A    between atoms: C_8  and  O_9
REMARK   10  A    between atoms: O_9  and  C_10
REMARK   11  A    between atoms: C_13  and  C_14
REMARK   12  A    between atoms: C_19  and  O_20
REMARK   13  A    between atoms: C_22  and  O_23
REMARK   14  A    between atoms: C_29  and  C_30
REMARK                            x       y       z     vdW  Elec       q    Type
REMARK                         _______ _______ _______ _____ _____    ______ ____
ROOT
ATOM      1  C   UNL     1       0.391  10.308  18.993  0.00  0.00    +0.000 A 
ATOM      2  C   UNL     1       0.592   9.786  20.266  0.00  0.00    +0.000 A 
ATOM      3  C   UNL     1       1.377   8.651  20.442  0.00  0.00    +0.000 A 
ATOM      4  C   UNL     1       1.935   7.967  19.352  0.00  0.00    +0.000 A 
ATOM      5  C   UNL     1       1.796   8.552  18.082  0.00  0.00    +0.000 A 
ATOM      6  C   UNL     1       1.029   9.716  17.908  0.00  0.00    +0.000 A 
ENDROOT
BRANCH   4   7
ATOM      7  C   UNL     1       2.573   6.643  19.540  0.00  0.00    +0.000 A 
ATOM      8  C   UNL     1       2.095   5.770  20.437  0.00  0.00    +0.000 A 
ATOM      9  O   UNL     1       2.618   4.530  20.737  0.00  0.00    +0.000 OA
ATOM     10  C   UNL     1       3.273   3.914  19.702  0.00  0.00    +0.000 A 
ATOM     11  C   UNL     1       3.369   2.529  19.763  0.00  0.00    +0.000 A 
ATOM     12  C   UNL     1       3.810   1.850  18.636  0.00  0.00    +0.000 A 
ATOM     13  C   UNL     1       4.121   2.534  17.464  0.00  0.00    +0.000 A 
ATOM     14  C   UNL     1       4.087   3.932  17.443  0.00  0.00    +0.000 A 
ATOM     15  C   UNL     1       3.722   4.631  18.594  0.00  0.00    +0.000 A 
ATOM     16  C   UNL     1       3.694   6.111  18.705  0.00  0.00    +0.000 A 
ATOM     17  O   UNL     1       4.536   6.825  18.180  0.00  0.00    +0.000 OA
BRANCH  12  18
ATOM     18  O   UNL     1       3.906   0.489  18.630  0.00  0.00    +0.000 OA
ATOM     19  H   UNL     1       4.098   0.191  17.724  0.00  0.00    +0.000 HD
ENDBRANCH  12  18
BRANCH  14  20
ATOM     20  O   UNL     1       4.312   4.596  16.274  0.00  0.00    +0.000 OA
ATOM     21  H   UNL     1       4.269   5.553  16.435  0.00  0.00    +0.000 HD
ENDBRANCH  14  20
ENDBRANCH   4   7
BRANCH   1  22
ATOM     22  O   UNL     1      -0.480  11.361  18.951  0.00  0.00    +0.000 OA
BRANCH  22  23
ATOM     23  C   UNL     1      -1.838  11.041  19.227  0.00  0.00    +0.000 C 
BRANCH  23  24
ATOM     24  C   UNL     1      -2.707  11.556  18.084  0.00  0.00    +0.000 C 
BRANCH  24  25
ATOM     25  C   UNL     1      -4.107  11.851  18.612  0.00  0.00    +0.000 C 
BRANCH  25  26
ATOM     26  C   UNL     1      -5.200  11.200  17.772  0.00  0.00    +0.000 C 
BRANCH  26  27
ATOM     27  C   UNL     1      -6.419  10.780  18.606  0.00  0.00    +0.000 C 
BRANCH  27  28
ATOM     28  C   UNL     1      -6.941  11.894  19.529  0.00  0.00    +0.000 C 
BRANCH  28  30
ATOM     29  C   UNL     1      -7.894  10.926  21.544  0.00  0.00    +0.000 C 
ATOM     30  N   UNL     1      -6.746  11.637  20.972  0.00  0.00    +0.000 NA
BRANCH  30  31
ATOM     31  C   UNL     1      -6.526  12.931  21.657  0.00  0.00    +0.000 C 
BRANCH  31  32
ATOM     32  C   UNL     1      -5.092  13.420  21.639  0.00  0.00    +0.000 A 
ATOM     33  C   UNL     1      -4.063  12.655  22.206  0.00  0.00    +0.000 A 
ATOM     34  C   UNL     1      -2.744  13.112  22.180  0.00  0.00    +0.000 A 
ATOM     35  C   UNL     1      -2.440  14.337  21.588  0.00  0.00    +0.000 A 
ATOM     36  C   UNL     1      -3.453  15.105  21.019  0.00  0.00    +0.000 A 
ATOM     37  C   UNL     1      -4.771  14.649  21.042  0.00  0.00    +0.000 A 
ENDBRANCH  31  32
ENDBRANCH  30  31
ENDBRANCH  28  30
ENDBRANCH  27  28
ENDBRANCH  26  27
ENDBRANCH  25  26
ENDBRANCH  24  25
ENDBRANCH  23  24
ENDBRANCH  22  23
ENDBRANCH   1  22
TORSDOF 13
ENDMDL
