MODEL 1
REMARK VINA RESULT:      -7.6      0.000      0.000
REMARK  Name = 
REMARK  5 active torsions:
REMARK  status: ('A' for Active; 'I' for Inactive)
REMARK    1  A    between atoms: C_1  and  N_2
REMARK    2  A    between atoms: N_2  and  C_3
REMARK    3  A    between atoms: C_3  and  C_4
REMARK    4  A    between atoms: C_12  and  C_13
REMARK    5  A    between atoms: N_15  and  C_16
REMARK                            x       y       z     vdW  Elec       q    Type
REMARK                         _______ _______ _______ _____ _____    ______ ____
ROOT
ATOM      1  C   UNL     1       1.427   8.058  20.618  0.00  0.00    +0.000 C 
ATOM      2  N   UNL     1       1.967   8.072  19.270  0.00  0.00    +0.000 N 
ATOM      3  C   UNL     1       2.849   7.050  18.932  0.00  0.00    +0.000 A 
ATOM      4  C   UNL     1       3.425   6.986  17.684  0.00  0.00    +0.000 A 
ATOM      5  C   UNL     1       4.289   5.946  17.410  0.00  0.00    +0.000 A 
ATOM      6  N   UNL     1       4.593   4.965  18.280  0.00  0.00    +0.000 NA
ATOM      7  C   UNL     1       3.979   5.099  19.463  0.00  0.00    +0.000 A 
ATOM      8  N   UNL     1       3.131   6.083  19.827  0.00  0.00    +0.000 NA
ENDROOT
BRANCH   5   9
ATOM      9  C   UNL     1       4.936   5.948  16.066  0.00  0.00    +0.000 C 
ATOM     10  O   UNL     1       5.081   7.022  15.486  0.00  0.00    +0.000 OA
ATOM     11  N   UNL     1       5.307   4.709  15.581  0.00  0.00    +0.000 N 
ATOM     12  H   UNL     1       5.005   3.911  16.129  0.00  0.00    +0.000 HD
BRANCH  11  13
ATOM     13  C   UNL     1       5.977   4.479  14.362  0.00  0.00    +0.000 A 
ATOM     14  C   UNL     1       7.204   5.072  14.038  0.00  0.00    +0.000 A 
ATOM     15  C   UNL     1       7.815   4.836  12.805  0.00  0.00    +0.000 A 
ATOM     16  C   UNL     1       7.206   3.999  11.879  0.00  0.00    +0.000 A 
ATOM     17  C   UNL     1       5.993   3.386  12.195  0.00  0.00    +0.000 A 
ATOM     18  C   UNL     1       5.387   3.615  13.436  0.00  0.00    +0.000 A 
ENDBRANCH  11  13
ENDBRANCH   5   9
BRANCH   2  19
ATOM     19  C   UNL     1       1.999   9.359  18.557  0.00  0.00    +0.000 C 
BRANCH  19  20
ATOM     20  C   UNL     1       0.672  10.092  18.655  0.00  0.00    +0.000 A 
ATOM     21  C   UNL     1       0.487  11.137  19.573  0.00  0.00    +0.000 A 
ATOM     22  C   UNL     1      -0.767  11.727  19.737  0.00  0.00    +0.000 A 
ATOM     23  C   UNL     1      -1.846  11.295  18.968  0.00  0.00    +0.000 A 
ATOM     24  C   UNL     1      -1.667  10.291  18.019  0.00  0.00    +0.000 A 
ATOM     25  C   UNL     1      -0.413   9.699  17.855  0.00  0.00    +0.000 A 
ENDBRANCH  19  20
ENDBRANCH   2  19
TORSDOF 4
ENDMDL
MODEL 2
REMARK VINA RESULT:      -7.6      0.186      1.001
REMARK  Name = 
REMARK  5 active torsions:
REMARK  status: ('A' for Active; 'I' for Inactive)
REMARK    1  A    between atoms: C_1  and  N_2
REMARK    2  A    between atoms: N_2  and  C_3
REMARK    3  A    between atoms: C_3  and  C_4
REMARK    4  A    between atoms: C_12  and  C_13
REMARK    5  A    between atoms: N_15  and  C_16
REMARK                            x       y       z     vdW  Elec       q    Type
REMARK                         _______ _______ _______ _____ _____    ______ ____
ROOT
ATOM      1  C   UNL     1       1.304   8.072  20.591  0.00  0.00    +0.000 C 
ATOM      2  N   UNL     1       1.858   8.078  19.248  0.00  0.00    +0.000 N 
ATOM      3  C   UNL     1       2.775   7.078  18.938  0.00  0.00    +0.000 A 
ATOM      4  C   UNL     1       3.366   7.008  17.699  0.00  0.00    +0.000 A 
ATOM      5  C   UNL     1       4.265   5.991  17.453  0.00  0.00    +0.000 A 
ATOM      6  N   UNL     1       4.590   5.036  18.345  0.00  0.00    +0.000 NA
ATOM      7  C   UNL     1       3.959   5.173  19.519  0.00  0.00    +0.000 A 
ATOM      8  N   UNL     1       3.076   6.137  19.855  0.00  0.00    +0.000 NA
ENDROOT
BRANCH   5   9
ATOM      9  C   UNL     1       4.927   5.987  16.116  0.00  0.00    +0.000 C 
ATOM     10  O   UNL     1       5.103   7.062  15.547  0.00  0.00    +0.000 OA
ATOM     11  N   UNL     1       5.274   4.743  15.625  0.00  0.00    +0.000 N 
ATOM     12  H   UNL     1       4.947   3.949  16.164  0.00  0.00    +0.000 HD
BRANCH  11  13
ATOM     13  C   UNL     1       5.952   4.507  14.412  0.00  0.00    +0.000 A 
ATOM     14  C   UNL     1       7.180   5.101  14.092  0.00  0.00    +0.000 A 
ATOM     15  C   UNL     1       7.798   4.857  12.864  0.00  0.00    +0.000 A 
ATOM     16  C   UNL     1       7.196   4.014  11.940  0.00  0.00    +0.000 A 
ATOM     17  C   UNL     1       5.983   3.401  12.252  0.00  0.00    +0.000 A 
ATOM     18  C   UNL     1       5.369   3.637  13.488  0.00  0.00    +0.000 A 
ENDBRANCH  11  13
ENDBRANCH   5   9
BRANCH   2  19
ATOM     19  C   UNL     1       1.859   9.352  18.511  0.00  0.00    +0.000 C 
BRANCH  19  20
ATOM     20  C   UNL     1       0.502  10.032  18.558  0.00  0.00    +0.000 A 
ATOM     21  C   UNL     1      -0.563   9.583  17.762  0.00  0.00    +0.000 A 
ATOM     22  C   UNL     1      -1.769  10.283  17.725  0.00  0.00    +0.000 A 
ATOM     23  C   UNL     1      -1.934  11.428  18.502  0.00  0.00    +0.000 A 
ATOM     24  C   UNL     1      -0.903  11.860  19.333  0.00  0.00    +0.000 A 
ATOM     25  C   UNL     1       0.305  11.161  19.370  0.00  0.00    +0.000 A 
ENDBRANCH  19  20
ENDBRANCH   2  19
TORSDOF 4
ENDMDL
MODEL 3
REMARK VINA RESULT:      -7.4      2.390      8.661
REMARK  Name = 
REMARK  5 active torsions:
REMARK  status: ('A' for Active; 'I' for Inactive)
REMARK    1  A    between atoms: C_1  and  N_2
REMARK    2  A    between atoms: N_2  and  C_3
REMARK    3  A    between atoms: C_3  and  C_4
REMARK    4  A    between atoms: C_12  and  C_13
REMARK    5  A    between atoms: N_15  and  C_16
REMARK                            x       y       z     vdW  Elec       q    Type
REMARK                         _______ _______ _______ _____ _____    ______ ____
ROOT
ATOM      1  C   UNL     1       3.880   1.498  18.311  0.00  0.00    +0.000 C 
ATOM      2  N   UNL     1       3.661   2.928  18.187  0.00  0.00    +0.000 N 
ATOM      3  C   UNL     1       3.065   3.572  19.268  0.00  0.00    +0.000 A 
ATOM      4  C   UNL     1       2.802   4.922  19.240  0.00  0.00    +0.000 A 
ATOM      5  C   UNL     1       2.212   5.501  20.344  0.00  0.00    +0.000 A 
ATOM      6  N   UNL     1       1.893   4.835  21.469  0.00  0.00    +0.000 NA
ATOM      7  C   UNL     1       2.195   3.531  21.414  0.00  0.00    +0.000 A 
ATOM      8  N   UNL     1       2.760   2.875  20.380  0.00  0.00    +0.000 NA
ENDROOT
BRANCH   5   9
ATOM      9  C   UNL     1       1.890   6.955  20.248  0.00  0.00    +0.000 C 
ATOM     10  O   UNL     1       2.299   7.583  19.273  0.00  0.00    +0.000 OA
ATOM     11  N   UNL     1       1.159   7.475  21.299  0.00  0.00    +0.000 N 
ATOM     12  H   UNL     1       1.007   6.850  22.083  0.00  0.00    +0.000 HD
BRANCH  11  13
ATOM     13  C   UNL     1       0.700   8.804  21.392  0.00  0.00    +0.000 A 
ATOM     14  C   UNL     1       0.931   9.767  20.401  0.00  0.00    +0.000 A 
ATOM     15  C   UNL     1       0.481  11.080  20.555  0.00  0.00    +0.000 A 
ATOM     16  C   UNL     1      -0.209  11.447  21.703  0.00  0.00    +0.000 A 
ATOM     17  C   UNL     1      -0.462  10.495  22.690  0.00  0.00    +0.000 A 
ATOM     18  C   UNL     1      -0.020   9.176  22.530  0.00  0.00    +0.000 A 
ENDBRANCH  11  13
ENDBRANCH   5   9
BRANCH   2  19
ATOM     19  C   UNL     1       3.569   3.494  16.832  0.00  0.00    +0.000 C 
BRANCH  19  20
ATOM     20  C   UNL     1       4.898   4.064  16.366  0.00  0.00    +0.000 A 
ATOM     21  C   UNL     1       5.173   4.243  15.002  0.00  0.00    +0.000 A 
ATOM     22  C   UNL     1       6.437   4.658  14.580  0.00  0.00    +0.000 A 
ATOM     23  C   UNL     1       7.433   4.922  15.517  0.00  0.00    +0.000 A 
ATOM     24  C   UNL     1       7.161   4.794  16.877  0.00  0.00    +0.000 A 
ATOM     25  C   UNL     1       5.897   4.379  17.302  0.00  0.00    +0.000 A 
ENDBRANCH  19  20
ENDBRANCH   2  19
TORSDOF 4
ENDMDL
MODEL 4
REMARK VINA RESULT:      -7.4      4.109      5.850
REMARK  Name = 
REMARK  5 active torsions:
REMARK  status: ('A' for Active; 'I' for Inactive)
REMARK    1  A    between atoms: C_1  and  N_2
REMARK    2  A    between atoms: N_2  and  C_3
REMARK    3  A    between atoms: C_3  and  C_4
REMARK    4  A    between atoms: C_12  and  C_13
REMARK    5  A    between atoms: N_15  and  C_16
REMARK                            x       y       z     vdW  Elec       q    Type
REMARK                         _______ _______ _______ _____ _____    ______ ____
ROOT
ATOM      1  C   UNL     1       2.776   4.217  17.023  0.00  0.00    +0.000 C 
ATOM      2  N   UNL     1       3.570   5.202  17.737  0.00  0.00    +0.000 N 
ATOM      3  C   UNL     1       4.857   5.441  17.261  0.00  0.00    +0.000 A 
ATOM      4  C   UNL     1       5.691   6.344  17.878  0.00  0.00    +0.000 A 
ATOM      5  C   UNL     1       6.953   6.538  17.356  0.00  0.00    +0.000 A 
ATOM      6  N   UNL     1       7.423   5.916  16.260  0.00  0.00    +0.000 NA
ATOM      7  C   UNL     1       6.541   5.065  15.717  0.00  0.00    +0.000 A 
ATOM      8  N   UNL     1       5.294   4.801  16.159  0.00  0.00    +0.000 NA
ENDROOT
BRANCH   5   9
ATOM      9  C   UNL     1       7.845   7.482  18.091  0.00  0.00    +0.000 C 
ATOM     10  O   UNL     1       8.626   7.024  18.922  0.00  0.00    +0.000 OA
ATOM     11  N   UNL     1       7.694   8.817  17.770  0.00  0.00    +0.000 N 
ATOM     12  H   UNL     1       6.921   9.039  17.153  0.00  0.00    +0.000 HD
BRANCH  11  13
ATOM     13  C   UNL     1       8.464   9.874  18.298  0.00  0.00    +0.000 A 
ATOM     14  C   UNL     1       9.124   9.799  19.532  0.00  0.00    +0.000 A 
ATOM     15  C   UNL     1       9.851  10.884  20.026  0.00  0.00    +0.000 A 
ATOM     16  C   UNL     1       9.927  12.060  19.291  0.00  0.00    +0.000 A 
ATOM     17  C   UNL     1       9.290  12.143  18.053  0.00  0.00    +0.000 A 
ATOM     18  C   UNL     1       8.571  11.050  17.553  0.00  0.00    +0.000 A 
ENDBRANCH  11  13
ENDBRANCH   5   9
BRANCH   2  19
ATOM     19  C   UNL     1       3.226   5.476  19.141  0.00  0.00    +0.000 C 
BRANCH  19  20
ATOM     20  C   UNL     1       2.534   6.819  19.301  0.00  0.00    +0.000 A 
ATOM     21  C   UNL     1       1.960   7.199  20.523  0.00  0.00    +0.000 A 
ATOM     22  C   UNL     1       1.227   8.382  20.629  0.00  0.00    +0.000 A 
ATOM     23  C   UNL     1       1.080   9.211  19.519  0.00  0.00    +0.000 A 
ATOM     24  C   UNL     1       1.683   8.872  18.310  0.00  0.00    +0.000 A 
ATOM     25  C   UNL     1       2.416   7.688  18.203  0.00  0.00    +0.000 A 
ENDBRANCH  19  20
ENDBRANCH   2  19
TORSDOF 4
ENDMDL
MODEL 5
REMARK VINA RESULT:      -7.4      4.168      5.828
REMARK  Name = 
REMARK  5 active torsions:
REMARK  status: ('A' for Active; 'I' for Inactive)
REMARK    1  A    between atoms: C_1  and  N_2
REMARK    2  A    between atoms: N_2  and  C_3
REMARK    3  A    between atoms: C_3  and  C_4
REMARK    4  A    between atoms: C_12  and  C_13
REMARK    5  A    between atoms: N_15  and  C_16
REMARK                            x       y       z     vdW  Elec       q    Type
REMARK                         _______ _______ _______ _____ _____    ______ ____
ROOT
ATOM      1  C   UNL     1       2.911   4.339  17.314  0.00  0.00    +0.000 C 
ATOM      2  N   UNL     1       3.669   5.430  17.903  0.00  0.00    +0.000 N 
ATOM      3  C   UNL     1       4.947   5.656  17.398  0.00  0.00    +0.000 A 
ATOM      4  C   UNL     1       5.748   6.655  17.900  0.00  0.00    +0.000 A 
ATOM      5  C   UNL     1       7.002   6.830  17.355  0.00  0.00    +0.000 A 
ATOM      6  N   UNL     1       7.495   6.098  16.338  0.00  0.00    +0.000 NA
ATOM      7  C   UNL     1       6.645   5.158  15.903  0.00  0.00    +0.000 A 
ATOM      8  N   UNL     1       5.408   4.905  16.378  0.00  0.00    +0.000 NA
ENDROOT
BRANCH   5   9
ATOM      9  C   UNL     1       7.860   7.885  17.968  0.00  0.00    +0.000 C 
ATOM     10  O   UNL     1       8.626   7.564  18.875  0.00  0.00    +0.000 OA
ATOM     11  N   UNL     1       7.697   9.158  17.458  0.00  0.00    +0.000 N 
ATOM     12  H   UNL     1       6.937   9.275  16.798  0.00  0.00    +0.000 HD
BRANCH  11  13
ATOM     13  C   UNL     1       8.435  10.293  17.849  0.00  0.00    +0.000 A 
ATOM     14  C   UNL     1       9.617  10.219  18.598  0.00  0.00    +0.000 A 
ATOM     15  C   UNL     1      10.297  11.375  18.987  0.00  0.00    +0.000 A 
ATOM     16  C   UNL     1       9.803  12.623  18.629  0.00  0.00    +0.000 A 
ATOM     17  C   UNL     1       8.638  12.712  17.867  0.00  0.00    +0.000 A 
ATOM     18  C   UNL     1       7.964  11.552  17.469  0.00  0.00    +0.000 A 
ENDBRANCH  11  13
ENDBRANCH   5   9
BRANCH   2  19
ATOM     19  C   UNL     1       3.314   5.856  19.265  0.00  0.00    +0.000 C 
BRANCH  19  20
ATOM     20  C   UNL     1       2.452   7.107  19.259  0.00  0.00    +0.000 A 
ATOM     21  C   UNL     1       2.309   7.884  18.099  0.00  0.00    +0.000 A 
ATOM     22  C   UNL     1       1.609   9.091  18.133  0.00  0.00    +0.000 A 
ATOM     23  C   UNL     1       1.025   9.524  19.322  0.00  0.00    +0.000 A 
ATOM     24  C   UNL     1       1.118   8.741  20.470  0.00  0.00    +0.000 A 
ATOM     25  C   UNL     1       1.818   7.533  20.437  0.00  0.00    +0.000 A 
ENDBRANCH  19  20
ENDBRANCH   2  19
TORSDOF 4
ENDMDL
MODEL 6
REMARK VINA RESULT:      -7.4      4.411      7.070
REMARK  Name = 
REMARK  5 active torsions:
REMARK  status: ('A' for Active; 'I' for Inactive)
REMARK    1  A    between atoms: C_1  and  N_2
REMARK    2  A    between atoms: N_2  and  C_3
REMARK    3  A    between atoms: C_3  and  C_4
REMARK    4  A    between atoms: C_12  and  C_13
REMARK    5  A    between atoms: N_15  and  C_16
REMARK                            x       y       z     vdW  Elec       q    Type
REMARK                         _______ _______ _______ _____ _____    ______ ____
ROOT
ATOM      1  C   UNL     1       4.197   2.837  17.111  0.00  0.00    +0.000 C 
ATOM      2  N   UNL     1       4.784   3.909  17.896  0.00  0.00    +0.000 N 
ATOM      3  C   UNL     1       5.717   4.721  17.258  0.00  0.00    +0.000 A 
ATOM      4  C   UNL     1       6.339   5.753  17.922  0.00  0.00    +0.000 A 
ATOM      5  C   UNL     1       7.253   6.523  17.233  0.00  0.00    +0.000 A 
ATOM      6  N   UNL     1       7.565   6.348  15.935  0.00  0.00    +0.000 NA
ATOM      7  C   UNL     1       6.905   5.331  15.366  0.00  0.00    +0.000 A 
ATOM      8  N   UNL     1       6.005   4.519  15.958  0.00  0.00    +0.000 NA
ENDROOT
BRANCH   5   9
ATOM      9  C   UNL     1       7.947   7.594  18.006  0.00  0.00    +0.000 C 
ATOM     10  O   UNL     1       8.548   7.280  19.032  0.00  0.00    +0.000 OA
ATOM     11  N   UNL     1       7.833   8.871  17.492  0.00  0.00    +0.000 N 
ATOM     12  H   UNL     1       7.201   8.976  16.706  0.00  0.00    +0.000 HD
BRANCH  11  13
ATOM     13  C   UNL     1       8.448  10.022  18.026  0.00  0.00    +0.000 A 
ATOM     14  C   UNL     1       8.268  11.304  17.492  0.00  0.00    +0.000 A 
ATOM     15  C   UNL     1       8.923  12.410  18.039  0.00  0.00    +0.000 A 
ATOM     16  C   UNL     1       9.766  12.246  19.130  0.00  0.00    +0.000 A 
ATOM     17  C   UNL     1       9.941  10.978  19.684  0.00  0.00    +0.000 A 
ATOM     18  C   UNL     1       9.275   9.872  19.141  0.00  0.00    +0.000 A 
ENDBRANCH  11  13
ENDBRANCH   5   9
BRANCH   2  19
ATOM     19  C   UNL     1       4.790   3.764  19.360  0.00  0.00    +0.000 C 
BRANCH  19  20
ATOM     20  C   UNL     1       3.385   3.619  19.920  0.00  0.00    +0.000 A 
ATOM     21  C   UNL     1       2.452   4.662  19.819  0.00  0.00    +0.000 A 
ATOM     22  C   UNL     1       1.204   4.563  20.436  0.00  0.00    +0.000 A 
ATOM     23  C   UNL     1       0.866   3.410  21.141  0.00  0.00    +0.000 A 
ATOM     24  C   UNL     1       1.763   2.347  21.211  0.00  0.00    +0.000 A 
ATOM     25  C   UNL     1       3.012   2.445  20.594  0.00  0.00    +0.000 A 
ENDBRANCH  19  20
ENDBRANCH   2  19
TORSDOF 4
ENDMDL
MODEL 7
REMARK VINA RESULT:      -7.3      4.393      6.926
REMARK  Name = 
REMARK  5 active torsions:
REMARK  status: ('A' for Active; 'I' for Inactive)
REMARK    1  A    between atoms: C_1  and  N_2
REMARK    2  A    between atoms: N_2  and  C_3
REMARK    3  A    between atoms: C_3  and  C_4
REMARK    4  A    between atoms: C_12  and  C_13
REMARK    5  A    between atoms: N_15  and  C_16
REMARK                            x       y       z     vdW  Elec       q    Type
REMARK                         _______ _______ _______ _____ _____    ______ ____
ROOT
ATOM      1  C   UNL     1       3.035   4.149  17.003  0.00  0.00    +0.000 C 
ATOM      2  N   UNL     1       3.734   5.249  17.645  0.00  0.00    +0.000 N 
ATOM      3  C   UNL     1       5.035   5.504  17.221  0.00  0.00    +0.000 A 
ATOM      4  C   UNL     1       5.784   6.514  17.779  0.00  0.00    +0.000 A 
ATOM      5  C   UNL     1       7.066   6.718  17.313  0.00  0.00    +0.000 A 
ATOM      6  N   UNL     1       7.634   6.005  16.323  0.00  0.00    +0.000 NA
ATOM      7  C   UNL     1       6.831   5.052  15.830  0.00  0.00    +0.000 A 
ATOM      8  N   UNL     1       5.573   4.771  16.226  0.00  0.00    +0.000 NA
ENDROOT
BRANCH   5   9
ATOM      9  C   UNL     1       7.863   7.785  17.986  0.00  0.00    +0.000 C 
ATOM     10  O   UNL     1       8.597   7.467  18.919  0.00  0.00    +0.000 OA
ATOM     11  N   UNL     1       7.684   9.063  17.494  0.00  0.00    +0.000 N 
ATOM     12  H   UNL     1       6.950   9.172  16.803  0.00  0.00    +0.000 HD
BRANCH  11  13
ATOM     13  C   UNL     1       8.369  10.211  17.941  0.00  0.00    +0.000 A 
ATOM     14  C   UNL     1       8.086  11.502  17.477  0.00  0.00    +0.000 A 
ATOM     15  C   UNL     1       8.815  12.605  17.929  0.00  0.00    +0.000 A 
ATOM     16  C   UNL     1       9.836  12.430  18.854  0.00  0.00    +0.000 A 
ATOM     17  C   UNL     1      10.117  11.153  19.338  0.00  0.00    +0.000 A 
ATOM     18  C   UNL     1       9.378  10.049  18.893  0.00  0.00    +0.000 A 
ENDBRANCH  11  13
ENDBRANCH   5   9
BRANCH   2  19
ATOM     19  C   UNL     1       3.287   5.657  18.986  0.00  0.00    +0.000 C 
BRANCH  19  20
ATOM     20  C   UNL     1       2.719   4.488  19.772  0.00  0.00    +0.000 A 
ATOM     21  C   UNL     1       1.340   4.375  20.009  0.00  0.00    +0.000 A 
ATOM     22  C   UNL     1       0.840   3.361  20.828  0.00  0.00    +0.000 A 
ATOM     23  C   UNL     1       1.709   2.436  21.402  0.00  0.00    +0.000 A 
ATOM     24  C   UNL     1       3.075   2.507  21.138  0.00  0.00    +0.000 A 
ATOM     25  C   UNL     1       3.577   3.521  20.319  0.00  0.00    +0.000 A 
ENDBRANCH  19  20
ENDBRANCH   2  19
TORSDOF 4
ENDMDL
MODEL 8
REMARK VINA RESULT:      -7.3      1.837      8.177
REMARK  Name = 
REMARK  5 active torsions:
REMARK  status: ('A' for Active; 'I' for Inactive)
REMARK    1  A    between atoms: C_1  and  N_2
REMARK    2  A    between atoms: N_2  and  C_3
REMARK    3  A    between atoms: C_3  and  C_4
REMARK    4  A    between atoms: C_12  and  C_13
REMARK    5  A    between atoms: N_15  and  C_16
REMARK                            x       y       z     vdW  Elec       q    Type
REMARK                         _______ _______ _______ _____ _____    ______ ____
ROOT
ATOM      1  C   UNL     1       3.617   2.506  18.941  0.00  0.00    +0.000 C 
ATOM      2  N   UNL     1       3.501   3.813  18.317  0.00  0.00    +0.000 N 
ATOM      3  C   UNL     1       2.886   4.816  19.061  0.00  0.00    +0.000 A 
ATOM      4  C   UNL     1       2.716   6.082  18.552  0.00  0.00    +0.000 A 
ATOM      5  C   UNL     1       2.101   7.032  19.340  0.00  0.00    +0.000 A 
ATOM      6  N   UNL     1       1.672   6.811  20.597  0.00  0.00    +0.000 NA
ATOM      7  C   UNL     1       1.890   5.557  21.016  0.00  0.00    +0.000 A 
ATOM      8  N   UNL     1       2.470   4.560  20.317  0.00  0.00    +0.000 NA
ENDROOT
BRANCH   5   9
ATOM      9  C   UNL     1       1.883   8.374  18.727  0.00  0.00    +0.000 C 
ATOM     10  O   UNL     1       2.423   8.622  17.651  0.00  0.00    +0.000 OA
ATOM     11  N   UNL     1       1.089   9.240  19.454  0.00  0.00    +0.000 N 
ATOM     12  H   UNL     1       0.823   8.924  20.379  0.00  0.00    +0.000 HD
BRANCH  11  13
ATOM     13  C   UNL     1       0.708  10.534  19.044  0.00  0.00    +0.000 A 
ATOM     14  C   UNL     1       1.609  11.603  18.944  0.00  0.00    +0.000 A 
ATOM     15  C   UNL     1       1.177  12.875  18.562  0.00  0.00    +0.000 A 
ATOM     16  C   UNL     1      -0.163  13.094  18.273  0.00  0.00    +0.000 A 
ATOM     17  C   UNL     1      -1.068  12.036  18.351  0.00  0.00    +0.000 A 
ATOM     18  C   UNL     1      -0.632  10.759  18.723  0.00  0.00    +0.000 A 
ENDBRANCH  11  13
ENDBRANCH   5   9
BRANCH   2  19
ATOM     19  C   UNL     1       3.527   3.877  16.847  0.00  0.00    +0.000 C 
BRANCH  19  20
ATOM     20  C   UNL     1       4.891   4.294  16.325  0.00  0.00    +0.000 A 
ATOM     21  C   UNL     1       5.121   4.466  14.951  0.00  0.00    +0.000 A 
ATOM     22  C   UNL     1       6.403   4.737  14.473  0.00  0.00    +0.000 A 
ATOM     23  C   UNL     1       7.468   4.861  15.363  0.00  0.00    +0.000 A 
ATOM     24  C   UNL     1       7.247   4.740  16.733  0.00  0.00    +0.000 A 
ATOM     25  C   UNL     1       5.964   4.468  17.214  0.00  0.00    +0.000 A 
ENDBRANCH  19  20
ENDBRANCH   2  19
TORSDOF 4
ENDMDL
MODEL 9
REMARK VINA RESULT:      -7.3      4.575      7.160
REMARK  Name = 
REMARK  5 active torsions:
REMARK  status: ('A' for Active; 'I' for Inactive)
REMARK    1  A    between atoms: C_1  and  N_2
REMARK    2  A    between atoms: N_2  and  C_3
REMARK    3  A    between atoms: C_3  and  C_4
REMARK    4  A    between atoms: C_12  and  C_13
REMARK    5  A    between atoms: N_15  and  C_16
REMARK                            x       y       z     vdW  Elec       q    Type
REMARK                         _______ _______ _______ _____ _____    ______ ____
ROOT
ATOM      1  C   UNL     1       4.127   3.159  16.901  0.00  0.00    +0.000 C 
ATOM      2  N   UNL     1       4.791   4.086  17.802  0.00  0.00    +0.000 N 
ATOM      3  C   UNL     1       5.750   4.928  17.247  0.00  0.00    +0.000 A 
ATOM      4  C   UNL     1       6.443   5.830  18.020  0.00  0.00    +0.000 A 
ATOM      5  C   UNL     1       7.379   6.639  17.410  0.00  0.00    +0.000 A 
ATOM      6  N   UNL     1       7.647   6.625  16.091  0.00  0.00    +0.000 NA
ATOM      7  C   UNL     1       6.918   5.728  15.414  0.00  0.00    +0.000 A 
ATOM      8  N   UNL     1       5.992   4.889  15.922  0.00  0.00    +0.000 NA
ENDROOT
BRANCH   5   9
ATOM      9  C   UNL     1       8.150   7.560  18.295  0.00  0.00    +0.000 C 
ATOM     10  O   UNL     1       8.676   7.098  19.306  0.00  0.00    +0.000 OA
ATOM     11  N   UNL     1       8.187   8.881  17.894  0.00  0.00    +0.000 N 
ATOM     12  H   UNL     1       7.599   9.119  17.104  0.00  0.00    +0.000 HD
BRANCH  11  13
ATOM     13  C   UNL     1       8.896   9.910  18.546  0.00  0.00    +0.000 A 
ATOM     14  C   UNL     1       8.961  10.033  19.940  0.00  0.00    +0.000 A 
ATOM     15  C   UNL     1       9.652  11.089  20.538  0.00  0.00    +0.000 A 
ATOM     16  C   UNL     1      10.290  12.036  19.748  0.00  0.00    +0.000 A 
ATOM     17  C   UNL     1      10.250  11.916  18.359  0.00  0.00    +0.000 A 
ATOM     18  C   UNL     1       9.566  10.851  17.760  0.00  0.00    +0.000 A 
ENDBRANCH  11  13
ENDBRANCH   5   9
BRANCH   2  19
ATOM     19  C   UNL     1       4.828   3.745  19.233  0.00  0.00    +0.000 C 
BRANCH  19  20
ATOM     20  C   UNL     1       3.442   3.761  19.853  0.00  0.00    +0.000 A 
ATOM     21  C   UNL     1       2.753   2.569  20.123  0.00  0.00    +0.000 A 
ATOM     22  C   UNL     1       1.437   2.596  20.585  0.00  0.00    +0.000 A 
ATOM     23  C   UNL     1       0.801   3.816  20.805  0.00  0.00    +0.000 A 
ATOM     24  C   UNL     1       1.487   5.009  20.587  0.00  0.00    +0.000 A 
ATOM     25  C   UNL     1       2.804   4.983  20.124  0.00  0.00    +0.000 A 
ENDBRANCH  19  20
ENDBRANCH   2  19
TORSDOF 4
ENDMDL
