MODEL 1
REMARK VINA RESULT:      -8.2      0.000      0.000
REMARK  Name = 
REMARK  10 active torsions:
REMARK  status: ('A' for Active; 'I' for Inactive)
REMARK    1  A    between atoms: C_1  and  C_2
REMARK    2  A    between atoms: C_2  and  C_3
REMARK    3  A    between atoms: N_5  and  C_6
REMARK    4  A    between atoms: C_8  and  N_9
REMARK    5  A    between atoms: N_9  and  C_10
REMARK    6  A    between atoms: C_10  and  O_11
REMARK    7  A    between atoms: C_18  and  C_19
REMARK    8  A    between atoms: C_19  and  C_20
REMARK    9  A    between atoms: C_22  and  O_23
REMARK   10  A    between atoms: C_26  and  O_27
REMARK                            x       y       z     vdW  Elec       q    Type
REMARK                         _______ _______ _______ _____ _____    ______ ____
ROOT
ATOM      1  N   UNL     1       3.006   6.225  18.372  0.00  0.00    +0.000 N 
ATOM      2  H   UNL     1       2.290   5.561  18.689  0.00  0.00    +0.000 HD
ENDROOT
BRANCH   1   3
ATOM      3  C   UNL     1       2.571   7.531  18.299  0.00  0.00    +0.000 C 
ATOM      4  C   UNL     1       1.888   8.221  19.245  0.00  0.00    +0.000 C 
ATOM      5  C   UNL     1       1.577   7.561  20.534  0.00  0.00    +0.000 C 
ATOM      6  O   UNL     1       1.764   6.360  20.714  0.00  0.00    +0.000 OA
ATOM      7  O   UNL     1       1.091   8.328  21.533  0.00  0.00    +0.000 OA
ATOM      8  C   UNL     1       0.835   9.648  21.409  0.00  0.00    +0.000 C 
ATOM      9  O   UNL     1       0.574  10.307  22.410  0.00  0.00    +0.000 OA
ATOM     10  C   UNL     1       0.854  10.275  20.084  0.00  0.00    +0.000 C 
ATOM     11  C   UNL     1       1.372   9.570  19.068  0.00  0.00    +0.000 C 
BRANCH  10  12
ATOM     12  C   UNL     1       0.404  11.688  19.848  0.00  0.00    +0.000 C 
ATOM     13  C   UNL     1      -1.063  12.039  19.826  0.00  0.00    +0.000 C 
ATOM     14  O   UNL     1       1.217  12.598  19.660  0.00  0.00    +0.000 OA
ENDBRANCH  10  12
BRANCH   3  15
ATOM     15  O   UNL     1       2.786   8.147  17.072  0.00  0.00    +0.000 OA
ATOM     16  H   UNL     1       3.577   8.698  17.229  0.00  0.00    +0.000 HD
ENDBRANCH   3  15
BRANCH  11  17
ATOM     17  O   UNL     1       1.409  10.094  17.788  0.00  0.00    +0.000 OA
ATOM     18  H   UNL     1       1.024   9.437  17.171  0.00  0.00    +0.000 HD
ENDBRANCH  11  17
ENDBRANCH   1   3
BRANCH   1  21
ATOM     19  C   UNL     1       5.748   4.554  16.498  0.00  0.00    +0.000 A 
ATOM     20  C   UNL     1       4.497   5.067  16.867  0.00  0.00    +0.000 A 
ATOM     21  C   UNL     1       4.265   5.632  18.132  0.00  0.00    +0.000 A 
ATOM     22  C   UNL     1       5.335   5.664  19.036  0.00  0.00    +0.000 A 
ATOM     23  C   UNL     1       6.590   5.149  18.693  0.00  0.00    +0.000 A 
ATOM     24  C   UNL     1       6.791   4.596  17.427  0.00  0.00    +0.000 A 
BRANCH  19  27
ATOM     25  C   UNL     1       6.775   4.544  14.221  0.00  0.00    +0.000 C 
ATOM     26  O   UNL     1       7.425   5.580  14.321  0.00  0.00    +0.000 OA
ATOM     27  N   UNL     1       6.012   3.984  15.229  0.00  0.00    +0.000 N 
ATOM     28  H   UNL     1       5.670   3.034  15.117  0.00  0.00    +0.000 HD
BRANCH  25  30
ATOM     29  C   UNL     1       5.312   3.581  12.442  0.00  0.00    +0.000 C 
ATOM     30  C   UNL     1       6.745   3.757  12.928  0.00  0.00    +0.000 C 
ENDBRANCH  25  30
ENDBRANCH  19  27
BRANCH  24  31
ATOM     31  O   UNL     1       8.013   4.095  17.071  0.00  0.00    +0.000 OA
ATOM     32  H   UNL     1       7.883   3.217  16.668  0.00  0.00    +0.000 HD
ENDBRANCH  24  31
ENDBRANCH   1  21
TORSDOF 8
ENDMDL
MODEL 2
REMARK VINA RESULT:      -8.0      2.241      3.867
REMARK  Name = 
REMARK  10 active torsions:
REMARK  status: ('A' for Active; 'I' for Inactive)
REMARK    1  A    between atoms: C_1  and  C_2
REMARK    2  A    between atoms: C_2  and  C_3
REMARK    3  A    between atoms: N_5  and  C_6
REMARK    4  A    between atoms: C_8  and  N_9
REMARK    5  A    between atoms: N_9  and  C_10
REMARK    6  A    between atoms: C_10  and  O_11
REMARK    7  A    between atoms: C_18  and  C_19
REMARK    8  A    between atoms: C_19  and  C_20
REMARK    9  A    between atoms: C_22  and  O_23
REMARK   10  A    between atoms: C_26  and  O_27
REMARK                            x       y       z     vdW  Elec       q    Type
REMARK                         _______ _______ _______ _____ _____    ______ ____
ROOT
ATOM      1  N   UNL     1       1.875   7.755  19.695  0.00  0.00    +0.000 N 
ATOM      2  H   UNL     1       1.896   8.214  18.777  0.00  0.00    +0.000 HD
ENDROOT
BRANCH   1   3
ATOM      3  C   UNL     1       1.351   8.534  20.704  0.00  0.00    +0.000 C 
ATOM      4  C   UNL     1       0.594   9.651  20.568  0.00  0.00    +0.000 C 
ATOM      5  C   UNL     1       0.230  10.112  19.208  0.00  0.00    +0.000 C 
ATOM      6  O   UNL     1       0.727   9.622  18.198  0.00  0.00    +0.000 OA
ATOM      7  O   UNL     1      -0.693  11.091  19.102  0.00  0.00    +0.000 OA
ATOM      8  C   UNL     1      -1.268  11.698  20.162  0.00  0.00    +0.000 C 
ATOM      9  O   UNL     1      -2.227  12.442  19.983  0.00  0.00    +0.000 OA
ATOM     10  C   UNL     1      -0.733  11.479  21.510  0.00  0.00    +0.000 C 
ATOM     11  C   UNL     1       0.152  10.485  21.675  0.00  0.00    +0.000 C 
BRANCH  10  12
ATOM     12  C   UNL     1      -1.202  12.257  22.706  0.00  0.00    +0.000 C 
ATOM     13  C   UNL     1      -2.555  11.995  23.317  0.00  0.00    +0.000 C 
ATOM     14  O   UNL     1      -0.497  13.133  23.218  0.00  0.00    +0.000 OA
ENDBRANCH  10  12
BRANCH   3  15
ATOM     15  O   UNL     1       1.740   8.164  21.986  0.00  0.00    +0.000 OA
ATOM     16  H   UNL     1       2.273   7.360  21.839  0.00  0.00    +0.000 HD
ENDBRANCH   3  15
BRANCH  11  17
ATOM     17  O   UNL     1       0.708  10.231  22.915  0.00  0.00    +0.000 OA
ATOM     18  H   UNL     1       1.673  10.393  22.864  0.00  0.00    +0.000 HD
ENDBRANCH  11  17
ENDBRANCH   1   3
BRANCH   1  21
ATOM     19  C   UNL     1       4.148   4.899  18.986  0.00  0.00    +0.000 A 
ATOM     20  C   UNL     1       3.539   6.161  18.971  0.00  0.00    +0.000 A 
ATOM     21  C   UNL     1       2.353   6.426  19.677  0.00  0.00    +0.000 A 
ATOM     22  C   UNL     1       1.780   5.375  20.404  0.00  0.00    +0.000 A 
ATOM     23  C   UNL     1       2.366   4.103  20.425  0.00  0.00    +0.000 A 
ATOM     24  C   UNL     1       3.545   3.871  19.716  0.00  0.00    +0.000 A 
BRANCH  19  27
ATOM     25  C   UNL     1       6.630   4.899  18.706  0.00  0.00    +0.000 C 
ATOM     26  O   UNL     1       6.926   5.370  19.799  0.00  0.00    +0.000 OA
ATOM     27  N   UNL     1       5.345   4.605  18.289  0.00  0.00    +0.000 N 
ATOM     28  H   UNL     1       5.216   4.042  17.453  0.00  0.00    +0.000 HD
BRANCH  25  30
ATOM     29  C   UNL     1       7.095   4.627  16.267  0.00  0.00    +0.000 C 
ATOM     30  C   UNL     1       7.690   4.590  17.669  0.00  0.00    +0.000 C 
ENDBRANCH  25  30
ENDBRANCH  19  27
BRANCH  24  31
ATOM     31  O   UNL     1       4.137   2.638  19.732  0.00  0.00    +0.000 OA
ATOM     32  H   UNL     1       3.860   2.171  20.541  0.00  0.00    +0.000 HD
ENDBRANCH  24  31
ENDBRANCH   1  21
TORSDOF 8
ENDMDL
MODEL 3
REMARK VINA RESULT:      -7.9      0.966      2.192
REMARK  Name = 
REMARK  10 active torsions:
REMARK  status: ('A' for Active; 'I' for Inactive)
REMARK    1  A    between atoms: C_1  and  C_2
REMARK    2  A    between atoms: C_2  and  C_3
REMARK    3  A    between atoms: N_5  and  C_6
REMARK    4  A    between atoms: C_8  and  N_9
REMARK    5  A    between atoms: N_9  and  C_10
REMARK    6  A    between atoms: C_10  and  O_11
REMARK    7  A    between atoms: C_18  and  C_19
REMARK    8  A    between atoms: C_19  and  C_20
REMARK    9  A    between atoms: C_22  and  O_23
REMARK   10  A    between atoms: C_26  and  O_27
REMARK                            x       y       z     vdW  Elec       q    Type
REMARK                         _______ _______ _______ _____ _____    ______ ____
ROOT
ATOM      1  N   UNL     1       2.854   5.834  18.545  0.00  0.00    +0.000 N 
ATOM      2  H   UNL     1       2.155   5.499  17.872  0.00  0.00    +0.000 HD
ENDROOT
BRANCH   1   3
ATOM      3  C   UNL     1       2.339   6.629  19.546  0.00  0.00    +0.000 C 
ATOM      4  C   UNL     1       1.917   7.913  19.437  0.00  0.00    +0.000 C 
ATOM      5  C   UNL     1       1.958   8.575  18.113  0.00  0.00    +0.000 C 
ATOM      6  O   UNL     1       2.517   8.064  17.146  0.00  0.00    +0.000 OA
ATOM      7  O   UNL     1       1.339   9.767  17.985  0.00  0.00    +0.000 OA
ATOM      8  C   UNL     1       0.725  10.406  19.004  0.00  0.00    +0.000 C 
ATOM      9  O   UNL     1       0.030  11.389  18.767  0.00  0.00    +0.000 OA
ATOM     10  C   UNL     1       0.906   9.934  20.380  0.00  0.00    +0.000 C 
ATOM     11  C   UNL     1       1.474   8.731  20.556  0.00  0.00    +0.000 C 
BRANCH  10  12
ATOM     12  C   UNL     1       0.406  10.696  21.573  0.00  0.00    +0.000 C 
ATOM     13  C   UNL     1      -0.621  10.095  22.500  0.00  0.00    +0.000 C 
ATOM     14  O   UNL     1       0.816  11.834  21.826  0.00  0.00    +0.000 OA
ENDBRANCH  10  12
BRANCH   3  15
ATOM     15  O   UNL     1       2.359   6.056  20.812  0.00  0.00    +0.000 OA
ATOM     16  H   UNL     1       1.545   5.517  20.831  0.00  0.00    +0.000 HD
ENDBRANCH   3  15
BRANCH  11  17
ATOM     17  O   UNL     1       1.689   8.229  21.826  0.00  0.00    +0.000 OA
ATOM     18  H   UNL     1       2.595   7.859  21.867  0.00  0.00    +0.000 HD
ENDBRANCH  11  17
ENDBRANCH   1   3
BRANCH   1  21
ATOM     19  C   UNL     1       5.708   4.382  16.654  0.00  0.00    +0.000 A 
ATOM     20  C   UNL     1       4.420   4.783  17.037  0.00  0.00    +0.000 A 
ATOM     21  C   UNL     1       4.159   5.358  18.293  0.00  0.00    +0.000 A 
ATOM     22  C   UNL     1       5.238   5.516  19.172  0.00  0.00    +0.000 A 
ATOM     23  C   UNL     1       6.531   5.114  18.815  0.00  0.00    +0.000 A 
ATOM     24  C   UNL     1       6.759   4.549  17.560  0.00  0.00    +0.000 A 
BRANCH  19  27
ATOM     25  C   UNL     1       6.439   4.477  14.268  0.00  0.00    +0.000 C 
ATOM     26  O   UNL     1       6.738   5.666  14.227  0.00  0.00    +0.000 OA
ATOM     27  N   UNL     1       6.001   3.806  15.394  0.00  0.00    +0.000 N 
ATOM     28  H   UNL     1       5.965   2.791  15.380  0.00  0.00    +0.000 HD
BRANCH  25  30
ATOM     29  C   UNL     1       7.285   4.313  11.924  0.00  0.00    +0.000 C 
ATOM     30  C   UNL     1       6.520   3.603  13.034  0.00  0.00    +0.000 C 
ENDBRANCH  25  30
ENDBRANCH  19  27
BRANCH  24  31
ATOM     31  O   UNL     1       8.017   4.158  17.190  0.00  0.00    +0.000 OA
ATOM     32  H   UNL     1       7.959   3.698  16.332  0.00  0.00    +0.000 HD
ENDBRANCH  24  31
ENDBRANCH   1  21
TORSDOF 8
ENDMDL
MODEL 4
REMARK VINA RESULT:      -7.8      1.311      2.442
REMARK  Name = 
REMARK  10 active torsions:
REMARK  status: ('A' for Active; 'I' for Inactive)
REMARK    1  A    between atoms: C_1  and  C_2
REMARK    2  A    between atoms: C_2  and  C_3
REMARK    3  A    between atoms: N_5  and  C_6
REMARK    4  A    between atoms: C_8  and  N_9
REMARK    5  A    between atoms: N_9  and  C_10
REMARK    6  A    between atoms: C_10  and  O_11
REMARK    7  A    between atoms: C_18  and  C_19
REMARK    8  A    between atoms: C_19  and  C_20
REMARK    9  A    between atoms: C_22  and  O_23
REMARK   10  A    between atoms: C_26  and  O_27
REMARK                            x       y       z     vdW  Elec       q    Type
REMARK                         _______ _______ _______ _____ _____    ______ ____
ROOT
ATOM      1  N   UNL     1       3.222   6.785  18.149  0.00  0.00    +0.000 N 
ATOM      2  H   UNL     1       2.763   7.047  17.269  0.00  0.00    +0.000 HD
ENDROOT
BRANCH   1   3
ATOM      3  C   UNL     1       2.543   7.185  19.280  0.00  0.00    +0.000 C 
ATOM      4  C   UNL     1       1.761   8.283  19.421  0.00  0.00    +0.000 C 
ATOM      5  C   UNL     1       1.547   9.169  18.253  0.00  0.00    +0.000 C 
ATOM      6  O   UNL     1       2.186   9.041  17.211  0.00  0.00    +0.000 OA
ATOM      7  O   UNL     1       0.602  10.127  18.355  0.00  0.00    +0.000 OA
ATOM      8  C   UNL     1      -0.125  10.349  19.470  0.00  0.00    +0.000 C 
ATOM      9  O   UNL     1      -1.086  11.110  19.422  0.00  0.00    +0.000 OA
ATOM     10  C   UNL     1       0.249   9.696  20.729  0.00  0.00    +0.000 C 
ATOM     11  C   UNL     1       1.150   8.704  20.672  0.00  0.00    +0.000 C 
BRANCH  10  12
ATOM     12  C   UNL     1      -0.396  10.034  22.042  0.00  0.00    +0.000 C 
ATOM     13  C   UNL     1      -0.585  11.469  22.465  0.00  0.00    +0.000 C 
ATOM     14  O   UNL     1      -0.784   9.150  22.813  0.00  0.00    +0.000 OA
ENDBRANCH  10  12
BRANCH   3  15
ATOM     15  O   UNL     1       2.788   6.412  20.409  0.00  0.00    +0.000 OA
ATOM     16  H   UNL     1       3.046   5.546  20.040  0.00  0.00    +0.000 HD
ENDBRANCH   3  15
BRANCH  11  17
ATOM     17  O   UNL     1       1.560   8.054  21.822  0.00  0.00    +0.000 OA
ATOM     18  H   UNL     1       1.787   8.726  22.497  0.00  0.00    +0.000 HD
ENDBRANCH  11  17
ENDBRANCH   1   3
BRANCH   1  21
ATOM     19  C   UNL     1       6.305   5.524  16.498  0.00  0.00    +0.000 A 
ATOM     20  C   UNL     1       5.066   6.135  16.732  0.00  0.00    +0.000 A 
ATOM     21  C   UNL     1       4.410   6.043  17.972  0.00  0.00    +0.000 A 
ATOM     22  C   UNL     1       5.036   5.306  18.985  0.00  0.00    +0.000 A 
ATOM     23  C   UNL     1       6.270   4.679  18.771  0.00  0.00    +0.000 A 
ATOM     24  C   UNL     1       6.898   4.791  17.530  0.00  0.00    +0.000 A 
BRANCH  19  27
ATOM     25  C   UNL     1       6.859   4.738  14.193  0.00  0.00    +0.000 C 
ATOM     26  O   UNL     1       6.042   3.825  14.122  0.00  0.00    +0.000 OA
ATOM     27  N   UNL     1       6.992   5.604  15.262  0.00  0.00    +0.000 N 
ATOM     28  H   UNL     1       7.557   6.440  15.151  0.00  0.00    +0.000 HD
BRANCH  25  30
ATOM     29  C   UNL     1       7.286   4.500  11.744  0.00  0.00    +0.000 C 
ATOM     30  C   UNL     1       7.841   5.003  13.071  0.00  0.00    +0.000 C 
ENDBRANCH  25  30
ENDBRANCH  19  27
BRANCH  24  31
ATOM     31  O   UNL     1       8.107   4.192  17.305  0.00  0.00    +0.000 OA
ATOM     32  H   UNL     1       8.587   4.706  16.629  0.00  0.00    +0.000 HD
ENDBRANCH  24  31
ENDBRANCH   1  21
TORSDOF 8
ENDMDL
MODEL 5
REMARK VINA RESULT:      -7.7      2.223      3.125
REMARK  Name = 
REMARK  10 active torsions:
REMARK  status: ('A' for Active; 'I' for Inactive)
REMARK    1  A    between atoms: C_1  and  C_2
REMARK    2  A    between atoms: C_2  and  C_3
REMARK    3  A    between atoms: N_5  and  C_6
REMARK    4  A    between atoms: C_8  and  N_9
REMARK    5  A    between atoms: N_9  and  C_10
REMARK    6  A    between atoms: C_10  and  O_11
REMARK    7  A    between atoms: C_18  and  C_19
REMARK    8  A    between atoms: C_19  and  C_20
REMARK    9  A    between atoms: C_22  and  O_23
REMARK   10  A    between atoms: C_26  and  O_27
REMARK                            x       y       z     vdW  Elec       q    Type
REMARK                         _______ _______ _______ _____ _____    ______ ____
ROOT
ATOM      1  N   UNL     1       1.905   6.739  20.481  0.00  0.00    +0.000 N 
ATOM      2  H   UNL     1       1.470   6.846  21.404  0.00  0.00    +0.000 HD
ENDROOT
BRANCH   1   3
ATOM      3  C   UNL     1       1.822   7.861  19.684  0.00  0.00    +0.000 C 
ATOM      4  C   UNL     1       1.409   9.098  20.052  0.00  0.00    +0.000 C 
ATOM      5  C   UNL     1       1.025   9.339  21.463  0.00  0.00    +0.000 C 
ATOM      6  O   UNL     1       0.904   8.423  22.271  0.00  0.00    +0.000 OA
ATOM      7  O   UNL     1       0.826  10.617  21.851  0.00  0.00    +0.000 OA
ATOM      8  C   UNL     1       0.914  11.676  21.019  0.00  0.00    +0.000 C 
ATOM      9  O   UNL     1       0.903  12.811  21.486  0.00  0.00    +0.000 OA
ATOM     10  C   UNL     1       1.005  11.464  19.571  0.00  0.00    +0.000 C 
ATOM     11  C   UNL     1       1.251  10.219  19.138  0.00  0.00    +0.000 C 
BRANCH  10  12
ATOM     12  C   UNL     1       0.923  12.589  18.579  0.00  0.00    +0.000 C 
ATOM     13  C   UNL     1      -0.395  13.254  18.270  0.00  0.00    +0.000 C 
ATOM     14  O   UNL     1       1.927  12.995  17.985  0.00  0.00    +0.000 OA
ENDBRANCH  10  12
BRANCH   3  15
ATOM     15  O   UNL     1       2.105   7.642  18.341  0.00  0.00    +0.000 OA
ATOM     16  H   UNL     1       1.236   7.420  17.958  0.00  0.00    +0.000 HD
ENDBRANCH   3  15
BRANCH  11  17
ATOM     17  O   UNL     1       1.335   9.943  17.785  0.00  0.00    +0.000 OA
ATOM     18  H   UNL     1       0.545  10.315  17.341  0.00  0.00    +0.000 HD
ENDBRANCH  11  17
ENDBRANCH   1   3
BRANCH   1  21
ATOM     19  C   UNL     1       4.408   4.246  19.321  0.00  0.00    +0.000 A 
ATOM     20  C   UNL     1       3.673   5.428  19.488  0.00  0.00    +0.000 A 
ATOM     21  C   UNL     1       2.514   5.480  20.281  0.00  0.00    +0.000 A 
ATOM     22  C   UNL     1       2.100   4.297  20.906  0.00  0.00    +0.000 A 
ATOM     23  C   UNL     1       2.812   3.103  20.746  0.00  0.00    +0.000 A 
ATOM     24  C   UNL     1       3.961   3.083  19.955  0.00  0.00    +0.000 A 
BRANCH  19  27
ATOM     25  C   UNL     1       6.788   4.787  18.793  0.00  0.00    +0.000 C 
ATOM     26  O   UNL     1       7.049   5.425  19.808  0.00  0.00    +0.000 OA
ATOM     27  N   UNL     1       5.582   4.164  18.534  0.00  0.00    +0.000 N 
ATOM     28  H   UNL     1       5.524   3.503  17.764  0.00  0.00    +0.000 HD
BRANCH  25  30
ATOM     29  C   UNL     1       7.118   4.611  16.324  0.00  0.00    +0.000 C 
ATOM     30  C   UNL     1       7.806   4.625  17.683  0.00  0.00    +0.000 C 
ENDBRANCH  25  30
ENDBRANCH  19  27
BRANCH  24  31
ATOM     31  O   UNL     1       4.676   1.927  19.793  0.00  0.00    +0.000 OA
ATOM     32  H   UNL     1       4.209   1.360  19.152  0.00  0.00    +0.000 HD
ENDBRANCH  24  31
ENDBRANCH   1  21
TORSDOF 8
ENDMDL
MODEL 6
REMARK VINA RESULT:      -7.6      3.172      8.411
REMARK  Name = 
REMARK  10 active torsions:
REMARK  status: ('A' for Active; 'I' for Inactive)
REMARK    1  A    between atoms: C_1  and  C_2
REMARK    2  A    between atoms: C_2  and  C_3
REMARK    3  A    between atoms: N_5  and  C_6
REMARK    4  A    between atoms: C_8  and  N_9
REMARK    5  A    between atoms: N_9  and  C_10
REMARK    6  A    between atoms: C_10  and  O_11
REMARK    7  A    between atoms: C_18  and  C_19
REMARK    8  A    between atoms: C_19  and  C_20
REMARK    9  A    between atoms: C_22  and  O_23
REMARK   10  A    between atoms: C_26  and  O_27
REMARK                            x       y       z     vdW  Elec       q    Type
REMARK                         _______ _______ _______ _____ _____    ______ ____
ROOT
ATOM      1  N   UNL     1       1.826   9.130  19.745  0.00  0.00    +0.000 N 
ATOM      2  H   UNL     1       2.732   9.523  19.462  0.00  0.00    +0.000 HD
ENDROOT
BRANCH   1   3
ATOM      3  C   UNL     1       1.874   7.800  20.102  0.00  0.00    +0.000 C 
ATOM      4  C   UNL     1       2.372   6.773  19.370  0.00  0.00    +0.000 C 
ATOM      5  C   UNL     1       2.976   7.058  18.047  0.00  0.00    +0.000 C 
ATOM      6  O   UNL     1       2.889   8.161  17.515  0.00  0.00    +0.000 OA
ATOM      7  O   UNL     1       3.652   6.061  17.437  0.00  0.00    +0.000 OA
ATOM      8  C   UNL     1       3.771   4.816  17.942  0.00  0.00    +0.000 C 
ATOM      9  O   UNL     1       4.552   4.026  17.422  0.00  0.00    +0.000 OA
ATOM     10  C   UNL     1       2.957   4.412  19.093  0.00  0.00    +0.000 C 
ATOM     11  C   UNL     1       2.304   5.374  19.762  0.00  0.00    +0.000 C 
BRANCH  10  12
ATOM     12  C   UNL     1       2.902   2.997  19.593  0.00  0.00    +0.000 C 
ATOM     13  C   UNL     1       2.063   1.960  18.889  0.00  0.00    +0.000 C 
ATOM     14  O   UNL     1       3.534   2.644  20.594  0.00  0.00    +0.000 OA
ENDBRANCH  10  12
BRANCH   3  15
ATOM     15  O   UNL     1       1.248   7.497  21.305  0.00  0.00    +0.000 OA
ATOM     16  H   UNL     1       0.450   8.059  21.294  0.00  0.00    +0.000 HD
ENDBRANCH   3  15
BRANCH  11  17
ATOM     17  O   UNL     1       1.506   5.063  20.849  0.00  0.00    +0.000 OA
ATOM     18  H   UNL     1       0.570   5.213  20.601  0.00  0.00    +0.000 HD
ENDBRANCH  11  17
ENDBRANCH   1   3
BRANCH   1  21
ATOM     19  C   UNL     1      -1.036  11.111  18.440  0.00  0.00    +0.000 A 
ATOM     20  C   UNL     1       0.091  10.283  18.524  0.00  0.00    +0.000 A 
ATOM     21  C   UNL     1       0.772  10.069  19.735  0.00  0.00    +0.000 A 
ATOM     22  C   UNL     1       0.290  10.725  20.876  0.00  0.00    +0.000 A 
ATOM     23  C   UNL     1      -0.828  11.565  20.813  0.00  0.00    +0.000 A 
ATOM     24  C   UNL     1      -1.485  11.755  19.597  0.00  0.00    +0.000 A 
BRANCH  19  27
ATOM     25  C   UNL     1      -2.735  10.536  16.701  0.00  0.00    +0.000 C 
ATOM     26  O   UNL     1      -3.218   9.551  17.252  0.00  0.00    +0.000 OA
ATOM     27  N   UNL     1      -1.746  11.340  17.236  0.00  0.00    +0.000 N 
ATOM     28  H   UNL     1      -1.549  12.235  16.798  0.00  0.00    +0.000 HD
BRANCH  25  30
ATOM     29  C   UNL     1      -2.998   9.850  14.315  0.00  0.00    +0.000 C 
ATOM     30  C   UNL     1      -3.195  10.972  15.326  0.00  0.00    +0.000 C 
ENDBRANCH  25  30
ENDBRANCH  19  27
BRANCH  24  31
ATOM     31  O   UNL     1      -2.584  12.565  19.517  0.00  0.00    +0.000 OA
ATOM     32  H   UNL     1      -2.688  13.032  20.367  0.00  0.00    +0.000 HD
ENDBRANCH  24  31
ENDBRANCH   1  21
TORSDOF 8
ENDMDL
MODEL 7
REMARK VINA RESULT:      -7.6      1.963      3.298
REMARK  Name = 
REMARK  10 active torsions:
REMARK  status: ('A' for Active; 'I' for Inactive)
REMARK    1  A    between atoms: C_1  and  C_2
REMARK    2  A    between atoms: C_2  and  C_3
REMARK    3  A    between atoms: N_5  and  C_6
REMARK    4  A    between atoms: C_8  and  N_9
REMARK    5  A    between atoms: N_9  and  C_10
REMARK    6  A    between atoms: C_10  and  O_11
REMARK    7  A    between atoms: C_18  and  C_19
REMARK    8  A    between atoms: C_19  and  C_20
REMARK    9  A    between atoms: C_22  and  O_23
REMARK   10  A    between atoms: C_26  and  O_27
REMARK                            x       y       z     vdW  Elec       q    Type
REMARK                         _______ _______ _______ _____ _____    ______ ____
ROOT
ATOM      1  N   UNL     1       2.105   7.747  19.284  0.00  0.00    +0.000 N 
ATOM      2  H   UNL     1       2.154   8.289  18.414  0.00  0.00    +0.000 HD
ENDROOT
BRANCH   1   3
ATOM      3  C   UNL     1       1.516   8.417  20.335  0.00  0.00    +0.000 C 
ATOM      4  C   UNL     1       0.708   9.503  20.263  0.00  0.00    +0.000 C 
ATOM      5  C   UNL     1       0.359  10.054  18.933  0.00  0.00    +0.000 C 
ATOM      6  O   UNL     1       0.907   9.670  17.904  0.00  0.00    +0.000 OA
ATOM      7  O   UNL     1      -0.609  10.994  18.876  0.00  0.00    +0.000 OA
ATOM      8  C   UNL     1      -1.241  11.487  19.962  0.00  0.00    +0.000 C 
ATOM      9  O   UNL     1      -2.231  12.196  19.813  0.00  0.00    +0.000 OA
ATOM     10  C   UNL     1      -0.733  11.186  21.304  0.00  0.00    +0.000 C 
ATOM     11  C   UNL     1       0.196  10.225  21.418  0.00  0.00    +0.000 C 
BRANCH  10  12
ATOM     12  C   UNL     1      -1.272  11.843  22.543  0.00  0.00    +0.000 C 
ATOM     13  C   UNL     1      -0.985  13.294  22.836  0.00  0.00    +0.000 C 
ATOM     14  O   UNL     1      -1.957  11.214  23.356  0.00  0.00    +0.000 OA
ENDBRANCH  10  12
BRANCH   3  15
ATOM     15  O   UNL     1       1.888   7.965  21.595  0.00  0.00    +0.000 OA
ATOM     16  H   UNL     1       1.382   8.538  22.201  0.00  0.00    +0.000 HD
ENDBRANCH   3  15
BRANCH  11  17
ATOM     17  O   UNL     1       0.730   9.899  22.651  0.00  0.00    +0.000 OA
ATOM     18  H   UNL     1       1.693  10.076  22.631  0.00  0.00    +0.000 HD
ENDBRANCH  11  17
ENDBRANCH   1   3
BRANCH   1  21
ATOM     19  C   UNL     1       4.125   4.922  17.954  0.00  0.00    +0.000 A 
ATOM     20  C   UNL     1       3.481   6.160  18.092  0.00  0.00    +0.000 A 
ATOM     21  C   UNL     1       2.619   6.436  19.168  0.00  0.00    +0.000 A 
ATOM     22  C   UNL     1       2.410   5.422  20.111  0.00  0.00    +0.000 A 
ATOM     23  C   UNL     1       3.034   4.176  19.988  0.00  0.00    +0.000 A 
ATOM     24  C   UNL     1       3.887   3.931  18.911  0.00  0.00    +0.000 A 
BRANCH  19  27
ATOM     25  C   UNL     1       6.332   4.983  16.786  0.00  0.00    +0.000 C 
ATOM     26  O   UNL     1       6.977   5.544  17.666  0.00  0.00    +0.000 OA
ATOM     27  N   UNL     1       5.003   4.617  16.886  0.00  0.00    +0.000 N 
ATOM     28  H   UNL     1       4.611   3.990  16.188  0.00  0.00    +0.000 HD
BRANCH  25  30
ATOM     29  C   UNL     1       5.897   4.161  14.468  0.00  0.00    +0.000 C 
ATOM     30  C   UNL     1       6.959   4.635  15.452  0.00  0.00    +0.000 C 
ENDBRANCH  25  30
ENDBRANCH  19  27
BRANCH  24  31
ATOM     31  O   UNL     1       4.514   2.722  18.778  0.00  0.00    +0.000 OA
ATOM     32  H   UNL     1       3.946   2.033  19.168  0.00  0.00    +0.000 HD
ENDBRANCH  24  31
ENDBRANCH   1  21
TORSDOF 8
ENDMDL
MODEL 8
REMARK VINA RESULT:      -7.5      2.201      3.700
REMARK  Name = 
REMARK  10 active torsions:
REMARK  status: ('A' for Active; 'I' for Inactive)
REMARK    1  A    between atoms: C_1  and  C_2
REMARK    2  A    between atoms: C_2  and  C_3
REMARK    3  A    between atoms: N_5  and  C_6
REMARK    4  A    between atoms: C_8  and  N_9
REMARK    5  A    between atoms: N_9  and  C_10
REMARK    6  A    between atoms: C_10  and  O_11
REMARK    7  A    between atoms: C_18  and  C_19
REMARK    8  A    between atoms: C_19  and  C_20
REMARK    9  A    between atoms: C_22  and  O_23
REMARK   10  A    between atoms: C_26  and  O_27
REMARK                            x       y       z     vdW  Elec       q    Type
REMARK                         _______ _______ _______ _____ _____    ______ ____
ROOT
ATOM      1  N   UNL     1       2.007   7.850  19.736  0.00  0.00    +0.000 N 
ATOM      2  H   UNL     1       2.374   8.410  18.959  0.00  0.00    +0.000 HD
ENDROOT
BRANCH   1   3
ATOM      3  C   UNL     1       1.434   8.593  20.747  0.00  0.00    +0.000 C 
ATOM      4  C   UNL     1       0.641   9.684  20.613  0.00  0.00    +0.000 C 
ATOM      5  C   UNL     1       0.289  10.155  19.254  0.00  0.00    +0.000 C 
ATOM      6  O   UNL     1       0.824   9.700  18.246  0.00  0.00    +0.000 OA
ATOM      7  O   UNL     1      -0.667  11.103  19.144  0.00  0.00    +0.000 OA
ATOM      8  C   UNL     1      -1.284  11.671  20.202  0.00  0.00    +0.000 C 
ATOM      9  O   UNL     1      -2.265  12.384  20.015  0.00  0.00    +0.000 OA
ATOM     10  C   UNL     1      -0.770  11.448  21.557  0.00  0.00    +0.000 C 
ATOM     11  C   UNL     1       0.147  10.483  21.724  0.00  0.00    +0.000 C 
BRANCH  10  12
ATOM     12  C   UNL     1      -1.289  12.188  22.755  0.00  0.00    +0.000 C 
ATOM     13  C   UNL     1      -2.685  11.942  23.271  0.00  0.00    +0.000 C 
ATOM     14  O   UNL     1      -0.595  13.021  23.347  0.00  0.00    +0.000 OA
ENDBRANCH  10  12
BRANCH   3  15
ATOM     15  O   UNL     1       1.810   8.215  22.030  0.00  0.00    +0.000 OA
ATOM     16  H   UNL     1       1.414   8.905  22.596  0.00  0.00    +0.000 HD
ENDBRANCH   3  15
BRANCH  11  17
ATOM     17  O   UNL     1       0.687  10.228  22.971  0.00  0.00    +0.000 OA
ATOM     18  H   UNL     1       1.168   9.376  22.935  0.00  0.00    +0.000 HD
ENDBRANCH  11  17
ENDBRANCH   1   3
BRANCH   1  21
ATOM     19  C   UNL     1       3.169   4.656  18.229  0.00  0.00    +0.000 A 
ATOM     20  C   UNL     1       2.884   6.012  18.439  0.00  0.00    +0.000 A 
ATOM     21  C   UNL     1       2.146   6.457  19.549  0.00  0.00    +0.000 A 
ATOM     22  C   UNL     1       1.687   5.492  20.454  0.00  0.00    +0.000 A 
ATOM     23  C   UNL     1       1.951   4.131  20.260  0.00  0.00    +0.000 A 
ATOM     24  C   UNL     1       2.689   3.719  19.149  0.00  0.00    +0.000 A 
BRANCH  19  27
ATOM     25  C   UNL     1       5.269   4.350  16.913  0.00  0.00    +0.000 C 
ATOM     26  O   UNL     1       6.049   4.857  17.713  0.00  0.00    +0.000 OA
ATOM     27  N   UNL     1       3.914   4.179  17.124  0.00  0.00    +0.000 N 
ATOM     28  H   UNL     1       3.389   3.580  16.492  0.00  0.00    +0.000 HD
BRANCH  25  30
ATOM     29  C   UNL     1       6.917   4.684  15.067  0.00  0.00    +0.000 C 
ATOM     30  C   UNL     1       5.741   3.852  15.563  0.00  0.00    +0.000 C 
ENDBRANCH  25  30
ENDBRANCH  19  27
BRANCH  24  31
ATOM     31  O   UNL     1       2.964   2.395  18.947  0.00  0.00    +0.000 OA
ATOM     32  H   UNL     1       3.158   2.259  18.001  0.00  0.00    +0.000 HD
ENDBRANCH  24  31
ENDBRANCH   1  21
TORSDOF 8
ENDMDL
MODEL 9
REMARK VINA RESULT:      -7.5      2.912      8.305
REMARK  Name = 
REMARK  10 active torsions:
REMARK  status: ('A' for Active; 'I' for Inactive)
REMARK    1  A    between atoms: C_1  and  C_2
REMARK    2  A    between atoms: C_2  and  C_3
REMARK    3  A    between atoms: N_5  and  C_6
REMARK    4  A    between atoms: C_8  and  N_9
REMARK    5  A    between atoms: N_9  and  C_10
REMARK    6  A    between atoms: C_10  and  O_11
REMARK    7  A    between atoms: C_18  and  C_19
REMARK    8  A    between atoms: C_19  and  C_20
REMARK    9  A    between atoms: C_22  and  O_23
REMARK   10  A    between atoms: C_26  and  O_27
REMARK                            x       y       z     vdW  Elec       q    Type
REMARK                         _______ _______ _______ _____ _____    ______ ____
ROOT
ATOM      1  N   UNL     1       1.523   8.509  19.283  0.00  0.00    +0.000 N 
ATOM      2  H   UNL     1       1.325   7.927  20.104  0.00  0.00    +0.000 HD
ENDROOT
BRANCH   1   3
ATOM      3  C   UNL     1       2.418   7.948  18.396  0.00  0.00    +0.000 C 
ATOM      4  C   UNL     1       3.031   6.744  18.504  0.00  0.00    +0.000 C 
ATOM      5  C   UNL     1       2.717   5.876  19.663  0.00  0.00    +0.000 C 
ATOM      6  O   UNL     1       2.054   6.276  20.616  0.00  0.00    +0.000 OA
ATOM      7  O   UNL     1       3.170   4.605  19.638  0.00  0.00    +0.000 OA
ATOM      8  C   UNL     1       3.925   4.096  18.641  0.00  0.00    +0.000 C 
ATOM      9  O   UNL     1       4.138   2.889  18.602  0.00  0.00    +0.000 OA
ATOM     10  C   UNL     1       4.496   4.989  17.627  0.00  0.00    +0.000 C 
ATOM     11  C   UNL     1       4.042   6.250  17.581  0.00  0.00    +0.000 C 
BRANCH  10  12
ATOM     12  C   UNL     1       5.489   4.523  16.601  0.00  0.00    +0.000 C 
ATOM     13  C   UNL     1       6.961   4.456  16.923  0.00  0.00    +0.000 C 
ATOM     14  O   UNL     1       5.130   4.188  15.467  0.00  0.00    +0.000 OA
ENDBRANCH  10  12
BRANCH   3  15
ATOM     15  O   UNL     1       2.784   8.773  17.340  0.00  0.00    +0.000 OA
ATOM     16  H   UNL     1       3.048   8.144  16.641  0.00  0.00    +0.000 HD
ENDBRANCH   3  15
BRANCH  11  17
ATOM     17  O   UNL     1       4.547   7.151  16.660  0.00  0.00    +0.000 OA
ATOM     18  H   UNL     1       4.535   8.045  17.059  0.00  0.00    +0.000 HD
ENDBRANCH  11  17
ENDBRANCH   1   3
BRANCH   1  21
ATOM     19  C   UNL     1      -0.958  11.030  18.139  0.00  0.00    +0.000 A 
ATOM     20  C   UNL     1      -0.113   9.914  18.197  0.00  0.00    +0.000 A 
ATOM     21  C   UNL     1       0.794   9.718  19.252  0.00  0.00    +0.000 A 
ATOM     22  C   UNL     1       0.839  10.689  20.260  0.00  0.00    +0.000 A 
ATOM     23  C   UNL     1       0.011  11.817  20.219  0.00  0.00    +0.000 A 
ATOM     24  C   UNL     1      -0.882  11.983  19.160  0.00  0.00    +0.000 A 
BRANCH  19  27
ATOM     25  C   UNL     1      -2.999  10.483  16.807  0.00  0.00    +0.000 C 
ATOM     26  O   UNL     1      -3.404   9.547  17.490  0.00  0.00    +0.000 OA
ATOM     27  N   UNL     1      -1.886  11.252  17.093  0.00  0.00    +0.000 N 
ATOM     28  H   UNL     1      -1.741  12.117  16.581  0.00  0.00    +0.000 HD
BRANCH  25  30
ATOM     29  C   UNL     1      -3.197  10.075  14.351  0.00  0.00    +0.000 C 
ATOM     30  C   UNL     1      -3.707  10.891  15.532  0.00  0.00    +0.000 C 
ENDBRANCH  25  30
ENDBRANCH  19  27
BRANCH  24  31
ATOM     31  O   UNL     1      -1.705  13.074  19.106  0.00  0.00    +0.000 OA
ATOM     32  H   UNL     1      -1.749  13.386  18.183  0.00  0.00    +0.000 HD
ENDBRANCH  24  31
ENDBRANCH   1  21
TORSDOF 8
ENDMDL
