MODEL 1
REMARK VINA RESULT:      -6.6      0.000      0.000
REMARK  Name = 
REMARK  4 active torsions:
REMARK  status: ('A' for Active; 'I' for Inactive)
REMARK    1  A    between atoms: C_1  and  C_2
REMARK    2  A    between atoms: C_2  and  N_3
REMARK    3  A    between atoms: C_2  and  C_4
REMARK    4  A    between atoms: C_22  and  C_23
REMARK                            x       y       z     vdW  Elec       q    Type
REMARK                         _______ _______ _______ _____ _____    ______ ____
ROOT
ATOM      1  C   UNL     1       2.450  16.939  21.922  0.00  0.00    +0.000 C 
ATOM      2  O   UNL     1       3.046  17.407  20.945  0.00  0.00    +0.000 OA
ATOM      3  N   UNL     1       1.148  16.489  21.821  0.00  0.00    +0.000 N 
ATOM      4  C   UNL     1       0.532  16.334  20.490  0.00  0.00    +0.000 C 
ATOM      5  C   UNL     1      -0.055  14.914  20.297  0.00  0.00    +0.000 C 
ATOM      6  N   UNL     1      -0.904  14.583  21.441  0.00  0.00    +0.000 N 
ATOM      7  C   UNL     1      -2.152  14.044  21.283  0.00  0.00    +0.000 A 
ATOM      8  N   UNL     1      -3.049  14.235  22.233  0.00  0.00    +0.000 NA
ATOM      9  C   UNL     1      -4.260  13.727  22.062  0.00  0.00    +0.000 A 
ATOM     10  N   UNL     1      -5.207  13.920  23.031  0.00  0.00    +0.000 N 
ATOM     11  C   UNL     1      -6.286  12.966  23.249  0.00  0.00    +0.000 C 
ATOM     12  C   UNL     1      -7.623  13.714  23.348  0.00  0.00    +0.000 C 
ATOM     13  O   UNL     1      -7.567  14.780  24.315  0.00  0.00    +0.000 OA
ATOM     14  C   UNL     1      -6.536  15.721  23.967  0.00  0.00    +0.000 C 
ATOM     15  C   UNL     1      -5.150  15.053  23.943  0.00  0.00    +0.000 C 
ATOM     16  N   UNL     1      -4.608  13.039  20.986  0.00  0.00    +0.000 NA
ATOM     17  C   UNL     1      -3.658  12.889  20.069  0.00  0.00    +0.000 A 
ATOM     18  N   UNL     1      -3.985  12.124  18.916  0.00  0.00    +0.000 N 
ATOM     19  C   UNL     1      -5.224  11.990  18.308  0.00  0.00    +0.000 A 
ATOM     20  N   UNL     1      -5.166  11.163  17.274  0.00  0.00    +0.000 NA
ATOM     21  C   UNL     1      -3.870  10.732  17.209  0.00  0.00    +0.000 A 
ATOM     22  C   UNL     1      -3.287   9.813  16.326  0.00  0.00    +0.000 A 
ATOM     23  C   UNL     1      -1.936   9.483  16.485  0.00  0.00    +0.000 A 
ATOM     24  C   UNL     1      -1.178  10.064  17.499  0.00  0.00    +0.000 A 
ATOM     25  C   UNL     1      -1.739  10.996  18.377  0.00  0.00    +0.000 A 
ATOM     26  C   UNL     1      -3.096  11.321  18.205  0.00  0.00    +0.000 A 
ATOM     27  N   UNL     1      -2.414  13.360  20.180  0.00  0.00    +0.000 NA
ATOM     28  C   UNL     1      -0.322  14.731  22.774  0.00  0.00    +0.000 C 
ATOM     29  C   UNL     1       0.250  16.148  22.935  0.00  0.00    +0.000 C 
ENDROOT
BRANCH  19  30
ATOM     30  C   UNL     1      -6.432  12.768  18.700  0.00  0.00    +0.000 C 
ATOM     31  F   UNL     1      -6.460  14.001  18.128  0.00  0.00    +0.000 F 
ATOM     32  F   UNL     1      -7.595  12.144  18.368  0.00  0.00    +0.000 F 
ENDBRANCH  19  30
BRANCH   1  34
ATOM     33  C   UNL     1       4.322  17.769  23.465  0.00  0.00    +0.000 C 
ATOM     34  C   UNL     1       3.208  16.751  23.265  0.00  0.00    +0.000 C 
BRANCH  34  35
ATOM     35  N   UNL     1       3.806  15.394  23.277  0.00  0.00    +0.000 NA
ATOM     36  H   UNL     1       3.031  14.729  23.369  0.00  0.00    +0.000 HD
ATOM     37  H   UNL     1       4.311  15.283  24.160  0.00  0.00    +0.000 HD
ENDBRANCH  34  35
ENDBRANCH   1  34
TORSDOF 3
ENDMDL
MODEL 2
REMARK VINA RESULT:      -6.2      2.842      3.645
REMARK  Name = 
REMARK  4 active torsions:
REMARK  status: ('A' for Active; 'I' for Inactive)
REMARK    1  A    between atoms: C_1  and  C_2
REMARK    2  A    between atoms: C_2  and  N_3
REMARK    3  A    between atoms: C_2  and  C_4
REMARK    4  A    between atoms: C_22  and  C_23
REMARK                            x       y       z     vdW  Elec       q    Type
REMARK                         _______ _______ _______ _____ _____    ______ ____
ROOT
ATOM      1  C   UNL     1       5.569  15.295  18.944  0.00  0.00    +0.000 C 
ATOM      2  O   UNL     1       5.741  15.534  17.743  0.00  0.00    +0.000 OA
ATOM      3  N   UNL     1       4.305  15.293  19.503  0.00  0.00    +0.000 N 
ATOM      4  C   UNL     1       3.121  15.337  18.625  0.00  0.00    +0.000 C 
ATOM      5  C   UNL     1       2.136  14.184  18.942  0.00  0.00    +0.000 C 
ATOM      6  N   UNL     1       1.871  14.158  20.380  0.00  0.00    +0.000 N 
ATOM      7  C   UNL     1       0.600  14.055  20.878  0.00  0.00    +0.000 A 
ATOM      8  N   UNL     1       0.351  14.536  22.082  0.00  0.00    +0.000 NA
ATOM      9  C   UNL     1      -0.885  14.450  22.549  0.00  0.00    +0.000 A 
ATOM     10  N   UNL     1      -1.167  14.950  23.791  0.00  0.00    +0.000 N 
ATOM     11  C   UNL     1      -2.236  14.402  24.614  0.00  0.00    +0.000 C 
ATOM     12  C   UNL     1      -3.094  15.546  25.172  0.00  0.00    +0.000 C 
ATOM     13  O   UNL     1      -2.290  16.544  25.829  0.00  0.00    +0.000 OA
ATOM     14  C   UNL     1      -1.325  17.094  24.915  0.00  0.00    +0.000 C 
ATOM     15  C   UNL     1      -0.368  16.010  24.389  0.00  0.00    +0.000 C 
ATOM     16  N   UNL     1      -1.877  13.904  21.863  0.00  0.00    +0.000 NA
ATOM     17  C   UNL     1      -1.557  13.444  20.658  0.00  0.00    +0.000 A 
ATOM     18  N   UNL     1      -2.590  12.817  19.908  0.00  0.00    +0.000 N 
ATOM     19  C   UNL     1      -3.949  13.090  19.940  0.00  0.00    +0.000 A 
ATOM     20  N   UNL     1      -4.621  12.280  19.135  0.00  0.00    +0.000 NA
ATOM     21  C   UNL     1      -3.691  11.449  18.575  0.00  0.00    +0.000 A 
ATOM     22  C   UNL     1      -3.881  10.382  17.686  0.00  0.00    +0.000 A 
ATOM     23  C   UNL     1      -2.771   9.631  17.282  0.00  0.00    +0.000 A 
ATOM     24  C   UNL     1      -1.496   9.942  17.749  0.00  0.00    +0.000 A 
ATOM     25  C   UNL     1      -1.287  11.014  18.621  0.00  0.00    +0.000 A 
ATOM     26  C   UNL     1      -2.410  11.762  19.017  0.00  0.00    +0.000 A 
ATOM     27  N   UNL     1      -0.332  13.484  20.131  0.00  0.00    +0.000 NA
ATOM     28  C   UNL     1       3.025  14.120  21.276  0.00  0.00    +0.000 C 
ATOM     29  C   UNL     1       3.982  15.274  20.937  0.00  0.00    +0.000 C 
ENDROOT
BRANCH  19  30
ATOM     30  C   UNL     1      -4.553  14.223  20.696  0.00  0.00    +0.000 C 
ATOM     31  F   UNL     1      -5.522  14.858  19.984  0.00  0.00    +0.000 F 
ATOM     32  F   UNL     1      -5.109  13.836  21.876  0.00  0.00    +0.000 F 
ENDBRANCH  19  30
BRANCH   1  34
ATOM     33  C   UNL     1       7.468  16.070  20.482  0.00  0.00    +0.000 C 
ATOM     34  C   UNL     1       6.780  14.881  19.825  0.00  0.00    +0.000 C 
BRANCH  34  35
ATOM     35  N   UNL     1       7.768  14.186  18.964  0.00  0.00    +0.000 NA
ATOM     36  H   UNL     1       7.322  13.322  18.640  0.00  0.00    +0.000 HD
ATOM     37  H   UNL     1       8.520  13.845  19.566  0.00  0.00    +0.000 HD
ENDBRANCH  34  35
ENDBRANCH   1  34
TORSDOF 3
ENDMDL
MODEL 3
REMARK VINA RESULT:      -6.2      6.877     11.634
REMARK  Name = 
REMARK  4 active torsions:
REMARK  status: ('A' for Active; 'I' for Inactive)
REMARK    1  A    between atoms: C_1  and  C_2
REMARK    2  A    between atoms: C_2  and  N_3
REMARK    3  A    between atoms: C_2  and  C_4
REMARK    4  A    between atoms: C_22  and  C_23
REMARK                            x       y       z     vdW  Elec       q    Type
REMARK                         _______ _______ _______ _____ _____    ______ ____
ROOT
ATOM      1  C   UNL     1       0.658  16.457  19.566  0.00  0.00    +0.000 C 
ATOM      2  O   UNL     1       0.271  16.263  18.408  0.00  0.00    +0.000 OA
ATOM      3  N   UNL     1       1.785  15.830  20.062  0.00  0.00    +0.000 N 
ATOM      4  C   UNL     1       2.682  15.107  19.140  0.00  0.00    +0.000 C 
ATOM      5  C   UNL     1       4.148  15.585  19.284  0.00  0.00    +0.000 C 
ATOM      6  N   UNL     1       4.525  15.566  20.697  0.00  0.00    +0.000 N 
ATOM      7  C   UNL     1       5.705  15.018  21.121  0.00  0.00    +0.000 A 
ATOM      8  N   UNL     1       5.782  14.562  22.358  0.00  0.00    +0.000 NA
ATOM      9  C   UNL     1       6.921  14.014  22.755  0.00  0.00    +0.000 A 
ATOM     10  N   UNL     1       7.020  13.528  24.030  0.00  0.00    +0.000 N 
ATOM     11  C   UNL     1       8.292  13.484  24.737  0.00  0.00    +0.000 C 
ATOM     12  C   UNL     1       8.478  12.101  25.378  0.00  0.00    +0.000 C 
ATOM     13  O   UNL     1       7.340  11.726  26.176  0.00  0.00    +0.000 OA
ATOM     14  C   UNL     1       6.146  11.707  25.374  0.00  0.00    +0.000 C 
ATOM     15  C   UNL     1       5.848  13.094  24.777  0.00  0.00    +0.000 C 
ATOM     16  N   UNL     1       7.980  13.906  21.968  0.00  0.00    +0.000 NA
ATOM     17  C   UNL     1       7.832  14.381  20.736  0.00  0.00    +0.000 A 
ATOM     18  N   UNL     1       8.961  14.315  19.875  0.00  0.00    +0.000 N 
ATOM     19  C   UNL     1       9.976  13.368  19.875  0.00  0.00    +0.000 A 
ATOM     20  N   UNL     1      10.889  13.643  18.955  0.00  0.00    +0.000 NA
ATOM     21  C   UNL     1      10.479  14.799  18.351  0.00  0.00    +0.000 A 
ATOM     22  C   UNL     1      11.110  15.541  17.342  0.00  0.00    +0.000 A 
ATOM     23  C   UNL     1      10.520  16.735  16.910  0.00  0.00    +0.000 A 
ATOM     24  C   UNL     1       9.322  17.177  17.466  0.00  0.00    +0.000 A 
ATOM     25  C   UNL     1       8.671  16.440  18.460  0.00  0.00    +0.000 A 
ATOM     26  C   UNL     1       9.272  15.241  18.883  0.00  0.00    +0.000 A 
ATOM     27  N   UNL     1       6.721  14.957  20.274  0.00  0.00    +0.000 NA
ATOM     28  C   UNL     1       3.654  16.270  21.635  0.00  0.00    +0.000 C 
ATOM     29  C   UNL     1       2.208  15.774  21.469  0.00  0.00    +0.000 C 
ENDROOT
BRANCH  19  30
ATOM     30  C   UNL     1       9.970  12.142  20.721  0.00  0.00    +0.000 C 
ATOM     31  F   UNL     1       9.205  11.152  20.189  0.00  0.00    +0.000 F 
ATOM     32  F   UNL     1      11.216  11.628  20.915  0.00  0.00    +0.000 F 
ENDBRANCH  19  30
BRANCH   1  34
ATOM     33  C   UNL     1      -1.291  16.941  21.160  0.00  0.00    +0.000 C 
ATOM     34  C   UNL     1      -0.068  17.507  20.451  0.00  0.00    +0.000 C 
BRANCH  34  35
ATOM     35  N   UNL     1      -0.507  18.626  19.582  0.00  0.00    +0.000 NA
ATOM     36  H   UNL     1      -0.223  19.493  20.050  0.00  0.00    +0.000 HD
ATOM     37  H   UNL     1      -1.528  18.668  19.620  0.00  0.00    +0.000 HD
ENDBRANCH  34  35
ENDBRANCH   1  34
TORSDOF 3
ENDMDL
MODEL 4
REMARK VINA RESULT:      -6.1      4.045      7.283
REMARK  Name = 
REMARK  4 active torsions:
REMARK  status: ('A' for Active; 'I' for Inactive)
REMARK    1  A    between atoms: C_1  and  C_2
REMARK    2  A    between atoms: C_2  and  N_3
REMARK    3  A    between atoms: C_2  and  C_4
REMARK    4  A    between atoms: C_22  and  C_23
REMARK                            x       y       z     vdW  Elec       q    Type
REMARK                         _______ _______ _______ _____ _____    ______ ____
ROOT
ATOM      1  C   UNL     1       7.514  15.943  21.533  0.00  0.00    +0.000 C 
ATOM      2  O   UNL     1       8.051  16.129  22.630  0.00  0.00    +0.000 OA
ATOM      3  N   UNL     1       6.319  15.258  21.424  0.00  0.00    +0.000 N 
ATOM      4  C   UNL     1       5.543  14.950  22.639  0.00  0.00    +0.000 C 
ATOM      5  C   UNL     1       4.079  15.443  22.519  0.00  0.00    +0.000 C 
ATOM      6  N   UNL     1       3.513  14.970  21.256  0.00  0.00    +0.000 N 
ATOM      7  C   UNL     1       2.277  14.386  21.193  0.00  0.00    +0.000 A 
ATOM      8  N   UNL     1       2.024  13.543  20.208  0.00  0.00    +0.000 NA
ATOM      9  C   UNL     1       0.833  12.967  20.166  0.00  0.00    +0.000 A 
ATOM     10  N   UNL     1       0.553  12.084  19.159  0.00  0.00    +0.000 N 
ATOM     11  C   UNL     1      -0.804  11.884  18.670  0.00  0.00    +0.000 C 
ATOM     12  C   UNL     1      -1.100  10.381  18.574  0.00  0.00    +0.000 C 
ATOM     13  O   UNL     1      -0.088   9.685  17.822  0.00  0.00    +0.000 OA
ATOM     14  C   UNL     1       1.203   9.863  18.431  0.00  0.00    +0.000 C 
ATOM     15  C   UNL     1       1.604  11.348  18.471  0.00  0.00    +0.000 C 
ATOM     16  N   UNL     1      -0.112  13.200  21.064  0.00  0.00    +0.000 NA
ATOM     17  C   UNL     1       0.211  14.055  22.029  0.00  0.00    +0.000 A 
ATOM     18  N   UNL     1      -0.792  14.357  22.990  0.00  0.00    +0.000 N 
ATOM     19  C   UNL     1      -1.814  13.533  23.440  0.00  0.00    +0.000 A 
ATOM     20  N   UNL     1      -2.589  14.162  24.312  0.00  0.00    +0.000 NA
ATOM     21  C   UNL     1      -2.080  15.426  24.426  0.00  0.00    +0.000 A 
ATOM     22  C   UNL     1      -2.554  16.505  25.185  0.00  0.00    +0.000 A 
ATOM     23  C   UNL     1      -1.890  17.734  25.104  0.00  0.00    +0.000 A 
ATOM     24  C   UNL     1      -0.770  17.884  24.288  0.00  0.00    +0.000 A 
ATOM     25  C   UNL     1      -0.274  16.814  23.539  0.00  0.00    +0.000 A 
ATOM     26  C   UNL     1      -0.948  15.583  23.631  0.00  0.00    +0.000 A 
ATOM     27  N   UNL     1       1.385  14.682  22.126  0.00  0.00    +0.000 NA
ATOM     28  C   UNL     1       4.262  15.256  20.034  0.00  0.00    +0.000 C 
ATOM     29  C   UNL     1       5.708  14.755  20.184  0.00  0.00    +0.000 C 
ENDROOT
BRANCH  19  30
ATOM     30  C   UNL     1      -1.946  12.095  23.075  0.00  0.00    +0.000 C 
ATOM     31  F   UNL     1      -0.861  11.367  23.450  0.00  0.00    +0.000 F 
ATOM     32  F   UNL     1      -3.038  11.506  23.632  0.00  0.00    +0.000 F 
ENDBRANCH  19  30
BRANCH   1  34
ATOM     33  C   UNL     1       9.320  15.796  19.718  0.00  0.00    +0.000 C 
ATOM     34  C   UNL     1       8.132  16.582  20.258  0.00  0.00    +0.000 C 
BRANCH  34  35
ATOM     35  N   UNL     1       8.592  17.950  20.598  0.00  0.00    +0.000 NA
ATOM     36  H   UNL     1       9.232  17.859  21.394  0.00  0.00    +0.000 HD
ATOM     37  H   UNL     1       7.798  18.456  20.997  0.00  0.00    +0.000 HD
ENDBRANCH  34  35
ENDBRANCH   1  34
TORSDOF 3
ENDMDL
MODEL 5
REMARK VINA RESULT:      -6.1      3.471      6.982
REMARK  Name = 
REMARK  4 active torsions:
REMARK  status: ('A' for Active; 'I' for Inactive)
REMARK    1  A    between atoms: C_1  and  C_2
REMARK    2  A    between atoms: C_2  and  N_3
REMARK    3  A    between atoms: C_2  and  C_4
REMARK    4  A    between atoms: C_22  and  C_23
REMARK                            x       y       z     vdW  Elec       q    Type
REMARK                         _______ _______ _______ _____ _____    ______ ____
ROOT
ATOM      1  C   UNL     1       1.461   8.708  19.524  0.00  0.00    +0.000 C 
ATOM      2  O   UNL     1       2.180   8.184  20.383  0.00  0.00    +0.000 OA
ATOM      3  N   UNL     1       0.408   9.532  19.873  0.00  0.00    +0.000 N 
ATOM      4  C   UNL     1       0.274   9.992  21.268  0.00  0.00    +0.000 C 
ATOM      5  C   UNL     1       0.154  11.534  21.348  0.00  0.00    +0.000 C 
ATOM      6  N   UNL     1      -0.881  11.986  20.418  0.00  0.00    +0.000 N 
ATOM      7  C   UNL     1      -1.845  12.883  20.792  0.00  0.00    +0.000 A 
ATOM      8  N   UNL     1      -3.000  12.873  20.152  0.00  0.00    +0.000 NA
ATOM      9  C   UNL     1      -3.935  13.731  20.533  0.00  0.00    +0.000 A 
ATOM     10  N   UNL     1      -5.142  13.732  19.889  0.00  0.00    +0.000 N 
ATOM     11  C   UNL     1      -5.956  14.935  19.788  0.00  0.00    +0.000 C 
ATOM     12  C   UNL     1      -7.407  14.610  20.168  0.00  0.00    +0.000 C 
ATOM     13  O   UNL     1      -7.914  13.485  19.425  0.00  0.00    +0.000 OA
ATOM     14  C   UNL     1      -7.103  12.321  19.660  0.00  0.00    +0.000 C 
ATOM     15  C   UNL     1      -5.649  12.549  19.209  0.00  0.00    +0.000 C 
ATOM     16  N   UNL     1      -3.761  14.593  21.522  0.00  0.00    +0.000 NA
ATOM     17  C   UNL     1      -2.577  14.546  22.124  0.00  0.00    +0.000 A 
ATOM     18  N   UNL     1      -2.342  15.483  23.167  0.00  0.00    +0.000 N 
ATOM     19  C   UNL     1      -3.269  16.036  24.038  0.00  0.00    +0.000 A 
ATOM     20  N   UNL     1      -2.698  16.907  24.858  0.00  0.00    +0.000 NA
ATOM     21  C   UNL     1      -1.376  16.940  24.511  0.00  0.00    +0.000 A 
ATOM     22  C   UNL     1      -0.344  17.729  25.038  0.00  0.00    +0.000 A 
ATOM     23  C   UNL     1       0.937  17.627  24.482  0.00  0.00    +0.000 A 
ATOM     24  C   UNL     1       1.187  16.750  23.429  0.00  0.00    +0.000 A 
ATOM     25  C   UNL     1       0.173  15.944  22.904  0.00  0.00    +0.000 A 
ATOM     26  C   UNL     1      -1.109  16.053  23.472  0.00  0.00    +0.000 A 
ATOM     27  N   UNL     1      -1.586  13.720  21.785  0.00  0.00    +0.000 NA
ATOM     28  C   UNL     1      -0.777  11.543  19.030  0.00  0.00    +0.000 C 
ATOM     29  C   UNL     1      -0.660  10.010  18.983  0.00  0.00    +0.000 C 
ENDROOT
BRANCH  19  30
ATOM     30  C   UNL     1      -4.696  15.615  24.112  0.00  0.00    +0.000 C 
ATOM     31  F   UNL     1      -4.833  14.330  24.534  0.00  0.00    +0.000 F 
ATOM     32  F   UNL     1      -5.435  16.394  24.949  0.00  0.00    +0.000 F 
ENDBRANCH  19  30
BRANCH   1  34
ATOM     33  C   UNL     1       2.968   7.569  17.790  0.00  0.00    +0.000 C 
ATOM     34  C   UNL     1       1.810   8.531  18.020  0.00  0.00    +0.000 C 
BRANCH  34  35
ATOM     35  N   UNL     1       2.186   9.856  17.469  0.00  0.00    +0.000 NA
ATOM     36  H   UNL     1       1.802  10.561  18.106  0.00  0.00    +0.000 HD
ATOM     37  H   UNL     1       1.647  10.001  16.612  0.00  0.00    +0.000 HD
ENDBRANCH  34  35
ENDBRANCH   1  34
TORSDOF 3
ENDMDL
MODEL 6
REMARK VINA RESULT:      -6.1      7.559     12.193
REMARK  Name = 
REMARK  4 active torsions:
REMARK  status: ('A' for Active; 'I' for Inactive)
REMARK    1  A    between atoms: C_1  and  C_2
REMARK    2  A    between atoms: C_2  and  N_3
REMARK    3  A    between atoms: C_2  and  C_4
REMARK    4  A    between atoms: C_22  and  C_23
REMARK                            x       y       z     vdW  Elec       q    Type
REMARK                         _______ _______ _______ _____ _____    ______ ____
ROOT
ATOM      1  C   UNL     1       1.601  17.036  18.417  0.00  0.00    +0.000 C 
ATOM      2  O   UNL     1       1.364  16.971  17.206  0.00  0.00    +0.000 OA
ATOM      3  N   UNL     1       2.640  16.323  18.986  0.00  0.00    +0.000 N 
ATOM      4  C   UNL     1       3.632  15.664  18.116  0.00  0.00    +0.000 C 
ATOM      5  C   UNL     1       5.078  16.072  18.493  0.00  0.00    +0.000 C 
ATOM      6  N   UNL     1       5.268  15.901  19.932  0.00  0.00    +0.000 N 
ATOM      7  C   UNL     1       6.370  15.271  20.445  0.00  0.00    +0.000 A 
ATOM      8  N   UNL     1       6.275  14.693  21.628  0.00  0.00    +0.000 NA
ATOM      9  C   UNL     1       7.340  14.069  22.108  0.00  0.00    +0.000 A 
ATOM     10  N   UNL     1       7.261  13.456  23.329  0.00  0.00    +0.000 N 
ATOM     11  C   UNL     1       8.430  13.296  24.184  0.00  0.00    +0.000 C 
ATOM     12  C   UNL     1       8.499  11.851  24.697  0.00  0.00    +0.000 C 
ATOM     13  O   UNL     1       7.259  11.440  25.302  0.00  0.00    +0.000 OA
ATOM     14  C   UNL     1       6.179  11.543  24.357  0.00  0.00    +0.000 C 
ATOM     15  C   UNL     1       5.993  12.992  23.873  0.00  0.00    +0.000 C 
ATOM     16  N   UNL     1       8.490  14.000  21.455  0.00  0.00    +0.000 NA
ATOM     17  C   UNL     1       8.513  14.600  20.269  0.00  0.00    +0.000 A 
ATOM     18  N   UNL     1       9.743  14.578  19.556  0.00  0.00    +0.000 N 
ATOM     19  C   UNL     1      10.727  13.600  19.587  0.00  0.00    +0.000 A 
ATOM     20  N   UNL     1      11.758  13.932  18.824  0.00  0.00    +0.000 NA
ATOM     21  C   UNL     1      11.457  15.156  18.294  0.00  0.00    +0.000 A 
ATOM     22  C   UNL     1      12.229  15.971  17.455  0.00  0.00    +0.000 A 
ATOM     23  C   UNL     1      11.729  17.222  17.076  0.00  0.00    +0.000 A 
ATOM     24  C   UNL     1      10.479  17.649  17.518  0.00  0.00    +0.000 A 
ATOM     25  C   UNL     1       9.688  16.842  18.341  0.00  0.00    +0.000 A 
ATOM     26  C   UNL     1      10.201  15.586  18.712  0.00  0.00    +0.000 A 
ATOM     27  N   UNL     1       7.485  15.258  19.731  0.00  0.00    +0.000 NA
ATOM     28  C   UNL     1       4.298  16.539  20.819  0.00  0.00    +0.000 C 
ATOM     29  C   UNL     1       2.875  16.114  20.422  0.00  0.00    +0.000 C 
ENDROOT
BRANCH  19  30
ATOM     30  C   UNL     1      10.584  12.298  20.296  0.00  0.00    +0.000 C 
ATOM     31  F   UNL     1       9.799  11.423  19.613  0.00  0.00    +0.000 F 
ATOM     32  F   UNL     1      11.777  11.682  20.516  0.00  0.00    +0.000 F 
ENDBRANCH  19  30
BRANCH   1  34
ATOM     33  C   UNL     1       0.136  17.337  20.500  0.00  0.00    +0.000 C 
ATOM     34  C   UNL     1       0.790  18.019  19.306  0.00  0.00    +0.000 C 
BRANCH  34  35
ATOM     35  N   UNL     1      -0.275  18.631  18.474  0.00  0.00    +0.000 NA
ATOM     36  H   UNL     1       0.180  19.325  17.874  0.00  0.00    +0.000 HD
ATOM     37  H   UNL     1      -0.859  19.204  19.088  0.00  0.00    +0.000 HD
ENDBRANCH  34  35
ENDBRANCH   1  34
TORSDOF 3
ENDMDL
MODEL 7
REMARK VINA RESULT:      -6.0      2.309      2.719
REMARK  Name = 
REMARK  4 active torsions:
REMARK  status: ('A' for Active; 'I' for Inactive)
REMARK    1  A    between atoms: C_1  and  C_2
REMARK    2  A    between atoms: C_2  and  N_3
REMARK    3  A    between atoms: C_2  and  C_4
REMARK    4  A    between atoms: C_22  and  C_23
REMARK                            x       y       z     vdW  Elec       q    Type
REMARK                         _______ _______ _______ _____ _____    ______ ____
ROOT
ATOM      1  C   UNL     1       4.040  16.491  18.846  0.00  0.00    +0.000 C 
ATOM      2  O   UNL     1       4.085  17.055  17.747  0.00  0.00    +0.000 OA
ATOM      3  N   UNL     1       2.840  16.090  19.401  0.00  0.00    +0.000 N 
ATOM      4  C   UNL     1       1.615  16.111  18.579  0.00  0.00    +0.000 C 
ATOM      5  C   UNL     1       0.895  14.740  18.597  0.00  0.00    +0.000 C 
ATOM      6  N   UNL     1       0.734  14.299  19.982  0.00  0.00    +0.000 N 
ATOM      7  C   UNL     1      -0.458  13.816  20.452  0.00  0.00    +0.000 A 
ATOM      8  N   UNL     1      -0.717  13.917  21.743  0.00  0.00    +0.000 NA
ATOM      9  C   UNL     1      -1.881  13.465  22.186  0.00  0.00    +0.000 A 
ATOM     10  N   UNL     1      -2.173  13.567  23.518  0.00  0.00    +0.000 N 
ATOM     11  C   UNL     1      -3.061  12.623  24.183  0.00  0.00    +0.000 C 
ATOM     12  C   UNL     1      -4.086  13.389  25.031  0.00  0.00    +0.000 C 
ATOM     13  O   UNL     1      -3.450  14.332  25.915  0.00  0.00    +0.000 OA
ATOM     14  C   UNL     1      -2.670  15.279  25.164  0.00  0.00    +0.000 C 
ATOM     15  C   UNL     1      -1.557  14.581  24.362  0.00  0.00    +0.000 C 
ATOM     16  N   UNL     1      -2.790  12.920  21.393  0.00  0.00    +0.000 NA
ATOM     17  C   UNL     1      -2.466  12.854  20.106  0.00  0.00    +0.000 A 
ATOM     18  N   UNL     1      -3.404  12.241  19.232  0.00  0.00    +0.000 N 
ATOM     19  C   UNL     1      -4.786  12.213  19.351  0.00  0.00    +0.000 A 
ATOM     20  N   UNL     1      -5.339  11.513  18.371  0.00  0.00    +0.000 NA
ATOM     21  C   UNL     1      -4.303  11.058  17.602  0.00  0.00    +0.000 A 
ATOM     22  C   UNL     1      -4.340  10.235  16.468  0.00  0.00    +0.000 A 
ATOM     23  C   UNL     1      -3.134   9.853  15.869  0.00  0.00    +0.000 A 
ATOM     24  C   UNL     1      -1.915  10.289  16.385  0.00  0.00    +0.000 A 
ATOM     25  C   UNL     1      -1.862  11.125  17.504  0.00  0.00    +0.000 A 
ATOM     26  C   UNL     1      -3.081  11.504  18.095  0.00  0.00    +0.000 A 
ATOM     27  N   UNL     1      -1.308  13.275  19.593  0.00  0.00    +0.000 NA
ATOM     28  C   UNL     1       1.929  14.271  20.823  0.00  0.00    +0.000 C 
ATOM     29  C   UNL     1       2.620  15.644  20.784  0.00  0.00    +0.000 C 
ENDROOT
BRANCH  19  30
ATOM     30  C   UNL     1      -5.547  12.971  20.383  0.00  0.00    +0.000 C 
ATOM     31  F   UNL     1      -5.579  14.305  20.123  0.00  0.00    +0.000 F 
ATOM     32  F   UNL     1      -6.837  12.554  20.501  0.00  0.00    +0.000 F 
ENDBRANCH  19  30
BRANCH   1  34
ATOM     33  C   UNL     1       6.311  17.307  19.714  0.00  0.00    +0.000 C 
ATOM     34  C   UNL     1       5.363  16.124  19.575  0.00  0.00    +0.000 C 
BRANCH  34  35
ATOM     35  N   UNL     1       6.048  15.065  18.793  0.00  0.00    +0.000 NA
ATOM     36  H   UNL     1       6.075  15.386  17.820  0.00  0.00    +0.000 HD
ATOM     37  H   UNL     1       5.424  14.256  18.752  0.00  0.00    +0.000 HD
ENDBRANCH  34  35
ENDBRANCH   1  34
TORSDOF 3
ENDMDL
MODEL 8
REMARK VINA RESULT:      -5.9      4.797      9.137
REMARK  Name = 
REMARK  4 active torsions:
REMARK  status: ('A' for Active; 'I' for Inactive)
REMARK    1  A    between atoms: C_1  and  C_2
REMARK    2  A    between atoms: C_2  and  N_3
REMARK    3  A    between atoms: C_2  and  C_4
REMARK    4  A    between atoms: C_22  and  C_23
REMARK                            x       y       z     vdW  Elec       q    Type
REMARK                         _______ _______ _______ _____ _____    ______ ____
ROOT
ATOM      1  C   UNL     1      -1.624  10.739  17.780  0.00  0.00    +0.000 C 
ATOM      2  O   UNL     1      -1.170   9.637  17.452  0.00  0.00    +0.000 OA
ATOM      3  N   UNL     1      -1.002  11.517  18.737  0.00  0.00    +0.000 N 
ATOM      4  C   UNL     1       0.348  11.152  19.207  0.00  0.00    +0.000 C 
ATOM      5  C   UNL     1       1.332  12.343  19.088  0.00  0.00    +0.000 C 
ATOM      6  N   UNL     1       0.733  13.527  19.704  0.00  0.00    +0.000 N 
ATOM      7  C   UNL     1       1.433  14.320  20.573  0.00  0.00    +0.000 A 
ATOM      8  N   UNL     1       0.763  15.025  21.466  0.00  0.00    +0.000 NA
ATOM      9  C   UNL     1       1.448  15.774  22.315  0.00  0.00    +0.000 A 
ATOM     10  N   UNL     1       0.774  16.506  23.255  0.00  0.00    +0.000 N 
ATOM     11  C   UNL     1       1.310  17.750  23.788  0.00  0.00    +0.000 C 
ATOM     12  C   UNL     1       1.202  17.745  25.319  0.00  0.00    +0.000 C 
ATOM     13  O   UNL     1      -0.135  17.437  25.758  0.00  0.00    +0.000 OA
ATOM     14  C   UNL     1      -0.544  16.150  25.261  0.00  0.00    +0.000 C 
ATOM     15  C   UNL     1      -0.550  16.119  23.722  0.00  0.00    +0.000 C 
ATOM     16  N   UNL     1       2.770  15.847  22.307  0.00  0.00    +0.000 NA
ATOM     17  C   UNL     1       3.380  15.110  21.385  0.00  0.00    +0.000 A 
ATOM     18  N   UNL     1       4.798  15.192  21.323  0.00  0.00    +0.000 N 
ATOM     19  C   UNL     1       5.682  15.436  22.364  0.00  0.00    +0.000 A 
ATOM     20  N   UNL     1       6.933  15.483  21.931  0.00  0.00    +0.000 NA
ATOM     21  C   UNL     1       6.872  15.285  20.579  0.00  0.00    +0.000 A 
ATOM     22  C   UNL     1       7.910  15.285  19.638  0.00  0.00    +0.000 A 
ATOM     23  C   UNL     1       7.598  15.108  18.285  0.00  0.00    +0.000 A 
ATOM     24  C   UNL     1       6.278  14.927  17.878  0.00  0.00    +0.000 A 
ATOM     25  C   UNL     1       5.233  14.906  18.806  0.00  0.00    +0.000 A 
ATOM     26  C   UNL     1       5.560  15.082  20.163  0.00  0.00    +0.000 A 
ATOM     27  N   UNL     1       2.754  14.344  20.489  0.00  0.00    +0.000 NA
ATOM     28  C   UNL     1      -0.605  13.911  19.261  0.00  0.00    +0.000 C 
ATOM     29  C   UNL     1      -1.557  12.710  19.392  0.00  0.00    +0.000 C 
ENDROOT
BRANCH  19  30
ATOM     30  C   UNL     1       5.280  15.516  23.796  0.00  0.00    +0.000 C 
ATOM     31  F   UNL     1       5.127  14.287  24.358  0.00  0.00    +0.000 F 
ATOM     32  F   UNL     1       6.175  16.199  24.560  0.00  0.00    +0.000 F 
ENDBRANCH  19  30
BRANCH   1  34
ATOM     33  C   UNL     1      -4.160  10.634  17.418  0.00  0.00    +0.000 C 
ATOM     34  C   UNL     1      -2.856  11.315  17.028  0.00  0.00    +0.000 C 
BRANCH  34  35
ATOM     35  N   UNL     1      -2.645  11.126  15.572  0.00  0.00    +0.000 NA
ATOM     36  H   UNL     1      -1.818  10.530  15.468  0.00  0.00    +0.000 HD
ATOM     37  H   UNL     1      -2.337  12.020  15.183  0.00  0.00    +0.000 HD
ENDBRANCH  34  35
ENDBRANCH   1  34
TORSDOF 3
ENDMDL
MODEL 9
REMARK VINA RESULT:      -5.9      3.416      6.864
REMARK  Name = 
REMARK  4 active torsions:
REMARK  status: ('A' for Active; 'I' for Inactive)
REMARK    1  A    between atoms: C_1  and  C_2
REMARK    2  A    between atoms: C_2  and  N_3
REMARK    3  A    between atoms: C_2  and  C_4
REMARK    4  A    between atoms: C_22  and  C_23
REMARK                            x       y       z     vdW  Elec       q    Type
REMARK                         _______ _______ _______ _____ _____    ______ ____
ROOT
ATOM      1  C   UNL     1       1.481   8.580  19.345  0.00  0.00    +0.000 C 
ATOM      2  O   UNL     1       2.030   7.944  20.252  0.00  0.00    +0.000 OA
ATOM      3  N   UNL     1       0.333   9.313  19.575  0.00  0.00    +0.000 N 
ATOM      4  C   UNL     1      -0.119   9.544  20.960  0.00  0.00    +0.000 C 
ATOM      5  C   UNL     1      -0.341  11.051  21.241  0.00  0.00    +0.000 C 
ATOM      6  N   UNL     1      -1.179  11.620  20.187  0.00  0.00    +0.000 N 
ATOM      7  C   UNL     1      -2.250  12.424  20.471  0.00  0.00    +0.000 A 
ATOM      8  N   UNL     1      -3.241  12.489  19.601  0.00  0.00    +0.000 NA
ATOM      9  C   UNL     1      -4.282  13.254  19.893  0.00  0.00    +0.000 A 
ATOM     10  N   UNL     1      -5.324  13.328  19.010  0.00  0.00    +0.000 N 
ATOM     11  C   UNL     1      -6.165  14.514  18.914  0.00  0.00    +0.000 C 
ATOM     12  C   UNL     1      -7.643  14.099  18.917  0.00  0.00    +0.000 C 
ATOM     13  O   UNL     1      -7.917  13.094  17.922  0.00  0.00    +0.000 OA
ATOM     14  C   UNL     1      -7.109  11.926  18.151  0.00  0.00    +0.000 C 
ATOM     15  C   UNL     1      -5.608  12.256  18.067  0.00  0.00    +0.000 C 
ATOM     16  N   UNL     1      -4.371  13.953  21.014  0.00  0.00    +0.000 NA
ATOM     17  C   UNL     1      -3.340  13.838  21.845  0.00  0.00    +0.000 A 
ATOM     18  N   UNL     1      -3.384  14.604  23.042  0.00  0.00    +0.000 N 
ATOM     19  C   UNL     1      -4.504  14.992  23.763  0.00  0.00    +0.000 A 
ATOM     20  N   UNL     1      -4.170  15.735  24.808  0.00  0.00    +0.000 NA
ATOM     21  C   UNL     1      -2.808  15.853  24.766  0.00  0.00    +0.000 A 
ATOM     22  C   UNL     1      -1.957  16.572  25.616  0.00  0.00    +0.000 A 
ATOM     23  C   UNL     1      -0.584  16.588  25.345  0.00  0.00    +0.000 A 
ATOM     24  C   UNL     1      -0.068  15.895  24.252  0.00  0.00    +0.000 A 
ATOM     25  C   UNL     1      -0.901  15.159  23.405  0.00  0.00    +0.000 A 
ATOM     26  C   UNL     1      -2.278  15.148  23.690  0.00  0.00    +0.000 A 
ATOM     27  N   UNL     1      -2.254  13.099  21.610  0.00  0.00    +0.000 NA
ATOM     28  C   UNL     1      -0.759  11.404  18.804  0.00  0.00    +0.000 C 
ATOM     29  C   UNL     1      -0.549   9.902  18.556  0.00  0.00    +0.000 C 
ENDROOT
BRANCH  19  30
ATOM     30  C   UNL     1      -5.889  14.531  23.461  0.00  0.00    +0.000 C 
ATOM     31  F   UNL     1      -6.663  14.460  24.576  0.00  0.00    +0.000 F 
ATOM     32  F   UNL     1      -6.533  15.339  22.575  0.00  0.00    +0.000 F 
ENDBRANCH  19  30
BRANCH   1  34
ATOM     33  C   UNL     1       3.369   7.746  17.823  0.00  0.00    +0.000 C 
ATOM     34  C   UNL     1       2.150   8.650  17.944  0.00  0.00    +0.000 C 
BRANCH  34  35
ATOM     35  N   UNL     1       2.578  10.049  17.701  0.00  0.00    +0.000 NA
ATOM     36  H   UNL     1       3.527  10.006  17.316  0.00  0.00    +0.000 HD
ATOM     37  H   UNL     1       2.719  10.495  18.611  0.00  0.00    +0.000 HD
ENDBRANCH  34  35
ENDBRANCH   1  34
TORSDOF 3
ENDMDL
