MODEL 1
REMARK VINA RESULT:      -8.6      0.000      0.000
REMARK  Name = 
REMARK  6 active torsions:
REMARK  status: ('A' for Active; 'I' for Inactive)
REMARK    1  A    between atoms: C_2  and  C_12
REMARK    2  A    between atoms: N_3  and  C_4
REMARK    3  A    between atoms: C_4  and  C_5
REMARK    4  A    between atoms: C_15  and  C_16
REMARK    5  A    between atoms: C_16  and  N_17
REMARK    6  A    between atoms: C_29  and  O_30
REMARK                            x       y       z     vdW  Elec       q    Type
REMARK                         _______ _______ _______ _____ _____    ______ ____
ROOT
ATOM      1  C   UNL     1       0.761   9.342  20.420  0.00  0.00    +0.000 A 
ATOM      2  N   UNL     1      -0.125  10.182  19.756  0.00  0.00    +0.000 NA
ATOM      3  C   UNL     1      -0.766  11.086  20.438  0.00  0.00    +0.000 A 
ATOM      4  C   UNL     1      -1.669  12.105  19.765  0.00  0.00    +0.000 A 
ATOM      5  C   UNL     1      -2.000  13.199  20.478  0.00  0.00    +0.000 A 
ATOM      6  C   UNL     1      -1.795  13.269  21.896  0.00  0.00    +0.000 A 
ATOM      7  C   UNL     1      -1.206  12.253  22.526  0.00  0.00    +0.000 A 
ATOM      8  N   UNL     1      -0.663  11.186  21.828  0.00  0.00    +0.000 N 
ATOM      9  C   UNL     1       0.053  10.252  22.538  0.00  0.00    +0.000 A 
ATOM     10  O   UNL     1       0.129  10.163  23.770  0.00  0.00    +0.000 OA
ATOM     11  C   UNL     1       0.881   9.312  21.759  0.00  0.00    +0.000 A 
ENDROOT
BRANCH   1  13
ATOM     12  O   UNL     1       2.043   8.837  18.441  0.00  0.00    +0.000 OA
ATOM     13  C   UNL     1       1.683   8.471  19.556  0.00  0.00    +0.000 C 
ATOM     14  N   UNL     1       2.077   7.269  20.097  0.00  0.00    +0.000 N 
ATOM     15  H   UNL     1       1.834   7.078  21.064  0.00  0.00    +0.000 HD
BRANCH  14  16
ATOM     16  C   UNL     1       2.985   6.353  19.452  0.00  0.00    +0.000 C 
BRANCH  16  17
ATOM     17  C   UNL     1       2.358   5.000  19.219  0.00  0.00    +0.000 A 
ATOM     18  C   UNL     1       1.541   4.397  20.193  0.00  0.00    +0.000 A 
ATOM     19  C   UNL     1       0.930   3.165  19.941  0.00  0.00    +0.000 A 
ATOM     20  C   UNL     1       1.142   2.533  18.721  0.00  0.00    +0.000 A 
ATOM     21  F   UNL     1       0.530   1.370  18.467  0.00  0.00    +0.000 F 
ATOM     22  C   UNL     1       1.969   3.100  17.757  0.00  0.00    +0.000 A 
ATOM     23  C   UNL     1       2.585   4.325  18.010  0.00  0.00    +0.000 A 
ENDBRANCH  16  17
ENDBRANCH  14  16
ENDBRANCH   1  13
BRANCH  11  24
ATOM     24  O   UNL     1       1.758   8.518  22.487  0.00  0.00    +0.000 OA
ATOM     25  H   UNL     1       1.240   8.239  23.278  0.00  0.00    +0.000 HD
ENDBRANCH  11  24
BRANCH   4  26
ATOM     26  C   UNL     1      -2.070  11.972  18.317  0.00  0.00    +0.000 C 
BRANCH  26  27
ATOM     27  N   UNL     1      -2.755  10.742  17.862  0.00  0.00    +0.000 NA
ATOM     28  C   UNL     1      -2.244  10.074  16.655  0.00  0.00    +0.000 C 
ATOM     29  C   UNL     1      -2.816  10.601  15.322  0.00  0.00    +0.000 C 
ATOM     30  O   UNL     1      -4.246  10.706  15.335  0.00  0.00    +0.000 OA
ATOM     31  C   UNL     1      -4.720  11.443  16.468  0.00  0.00    +0.000 C 
ATOM     32  C   UNL     1      -4.217  10.836  17.783  0.00  0.00    +0.000 C 
ENDBRANCH  26  27
ENDBRANCH   4  26
TORSDOF 6
ENDMDL
MODEL 2
REMARK VINA RESULT:      -8.5      3.620      8.792
REMARK  Name = 
REMARK  6 active torsions:
REMARK  status: ('A' for Active; 'I' for Inactive)
REMARK    1  A    between atoms: C_2  and  C_12
REMARK    2  A    between atoms: N_3  and  C_4
REMARK    3  A    between atoms: C_4  and  C_5
REMARK    4  A    between atoms: C_15  and  C_16
REMARK    5  A    between atoms: C_16  and  N_17
REMARK    6  A    between atoms: C_29  and  O_30
REMARK                            x       y       z     vdW  Elec       q    Type
REMARK                         _______ _______ _______ _____ _____    ______ ____
ROOT
ATOM      1  C   UNL     1       2.563   6.804  18.815  0.00  0.00    +0.000 A 
ATOM      2  N   UNL     1       3.122   5.884  17.937  0.00  0.00    +0.000 NA
ATOM      3  C   UNL     1       3.104   4.622  18.254  0.00  0.00    +0.000 A 
ATOM      4  C   UNL     1       3.602   3.550  17.299  0.00  0.00    +0.000 A 
ATOM      5  C   UNL     1       3.225   2.282  17.548  0.00  0.00    +0.000 A 
ATOM      6  C   UNL     1       2.661   1.892  18.808  0.00  0.00    +0.000 A 
ATOM      7  C   UNL     1       2.442   2.817  19.743  0.00  0.00    +0.000 A 
ATOM      8  N   UNL     1       2.621   4.166  19.483  0.00  0.00    +0.000 N 
ATOM      9  C   UNL     1       2.237   5.063  20.452  0.00  0.00    +0.000 A 
ATOM     10  O   UNL     1       1.901   4.795  21.611  0.00  0.00    +0.000 OA
ATOM     11  C   UNL     1       2.136   6.478  20.048  0.00  0.00    +0.000 A 
ENDROOT
BRANCH   1  13
ATOM     12  O   UNL     1       2.976   8.645  17.314  0.00  0.00    +0.000 OA
ATOM     13  C   UNL     1       2.371   8.237  18.300  0.00  0.00    +0.000 C 
ATOM     14  N   UNL     1       1.491   9.029  19.001  0.00  0.00    +0.000 N 
ATOM     15  H   UNL     1       0.942   8.596  19.738  0.00  0.00    +0.000 HD
BRANCH  14  16
ATOM     16  C   UNL     1       1.145  10.378  18.627  0.00  0.00    +0.000 C 
BRANCH  16  17
ATOM     17  C   UNL     1      -0.341  10.549  18.424  0.00  0.00    +0.000 A 
ATOM     18  C   UNL     1      -1.048   9.751  17.506  0.00  0.00    +0.000 A 
ATOM     19  C   UNL     1      -2.432   9.891  17.365  0.00  0.00    +0.000 A 
ATOM     20  C   UNL     1      -3.106  10.831  18.135  0.00  0.00    +0.000 A 
ATOM     21  F   UNL     1      -4.436  10.941  18.024  0.00  0.00    +0.000 F 
ATOM     22  C   UNL     1      -2.421  11.648  19.028  0.00  0.00    +0.000 A 
ATOM     23  C   UNL     1      -1.040  11.516  19.163  0.00  0.00    +0.000 A 
ENDBRANCH  16  17
ENDBRANCH  14  16
ENDBRANCH   1  13
BRANCH  11  24
ATOM     24  O   UNL     1       1.547   7.337  20.967  0.00  0.00    +0.000 OA
ATOM     25  H   UNL     1       1.367   6.772  21.754  0.00  0.00    +0.000 HD
ENDBRANCH  11  24
BRANCH   4  26
ATOM     26  C   UNL     1       4.372   3.900  16.049  0.00  0.00    +0.000 C 
BRANCH  26  27
ATOM     27  N   UNL     1       5.831   3.665  16.004  0.00  0.00    +0.000 NA
ATOM     28  C   UNL     1       6.675   4.373  16.979  0.00  0.00    +0.000 C 
ATOM     29  C   UNL     1       7.129   5.784  16.552  0.00  0.00    +0.000 C 
ATOM     30  O   UNL     1       7.670   5.815  15.225  0.00  0.00    +0.000 OA
ATOM     31  C   UNL     1       6.790   5.207  14.272  0.00  0.00    +0.000 C 
ATOM     32  C   UNL     1       6.438   3.769  14.671  0.00  0.00    +0.000 C 
ENDBRANCH  26  27
ENDBRANCH   4  26
TORSDOF 6
ENDMDL
MODEL 3
REMARK VINA RESULT:      -8.4      1.024      1.192
REMARK  Name = 
REMARK  6 active torsions:
REMARK  status: ('A' for Active; 'I' for Inactive)
REMARK    1  A    between atoms: C_2  and  C_12
REMARK    2  A    between atoms: N_3  and  C_4
REMARK    3  A    between atoms: C_4  and  C_5
REMARK    4  A    between atoms: C_15  and  C_16
REMARK    5  A    between atoms: C_16  and  N_17
REMARK    6  A    between atoms: C_29  and  O_30
REMARK                            x       y       z     vdW  Elec       q    Type
REMARK                         _______ _______ _______ _____ _____    ______ ____
ROOT
ATOM      1  C   UNL     1       0.732   9.534  20.115  0.00  0.00    +0.000 A 
ATOM      2  N   UNL     1      -0.329  10.329  19.698  0.00  0.00    +0.000 NA
ATOM      3  C   UNL     1      -1.005  10.994  20.589  0.00  0.00    +0.000 A 
ATOM      4  C   UNL     1      -2.108  11.962  20.198  0.00  0.00    +0.000 A 
ATOM      5  C   UNL     1      -2.500  12.856  21.126  0.00  0.00    +0.000 A 
ATOM      6  C   UNL     1      -2.147  12.715  22.510  0.00  0.00    +0.000 A 
ATOM      7  C   UNL     1      -1.358  11.709  22.886  0.00  0.00    +0.000 A 
ATOM      8  N   UNL     1      -0.759  10.872  21.959  0.00  0.00    +0.000 N 
ATOM      9  C   UNL     1       0.153   9.952  22.419  0.00  0.00    +0.000 A 
ATOM     10  O   UNL     1       0.380   9.668  23.602  0.00  0.00    +0.000 OA
ATOM     11  C   UNL     1       1.006   9.296  21.410  0.00  0.00    +0.000 A 
ENDROOT
BRANCH   1  13
ATOM     12  O   UNL     1       1.976   9.649  18.054  0.00  0.00    +0.000 OA
ATOM     13  C   UNL     1       1.659   8.974  19.028  0.00  0.00    +0.000 C 
ATOM     14  N   UNL     1       2.108   7.686  19.207  0.00  0.00    +0.000 N 
ATOM     15  H   UNL     1       1.897   7.225  20.086  0.00  0.00    +0.000 HD
BRANCH  14  16
ATOM     16  C   UNL     1       3.029   7.022  18.318  0.00  0.00    +0.000 C 
BRANCH  16  17
ATOM     17  C   UNL     1       2.960   5.520  18.447  0.00  0.00    +0.000 A 
ATOM     18  C   UNL     1       1.864   4.794  17.946  0.00  0.00    +0.000 A 
ATOM     19  C   UNL     1       1.839   3.399  18.031  0.00  0.00    +0.000 A 
ATOM     20  C   UNL     1       2.905   2.731  18.624  0.00  0.00    +0.000 A 
ATOM     21  F   UNL     1       2.896   1.394  18.676  0.00  0.00    +0.000 F 
ATOM     22  C   UNL     1       3.984   3.433  19.150  0.00  0.00    +0.000 A 
ATOM     23  C   UNL     1       4.006   4.824  19.073  0.00  0.00    +0.000 A 
ENDBRANCH  16  17
ENDBRANCH  14  16
ENDBRANCH   1  13
BRANCH  11  24
ATOM     24  O   UNL     1       2.059   8.534  21.900  0.00  0.00    +0.000 OA
ATOM     25  H   UNL     1       2.857   8.894  21.446  0.00  0.00    +0.000 HD
ENDBRANCH  11  24
BRANCH   4  26
ATOM     26  C   UNL     1      -2.650  12.017  18.790  0.00  0.00    +0.000 C 
BRANCH  26  27
ATOM     27  N   UNL     1      -3.528  10.930  18.307  0.00  0.00    +0.000 NA
ATOM     28  C   UNL     1      -2.899   9.770  17.658  0.00  0.00    +0.000 C 
ATOM     29  C   UNL     1      -2.649   9.921  16.143  0.00  0.00    +0.000 C 
ATOM     30  O   UNL     1      -3.803  10.393  15.435  0.00  0.00    +0.000 OA
ATOM     31  C   UNL     1      -4.346  11.580  16.025  0.00  0.00    +0.000 C 
ATOM     32  C   UNL     1      -4.678  11.368  17.507  0.00  0.00    +0.000 C 
ENDBRANCH  26  27
ENDBRANCH   4  26
TORSDOF 6
ENDMDL
MODEL 4
REMARK VINA RESULT:      -8.3      3.773      9.003
REMARK  Name = 
REMARK  6 active torsions:
REMARK  status: ('A' for Active; 'I' for Inactive)
REMARK    1  A    between atoms: C_2  and  C_12
REMARK    2  A    between atoms: N_3  and  C_4
REMARK    3  A    between atoms: C_4  and  C_5
REMARK    4  A    between atoms: C_15  and  C_16
REMARK    5  A    between atoms: C_16  and  N_17
REMARK    6  A    between atoms: C_29  and  O_30
REMARK                            x       y       z     vdW  Elec       q    Type
REMARK                         _______ _______ _______ _____ _____    ______ ____
ROOT
ATOM      1  C   UNL     1       2.530   6.517  19.127  0.00  0.00    +0.000 A 
ATOM      2  N   UNL     1       3.130   5.700  18.178  0.00  0.00    +0.000 NA
ATOM      3  C   UNL     1       3.212   4.422  18.410  0.00  0.00    +0.000 A 
ATOM      4  C   UNL     1       3.760   3.455  17.374  0.00  0.00    +0.000 A 
ATOM      5  C   UNL     1       3.483   2.148  17.546  0.00  0.00    +0.000 A 
ATOM      6  C   UNL     1       2.983   1.637  18.790  0.00  0.00    +0.000 A 
ATOM      7  C   UNL     1       2.723   2.480  19.789  0.00  0.00    +0.000 A 
ATOM      8  N   UNL     1       2.797   3.853  19.616  0.00  0.00    +0.000 N 
ATOM      9  C   UNL     1       2.376   4.654  20.651  0.00  0.00    +0.000 A 
ATOM     10  O   UNL     1       2.092   4.287  21.797  0.00  0.00    +0.000 OA
ATOM     11  C   UNL     1       2.161   6.081  20.345  0.00  0.00    +0.000 A 
ENDROOT
BRANCH   1  13
ATOM     12  O   UNL     1       2.642   8.427  17.659  0.00  0.00    +0.000 OA
ATOM     13  C   UNL     1       2.221   7.962  18.714  0.00  0.00    +0.000 C 
ATOM     14  N   UNL     1       1.452   8.700  19.585  0.00  0.00    +0.000 N 
ATOM     15  H   UNL     1       1.046   8.223  20.384  0.00  0.00    +0.000 HD
BRANCH  14  16
ATOM     16  C   UNL     1       1.018  10.051  19.332  0.00  0.00    +0.000 C 
BRANCH  16  17
ATOM     17  C   UNL     1       0.168  10.595  20.455  0.00  0.00    +0.000 A 
ATOM     18  C   UNL     1      -0.722  11.664  20.244  0.00  0.00    +0.000 A 
ATOM     19  C   UNL     1      -1.536  12.124  21.283  0.00  0.00    +0.000 A 
ATOM     20  C   UNL     1      -1.455  11.522  22.533  0.00  0.00    +0.000 A 
ATOM     21  F   UNL     1      -2.257  11.941  23.519  0.00  0.00    +0.000 F 
ATOM     22  C   UNL     1      -0.561  10.483  22.769  0.00  0.00    +0.000 A 
ATOM     23  C   UNL     1       0.257  10.028  21.736  0.00  0.00    +0.000 A 
ENDBRANCH  16  17
ENDBRANCH  14  16
ENDBRANCH   1  13
BRANCH  11  24
ATOM     24  O   UNL     1       1.537   6.833  21.332  0.00  0.00    +0.000 OA
ATOM     25  H   UNL     1       0.859   7.361  20.850  0.00  0.00    +0.000 HD
ENDBRANCH  11  24
BRANCH   4  26
ATOM     26  C   UNL     1       4.468   3.941  16.134  0.00  0.00    +0.000 C 
BRANCH  26  27
ATOM     27  N   UNL     1       5.911   3.664  15.964  0.00  0.00    +0.000 NA
ATOM     28  C   UNL     1       6.853   4.315  16.887  0.00  0.00    +0.000 C 
ATOM     29  C   UNL     1       7.316   5.725  16.465  0.00  0.00    +0.000 C 
ATOM     30  O   UNL     1       7.750   5.781  15.100  0.00  0.00    +0.000 OA
ATOM     31  C   UNL     1       6.777   5.229  14.204  0.00  0.00    +0.000 C 
ATOM     32  C   UNL     1       6.412   3.791  14.590  0.00  0.00    +0.000 C 
ENDBRANCH  26  27
ENDBRANCH   4  26
TORSDOF 6
ENDMDL
MODEL 5
REMARK VINA RESULT:      -8.2      3.509      8.676
REMARK  Name = 
REMARK  6 active torsions:
REMARK  status: ('A' for Active; 'I' for Inactive)
REMARK    1  A    between atoms: C_2  and  C_12
REMARK    2  A    between atoms: N_3  and  C_4
REMARK    3  A    between atoms: C_4  and  C_5
REMARK    4  A    between atoms: C_15  and  C_16
REMARK    5  A    between atoms: C_16  and  N_17
REMARK    6  A    between atoms: C_29  and  O_30
REMARK                            x       y       z     vdW  Elec       q    Type
REMARK                         _______ _______ _______ _____ _____    ______ ____
ROOT
ATOM      1  C   UNL     1       2.327   7.903  18.803  0.00  0.00    +0.000 A 
ATOM      2  N   UNL     1       3.186   7.302  17.890  0.00  0.00    +0.000 NA
ATOM      3  C   UNL     1       3.439   6.031  18.007  0.00  0.00    +0.000 A 
ATOM      4  C   UNL     1       4.283   5.286  16.987  0.00  0.00    +0.000 A 
ATOM      5  C   UNL     1       4.199   3.942  16.983  0.00  0.00    +0.000 A 
ATOM      6  C   UNL     1       3.610   3.217  18.072  0.00  0.00    +0.000 A 
ATOM      7  C   UNL     1       3.073   3.886  19.092  0.00  0.00    +0.000 A 
ATOM      8  N   UNL     1       2.948   5.265  19.068  0.00  0.00    +0.000 N 
ATOM      9  C   UNL     1       2.255   5.865  20.092  0.00  0.00    +0.000 A 
ATOM     10  O   UNL     1       1.868   5.324  21.135  0.00  0.00    +0.000 OA
ATOM     11  C   UNL     1       1.859   7.273  19.895  0.00  0.00    +0.000 A 
ENDROOT
BRANCH   1  13
ATOM     12  O   UNL     1       2.355   9.978  17.577  0.00  0.00    +0.000 OA
ATOM     13  C   UNL     1       1.852   9.327  18.487  0.00  0.00    +0.000 C 
ATOM     14  N   UNL     1       0.840   9.827  19.274  0.00  0.00    +0.000 N 
ATOM     15  H   UNL     1       0.395   9.197  19.935  0.00  0.00    +0.000 HD
BRANCH  14  16
ATOM     16  C   UNL     1       0.233  11.120  19.083  0.00  0.00    +0.000 C 
BRANCH  16  17
ATOM     17  C   UNL     1      -1.183  11.013  18.571  0.00  0.00    +0.000 A 
ATOM     18  C   UNL     1      -1.536  10.062  17.595  0.00  0.00    +0.000 A 
ATOM     19  C   UNL     1      -2.862   9.945  17.167  0.00  0.00    +0.000 A 
ATOM     20  C   UNL     1      -3.831  10.782  17.707  0.00  0.00    +0.000 A 
ATOM     21  F   UNL     1      -5.106  10.647  17.321  0.00  0.00    +0.000 F 
ATOM     22  C   UNL     1      -3.497  11.746  18.652  0.00  0.00    +0.000 A 
ATOM     23  C   UNL     1      -2.174  11.869  19.074  0.00  0.00    +0.000 A 
ENDBRANCH  16  17
ENDBRANCH  14  16
ENDBRANCH   1  13
BRANCH  11  24
ATOM     24  O   UNL     1       0.982   7.800  20.835  0.00  0.00    +0.000 OA
ATOM     25  H   UNL     1       1.062   7.200  21.612  0.00  0.00    +0.000 HD
ENDBRANCH  11  24
BRANCH   4  26
ATOM     26  C   UNL     1       5.077   6.017  15.933  0.00  0.00    +0.000 C 
BRANCH  26  27
ATOM     27  N   UNL     1       6.524   6.244  16.140  0.00  0.00    +0.000 NA
ATOM     28  C   UNL     1       7.428   5.091  16.017  0.00  0.00    +0.000 C 
ATOM     29  C   UNL     1       7.615   4.264  17.307  0.00  0.00    +0.000 C 
ATOM     30  O   UNL     1       7.906   5.077  18.450  0.00  0.00    +0.000 OA
ATOM     31  C   UNL     1       6.958   6.139  18.609  0.00  0.00    +0.000 C 
ATOM     32  C   UNL     1       6.869   7.005  17.347  0.00  0.00    +0.000 C 
ENDBRANCH  26  27
ENDBRANCH   4  26
TORSDOF 6
ENDMDL
MODEL 6
REMARK VINA RESULT:      -8.2      3.699      8.900
REMARK  Name = 
REMARK  6 active torsions:
REMARK  status: ('A' for Active; 'I' for Inactive)
REMARK    1  A    between atoms: C_2  and  C_12
REMARK    2  A    between atoms: N_3  and  C_4
REMARK    3  A    between atoms: C_4  and  C_5
REMARK    4  A    between atoms: C_15  and  C_16
REMARK    5  A    between atoms: C_16  and  N_17
REMARK    6  A    between atoms: C_29  and  O_30
REMARK                            x       y       z     vdW  Elec       q    Type
REMARK                         _______ _______ _______ _____ _____    ______ ____
ROOT
ATOM      1  C   UNL     1       2.421   7.485  18.869  0.00  0.00    +0.000 A 
ATOM      2  N   UNL     1       3.266   6.928  17.917  0.00  0.00    +0.000 NA
ATOM      3  C   UNL     1       3.579   5.668  18.013  0.00  0.00    +0.000 A 
ATOM      4  C   UNL     1       4.411   4.967  16.953  0.00  0.00    +0.000 A 
ATOM      5  C   UNL     1       4.385   3.621  16.942  0.00  0.00    +0.000 A 
ATOM      6  C   UNL     1       3.874   2.864  18.049  0.00  0.00    +0.000 A 
ATOM      7  C   UNL     1       3.352   3.502  19.095  0.00  0.00    +0.000 A 
ATOM      8  N   UNL     1       3.166   4.876  19.087  0.00  0.00    +0.000 N 
ATOM      9  C   UNL     1       2.490   5.439  20.144  0.00  0.00    +0.000 A 
ATOM     10  O   UNL     1       2.171   4.875  21.198  0.00  0.00    +0.000 OA
ATOM     11  C   UNL     1       2.026   6.829  19.975  0.00  0.00    +0.000 A 
ENDROOT
BRANCH   1  13
ATOM     12  O   UNL     1       1.958   9.392  17.468  0.00  0.00    +0.000 OA
ATOM     13  C   UNL     1       1.872   8.889  18.584  0.00  0.00    +0.000 C 
ATOM     14  N   UNL     1       1.284   9.546  19.641  0.00  0.00    +0.000 N 
ATOM     15  H   UNL     1       1.148   9.031  20.506  0.00  0.00    +0.000 HD
BRANCH  14  16
ATOM     16  C   UNL     1       0.666  10.844  19.541  0.00  0.00    +0.000 C 
BRANCH  16  17
ATOM     17  C   UNL     1      -0.235  11.137  20.717  0.00  0.00    +0.000 A 
ATOM     18  C   UNL     1      -1.252  12.105  20.632  0.00  0.00    +0.000 A 
ATOM     19  C   UNL     1      -2.108  12.330  21.715  0.00  0.00    +0.000 A 
ATOM     20  C   UNL     1      -1.941  11.595  22.882  0.00  0.00    +0.000 A 
ATOM     21  F   UNL     1      -2.781  11.787  23.907  0.00  0.00    +0.000 F 
ATOM     22  C   UNL     1      -0.924  10.654  22.995  0.00  0.00    +0.000 A 
ATOM     23  C   UNL     1      -0.065  10.434  21.919  0.00  0.00    +0.000 A 
ENDBRANCH  16  17
ENDBRANCH  14  16
ENDBRANCH   1  13
BRANCH  11  24
ATOM     24  O   UNL     1       1.168   7.312  20.954  0.00  0.00    +0.000 OA
ATOM     25  H   UNL     1       1.747   7.468  21.736  0.00  0.00    +0.000 HD
ENDBRANCH  11  24
BRANCH   4  26
ATOM     26  C   UNL     1       5.128   5.739  15.873  0.00  0.00    +0.000 C 
BRANCH  26  27
ATOM     27  N   UNL     1       6.589   5.945  15.975  0.00  0.00    +0.000 NA
ATOM     28  C   UNL     1       7.434   4.773  16.253  0.00  0.00    +0.000 C 
ATOM     29  C   UNL     1       7.616   4.435  17.747  0.00  0.00    +0.000 C 
ATOM     30  O   UNL     1       7.977   5.577  18.534  0.00  0.00    +0.000 OA
ATOM     31  C   UNL     1       7.085   6.679  18.323  0.00  0.00    +0.000 C 
ATOM     32  C   UNL     1       7.003   7.057  16.840  0.00  0.00    +0.000 C 
ENDBRANCH  26  27
ENDBRANCH   4  26
TORSDOF 6
ENDMDL
MODEL 7
REMARK VINA RESULT:      -8.2      3.686      8.912
REMARK  Name = 
REMARK  6 active torsions:
REMARK  status: ('A' for Active; 'I' for Inactive)
REMARK    1  A    between atoms: C_2  and  C_12
REMARK    2  A    between atoms: N_3  and  C_4
REMARK    3  A    between atoms: C_4  and  C_5
REMARK    4  A    between atoms: C_15  and  C_16
REMARK    5  A    between atoms: C_16  and  N_17
REMARK    6  A    between atoms: C_29  and  O_30
REMARK                            x       y       z     vdW  Elec       q    Type
REMARK                         _______ _______ _______ _____ _____    ______ ____
ROOT
ATOM      1  C   UNL     1       2.602   6.651  19.132  0.00  0.00    +0.000 A 
ATOM      2  N   UNL     1       3.361   5.946  18.205  0.00  0.00    +0.000 NA
ATOM      3  C   UNL     1       3.533   4.668  18.376  0.00  0.00    +0.000 A 
ATOM      4  C   UNL     1       4.261   3.815  17.351  0.00  0.00    +0.000 A 
ATOM      5  C   UNL     1       4.085   2.482  17.424  0.00  0.00    +0.000 A 
ATOM      6  C   UNL     1       3.515   1.855  18.582  0.00  0.00    +0.000 A 
ATOM      7  C   UNL     1       3.088   2.610  19.594  0.00  0.00    +0.000 A 
ATOM      8  N   UNL     1       3.056   3.993  19.502  0.00  0.00    +0.000 N 
ATOM      9  C   UNL     1       2.468   4.691  20.531  0.00  0.00    +0.000 A 
ATOM     10  O   UNL     1       2.109   4.231  21.621  0.00  0.00    +0.000 OA
ATOM     11  C   UNL     1       2.158   6.111  20.281  0.00  0.00    +0.000 A 
ENDROOT
BRANCH   1  13
ATOM     12  O   UNL     1       2.604   8.614  17.732  0.00  0.00    +0.000 OA
ATOM     13  C   UNL     1       2.207   8.088  18.767  0.00  0.00    +0.000 C 
ATOM     14  N   UNL     1       1.391   8.747  19.658  0.00  0.00    +0.000 N 
ATOM     15  H   UNL     1       1.011   8.218  20.436  0.00  0.00    +0.000 HD
BRANCH  14  16
ATOM     16  C   UNL     1       0.876  10.077  19.449  0.00  0.00    +0.000 C 
BRANCH  16  17
ATOM     17  C   UNL     1       0.042  10.553  20.614  0.00  0.00    +0.000 A 
ATOM     18  C   UNL     1      -0.835  11.646  20.484  0.00  0.00    +0.000 A 
ATOM     19  C   UNL     1      -1.635  12.044  21.559  0.00  0.00    +0.000 A 
ATOM     20  C   UNL     1      -1.554  11.356  22.764  0.00  0.00    +0.000 A 
ATOM     21  F   UNL     1      -2.344  11.716  23.782  0.00  0.00    +0.000 F 
ATOM     22  C   UNL     1      -0.672  10.291  22.920  0.00  0.00    +0.000 A 
ATOM     23  C   UNL     1       0.132   9.898  21.852  0.00  0.00    +0.000 A 
ENDBRANCH  16  17
ENDBRANCH  14  16
ENDBRANCH   1  13
BRANCH  11  24
ATOM     24  O   UNL     1       1.378   6.746  21.239  0.00  0.00    +0.000 OA
ATOM     25  H   UNL     1       2.028   7.181  21.839  0.00  0.00    +0.000 HD
ENDBRANCH  11  24
BRANCH   4  26
ATOM     26  C   UNL     1       5.039   4.434  16.216  0.00  0.00    +0.000 C 
BRANCH  26  27
ATOM     27  N   UNL     1       6.477   4.728  16.395  0.00  0.00    +0.000 NA
ATOM     28  C   UNL     1       7.105   4.352  17.671  0.00  0.00    +0.000 C 
ATOM     29  C   UNL     1       6.993   5.406  18.793  0.00  0.00    +0.000 C 
ATOM     30  O   UNL     1       7.365   6.720  18.358  0.00  0.00    +0.000 OA
ATOM     31  C   UNL     1       6.671   7.108  17.166  0.00  0.00    +0.000 C 
ATOM     32  C   UNL     1       6.884   6.092  16.038  0.00  0.00    +0.000 C 
ENDBRANCH  26  27
ENDBRANCH   4  26
TORSDOF 6
ENDMDL
MODEL 8
REMARK VINA RESULT:      -8.2      3.789      8.981
REMARK  Name = 
REMARK  6 active torsions:
REMARK  status: ('A' for Active; 'I' for Inactive)
REMARK    1  A    between atoms: C_2  and  C_12
REMARK    2  A    between atoms: N_3  and  C_4
REMARK    3  A    between atoms: C_4  and  C_5
REMARK    4  A    between atoms: C_15  and  C_16
REMARK    5  A    between atoms: C_16  and  N_17
REMARK    6  A    between atoms: C_29  and  O_30
REMARK                            x       y       z     vdW  Elec       q    Type
REMARK                         _______ _______ _______ _____ _____    ______ ____
ROOT
ATOM      1  C   UNL     1       2.578   6.695  18.880  0.00  0.00    +0.000 A 
ATOM      2  N   UNL     1       3.153   5.796  17.989  0.00  0.00    +0.000 NA
ATOM      3  C   UNL     1       3.204   4.537  18.313  0.00  0.00    +0.000 A 
ATOM      4  C   UNL     1       3.722   3.484  17.348  0.00  0.00    +0.000 A 
ATOM      5  C   UNL     1       3.413   2.201  17.614  0.00  0.00    +0.000 A 
ATOM      6  C   UNL     1       2.907   1.794  18.894  0.00  0.00    +0.000 A 
ATOM      7  C   UNL     1       2.675   2.713  19.831  0.00  0.00    +0.000 A 
ATOM      8  N   UNL     1       2.781   4.067  19.558  0.00  0.00    +0.000 N 
ATOM      9  C   UNL     1       2.386   4.951  20.534  0.00  0.00    +0.000 A 
ATOM     10  O   UNL     1       2.100   4.675  21.705  0.00  0.00    +0.000 OA
ATOM     11  C   UNL     1       2.206   6.358  20.127  0.00  0.00    +0.000 A 
ENDROOT
BRANCH   1  13
ATOM     12  O   UNL     1       2.805   8.521  17.321  0.00  0.00    +0.000 OA
ATOM     13  C   UNL     1       2.303   8.114  18.364  0.00  0.00    +0.000 C 
ATOM     14  N   UNL     1       1.470   8.896  19.131  0.00  0.00    +0.000 N 
ATOM     15  H   UNL     1       1.002   8.462  19.921  0.00  0.00    +0.000 HD
BRANCH  14  16
ATOM     16  C   UNL     1       1.057  10.229  18.771  0.00  0.00    +0.000 C 
BRANCH  16  17
ATOM     17  C   UNL     1       0.122  10.831  19.793  0.00  0.00    +0.000 A 
ATOM     18  C   UNL     1       0.375  10.709  21.172  0.00  0.00    +0.000 A 
ATOM     19  C   UNL     1      -0.475  11.313  22.103  0.00  0.00    +0.000 A 
ATOM     20  C   UNL     1      -1.579  12.031  21.658  0.00  0.00    +0.000 A 
ATOM     21  F   UNL     1      -2.373  12.637  22.548  0.00  0.00    +0.000 F 
ATOM     22  C   UNL     1      -1.860  12.139  20.300  0.00  0.00    +0.000 A 
ATOM     23  C   UNL     1      -1.018  11.530  19.370  0.00  0.00    +0.000 A 
ENDBRANCH  16  17
ENDBRANCH  14  16
ENDBRANCH   1  13
BRANCH  11  24
ATOM     24  O   UNL     1       1.606   7.194  21.060  0.00  0.00    +0.000 OA
ATOM     25  H   UNL     1       1.915   6.853  21.932  0.00  0.00    +0.000 HD
ENDBRANCH  11  24
BRANCH   4  26
ATOM     26  C   UNL     1       4.434   3.862  16.072  0.00  0.00    +0.000 C 
BRANCH  26  27
ATOM     27  N   UNL     1       5.891   3.634  15.959  0.00  0.00    +0.000 NA
ATOM     28  C   UNL     1       6.771   4.281  16.944  0.00  0.00    +0.000 C 
ATOM     29  C   UNL     1       7.208   5.718  16.589  0.00  0.00    +0.000 C 
ATOM     30  O   UNL     1       7.700   5.833  15.248  0.00  0.00    +0.000 OA
ATOM     31  C   UNL     1       6.785   5.283  14.292  0.00  0.00    +0.000 C 
ATOM     32  C   UNL     1       6.448   3.823  14.614  0.00  0.00    +0.000 C 
ENDBRANCH  26  27
ENDBRANCH   4  26
TORSDOF 6
ENDMDL
MODEL 9
REMARK VINA RESULT:      -8.1      3.449      8.672
REMARK  Name = 
REMARK  6 active torsions:
REMARK  status: ('A' for Active; 'I' for Inactive)
REMARK    1  A    between atoms: C_2  and  C_12
REMARK    2  A    between atoms: N_3  and  C_4
REMARK    3  A    between atoms: C_4  and  C_5
REMARK    4  A    between atoms: C_15  and  C_16
REMARK    5  A    between atoms: C_16  and  N_17
REMARK    6  A    between atoms: C_29  and  O_30
REMARK                            x       y       z     vdW  Elec       q    Type
REMARK                         _______ _______ _______ _____ _____    ______ ____
ROOT
ATOM      1  C   UNL     1       2.538   7.072  18.815  0.00  0.00    +0.000 A 
ATOM      2  N   UNL     1       3.321   6.279  17.984  0.00  0.00    +0.000 NA
ATOM      3  C   UNL     1       3.444   5.012  18.257  0.00  0.00    +0.000 A 
ATOM      4  C   UNL     1       4.197   4.066  17.338  0.00  0.00    +0.000 A 
ATOM      5  C   UNL     1       3.976   2.747  17.499  0.00  0.00    +0.000 A 
ATOM      6  C   UNL     1       3.329   2.225  18.668  0.00  0.00    +0.000 A 
ATOM      7  C   UNL     1       2.874   3.065  19.598  0.00  0.00    +0.000 A 
ATOM      8  N   UNL     1       2.890   4.437  19.403  0.00  0.00    +0.000 N 
ATOM      9  C   UNL     1       2.273   5.226  20.345  0.00  0.00    +0.000 A 
ATOM     10  O   UNL     1       1.844   4.859  21.446  0.00  0.00    +0.000 OA
ATOM     11  C   UNL     1       2.020   6.632  19.976  0.00  0.00    +0.000 A 
ENDROOT
BRANCH   1  13
ATOM     12  O   UNL     1       2.594   8.890  17.232  0.00  0.00    +0.000 OA
ATOM     13  C   UNL     1       2.207   8.487  18.325  0.00  0.00    +0.000 C 
ATOM     14  N   UNL     1       1.459   9.272  19.173  0.00  0.00    +0.000 N 
ATOM     15  H   UNL     1       1.079   8.841  20.010  0.00  0.00    +0.000 HD
BRANCH  14  16
ATOM     16  C   UNL     1       1.007  10.603  18.852  0.00  0.00    +0.000 C 
BRANCH  16  17
ATOM     17  C   UNL     1      -0.471  10.645  18.552  0.00  0.00    +0.000 A 
ATOM     18  C   UNL     1      -1.329  11.527  19.235  0.00  0.00    +0.000 A 
ATOM     19  C   UNL     1      -2.688  11.587  18.911  0.00  0.00    +0.000 A 
ATOM     20  C   UNL     1      -3.189  10.762  17.912  0.00  0.00    +0.000 A 
ATOM     21  F   UNL     1      -4.483  10.843  17.579  0.00  0.00    +0.000 F 
ATOM     22  C   UNL     1      -2.363   9.864  17.244  0.00  0.00    +0.000 A 
ATOM     23  C   UNL     1      -1.010   9.797  17.572  0.00  0.00    +0.000 A 
ENDBRANCH  16  17
ENDBRANCH  14  16
ENDBRANCH   1  13
BRANCH  11  24
ATOM     24  O   UNL     1       1.212   7.357  20.842  0.00  0.00    +0.000 OA
ATOM     25  H   UNL     1       1.152   6.798  21.651  0.00  0.00    +0.000 HD
ENDBRANCH  11  24
BRANCH   4  26
ATOM     26  C   UNL     1       5.050   4.577  16.203  0.00  0.00    +0.000 C 
BRANCH  26  27
ATOM     27  N   UNL     1       6.496   4.797  16.422  0.00  0.00    +0.000 NA
ATOM     28  C   UNL     1       7.064   4.410  17.723  0.00  0.00    +0.000 C 
ATOM     29  C   UNL     1       6.975   5.487  18.824  0.00  0.00    +0.000 C 
ATOM     30  O   UNL     1       7.430   6.772  18.381  0.00  0.00    +0.000 OA
ATOM     31  C   UNL     1       6.794   7.176  17.162  0.00  0.00    +0.000 C 
ATOM     32  C   UNL     1       6.986   6.131  16.057  0.00  0.00    +0.000 C 
ENDBRANCH  26  27
ENDBRANCH   4  26
TORSDOF 6
ENDMDL
