MODEL 1
REMARK VINA RESULT:      -7.2      0.000      0.000
REMARK  Name = 
REMARK  9 active torsions:
REMARK  status: ('A' for Active; 'I' for Inactive)
REMARK    1  A    between atoms: C_1  and  O_2
REMARK    2  A    between atoms: O_2  and  C_3
REMARK    3  A    between atoms: C_6  and  C_7
REMARK    4  A    between atoms: C_7  and  C_8
REMARK    5  A    between atoms: C_8  and  C_9
REMARK    6  A    between atoms: C_9  and  C_10
REMARK    7  A    between atoms: C_14  and  O_15
REMARK    8  A    between atoms: C_18  and  O_19
REMARK    9  A    between atoms: O_19  and  C_20
REMARK                            x       y       z     vdW  Elec       q    Type
REMARK                         _______ _______ _______ _____ _____    ______ ____
ROOT
ATOM      1  C   UNL     1       4.386   4.907  16.501  0.00  0.00    +0.000 C 
ENDROOT
BRANCH   1   5
ATOM      2  C   UNL     1       1.586   3.554  19.516  0.00  0.00    +0.000 A 
ATOM      3  C   UNL     1       1.947   2.726  18.441  0.00  0.00    +0.000 A 
ATOM      4  C   UNL     1       2.852   3.154  17.469  0.00  0.00    +0.000 A 
ATOM      5  C   UNL     1       3.366   4.443  17.516  0.00  0.00    +0.000 A 
ATOM      6  C   UNL     1       2.898   5.314  18.510  0.00  0.00    +0.000 A 
ATOM      7  C   UNL     1       2.020   4.887  19.520  0.00  0.00    +0.000 A 
BRANCH   2   9
ATOM      8  C   UNL     1       1.527   2.659  21.701  0.00  0.00    +0.000 C 
ATOM      9  O   UNL     1       0.808   3.073  20.536  0.00  0.00    +0.000 OA
ENDBRANCH   2   9
BRANCH   7  10
ATOM     10  O   UNL     1       1.738   5.898  20.398  0.00  0.00    +0.000 OA
ATOM     11  C   UNL     1       2.140   7.224  20.106  0.00  0.00    +0.000 C 
ENDBRANCH   7  10
ENDBRANCH   1   5
BRANCH   1  12
ATOM     12  C   UNL     1       5.343   3.785  16.077  0.00  0.00    +0.000 C 
BRANCH  12  13
ATOM     13  C   UNL     1       6.753   4.323  15.816  0.00  0.00    +0.000 C 
BRANCH  13  14
ATOM     14  C   UNL     1       7.184   5.313  16.870  0.00  0.00    +0.000 A 
ATOM     15  C   UNL     1       7.267   6.681  16.582  0.00  0.00    +0.000 A 
ATOM     16  C   UNL     1       7.674   7.589  17.559  0.00  0.00    +0.000 A 
ATOM     17  C   UNL     1       8.000   7.144  18.841  0.00  0.00    +0.000 A 
ATOM     18  C   UNL     1       7.904   5.786  19.133  0.00  0.00    +0.000 A 
ATOM     19  C   UNL     1       7.497   4.874  18.166  0.00  0.00    +0.000 A 
BRANCH  18  20
ATOM     20  O   UNL     1       8.213   5.304  20.371  0.00  0.00    +0.000 OA
ATOM     21  H   UNL     1       9.179   5.276  20.458  0.00  0.00    +0.000 HD
ENDBRANCH  18  20
ENDBRANCH  13  14
ENDBRANCH  12  13
ENDBRANCH   1  12
TORSDOF 7
ENDMDL
MODEL 2
REMARK VINA RESULT:      -7.1      2.258      6.015
REMARK  Name = 
REMARK  9 active torsions:
REMARK  status: ('A' for Active; 'I' for Inactive)
REMARK    1  A    between atoms: C_1  and  O_2
REMARK    2  A    between atoms: O_2  and  C_3
REMARK    3  A    between atoms: C_6  and  C_7
REMARK    4  A    between atoms: C_7  and  C_8
REMARK    5  A    between atoms: C_8  and  C_9
REMARK    6  A    between atoms: C_9  and  C_10
REMARK    7  A    between atoms: C_14  and  O_15
REMARK    8  A    between atoms: C_18  and  O_19
REMARK    9  A    between atoms: O_19  and  C_20
REMARK                            x       y       z     vdW  Elec       q    Type
REMARK                         _______ _______ _______ _____ _____    ______ ____
ROOT
ATOM      1  C   UNL     1       2.946   6.721  18.170  0.00  0.00    +0.000 C 
ENDROOT
BRANCH   1   5
ATOM      2  C   UNL     1       6.264   5.112  15.898  0.00  0.00    +0.000 A 
ATOM      3  C   UNL     1       5.053   4.409  16.006  0.00  0.00    +0.000 A 
ATOM      4  C   UNL     1       3.979   4.924  16.732  0.00  0.00    +0.000 A 
ATOM      5  C   UNL     1       4.114   6.123  17.420  0.00  0.00    +0.000 A 
ATOM      6  C   UNL     1       5.367   6.753  17.425  0.00  0.00    +0.000 A 
ATOM      7  C   UNL     1       6.445   6.271  16.665  0.00  0.00    +0.000 A 
BRANCH   2   9
ATOM      8  C   UNL     1       6.811   4.129  13.821  0.00  0.00    +0.000 C 
ATOM      9  O   UNL     1       7.259   4.665  15.069  0.00  0.00    +0.000 OA
ENDBRANCH   2   9
BRANCH   7  10
ATOM     10  O   UNL     1       7.548   7.073  16.796  0.00  0.00    +0.000 OA
ATOM     11  C   UNL     1       7.494   8.223  17.619  0.00  0.00    +0.000 C 
ENDBRANCH   7  10
ENDBRANCH   1   5
BRANCH   1  12
ATOM     12  C   UNL     1       3.094   6.582  19.691  0.00  0.00    +0.000 C 
BRANCH  12  13
ATOM     13  C   UNL     1       2.040   5.635  20.270  0.00  0.00    +0.000 C 
BRANCH  13  14
ATOM     14  C   UNL     1       2.260   4.207  19.831  0.00  0.00    +0.000 A 
ATOM     15  C   UNL     1       1.241   3.483  19.202  0.00  0.00    +0.000 A 
ATOM     16  C   UNL     1       1.449   2.162  18.807  0.00  0.00    +0.000 A 
ATOM     17  C   UNL     1       2.682   1.546  19.030  0.00  0.00    +0.000 A 
ATOM     18  C   UNL     1       3.701   2.271  19.642  0.00  0.00    +0.000 A 
ATOM     19  C   UNL     1       3.503   3.589  20.037  0.00  0.00    +0.000 A 
BRANCH  18  20
ATOM     20  O   UNL     1       4.921   1.712  19.882  0.00  0.00    +0.000 OA
ATOM     21  H   UNL     1       4.993   0.893  19.366  0.00  0.00    +0.000 HD
ENDBRANCH  18  20
ENDBRANCH  13  14
ENDBRANCH  12  13
ENDBRANCH   1  12
TORSDOF 7
ENDMDL
MODEL 3
REMARK VINA RESULT:      -7.0      2.055      5.985
REMARK  Name = 
REMARK  9 active torsions:
REMARK  status: ('A' for Active; 'I' for Inactive)
REMARK    1  A    between atoms: C_1  and  O_2
REMARK    2  A    between atoms: O_2  and  C_3
REMARK    3  A    between atoms: C_6  and  C_7
REMARK    4  A    between atoms: C_7  and  C_8
REMARK    5  A    between atoms: C_8  and  C_9
REMARK    6  A    between atoms: C_9  and  C_10
REMARK    7  A    between atoms: C_14  and  O_15
REMARK    8  A    between atoms: C_18  and  O_19
REMARK    9  A    between atoms: O_19  and  C_20
REMARK                            x       y       z     vdW  Elec       q    Type
REMARK                         _______ _______ _______ _____ _____    ______ ____
ROOT
ATOM      1  C   UNL     1       4.098   2.893  18.263  0.00  0.00    +0.000 C 
ENDROOT
BRANCH   1   5
ATOM      2  C   UNL     1       6.853   6.050  17.171  0.00  0.00    +0.000 A 
ATOM      3  C   UNL     1       6.475   5.852  18.508  0.00  0.00    +0.000 A 
ATOM      4  C   UNL     1       5.592   4.832  18.868  0.00  0.00    +0.000 A 
ATOM      5  C   UNL     1       5.017   4.032  17.889  0.00  0.00    +0.000 A 
ATOM      6  C   UNL     1       5.288   4.322  16.544  0.00  0.00    +0.000 A 
ATOM      7  C   UNL     1       6.207   5.314  16.167  0.00  0.00    +0.000 A 
BRANCH   2   9
ATOM      8  C   UNL     1       7.824   8.152  17.637  0.00  0.00    +0.000 C 
ATOM      9  O   UNL     1       7.827   6.959  16.849  0.00  0.00    +0.000 OA
ENDBRANCH   2   9
BRANCH   7  10
ATOM     10  O   UNL     1       6.338   5.386  14.806  0.00  0.00    +0.000 OA
ATOM     11  C   UNL     1       6.240   4.211  14.022  0.00  0.00    +0.000 C 
ENDBRANCH   7  10
ENDBRANCH   1   5
BRANCH   1  12
ATOM     12  C   UNL     1       2.618   3.240  18.054  0.00  0.00    +0.000 C 
BRANCH  12  13
ATOM     13  C   UNL     1       2.006   3.858  19.315  0.00  0.00    +0.000 C 
BRANCH  13  14
ATOM     14  C   UNL     1       2.021   5.367  19.270  0.00  0.00    +0.000 A 
ATOM     15  C   UNL     1       2.168   6.049  18.056  0.00  0.00    +0.000 A 
ATOM     16  C   UNL     1       2.189   7.443  18.024  0.00  0.00    +0.000 A 
ATOM     17  C   UNL     1       2.059   8.176  19.204  0.00  0.00    +0.000 A 
ATOM     18  C   UNL     1       1.898   7.499  20.410  0.00  0.00    +0.000 A 
ATOM     19  C   UNL     1       1.874   6.110  20.451  0.00  0.00    +0.000 A 
BRANCH  18  20
ATOM     20  O   UNL     1       1.769   8.172  21.589  0.00  0.00    +0.000 OA
ATOM     21  H   UNL     1       2.299   7.719  22.263  0.00  0.00    +0.000 HD
ENDBRANCH  18  20
ENDBRANCH  13  14
ENDBRANCH  12  13
ENDBRANCH   1  12
TORSDOF 7
ENDMDL
MODEL 4
REMARK VINA RESULT:      -6.9      3.937      5.970
REMARK  Name = 
REMARK  9 active torsions:
REMARK  status: ('A' for Active; 'I' for Inactive)
REMARK    1  A    between atoms: C_1  and  O_2
REMARK    2  A    between atoms: O_2  and  C_3
REMARK    3  A    between atoms: C_6  and  C_7
REMARK    4  A    between atoms: C_7  and  C_8
REMARK    5  A    between atoms: C_8  and  C_9
REMARK    6  A    between atoms: C_9  and  C_10
REMARK    7  A    between atoms: C_14  and  O_15
REMARK    8  A    between atoms: C_18  and  O_19
REMARK    9  A    between atoms: O_19  and  C_20
REMARK                            x       y       z     vdW  Elec       q    Type
REMARK                         _______ _______ _______ _____ _____    ______ ____
ROOT
ATOM      1  C   UNL     1       8.243   7.551  18.583  0.00  0.00    +0.000 C 
ENDROOT
BRANCH   1   5
ATOM      2  C   UNL     1       5.470   4.538  17.172  0.00  0.00    +0.000 A 
ATOM      3  C   UNL     1       5.856   4.591  18.522  0.00  0.00    +0.000 A 
ATOM      4  C   UNL     1       6.745   5.562  18.983  0.00  0.00    +0.000 A 
ATOM      5  C   UNL     1       7.318   6.461  18.094  0.00  0.00    +0.000 A 
ATOM      6  C   UNL     1       7.039   6.318  16.726  0.00  0.00    +0.000 A 
ATOM      7  C   UNL     1       6.115   5.375  16.250  0.00  0.00    +0.000 A 
BRANCH   2   9
ATOM      8  C   UNL     1       3.814   2.979  17.811  0.00  0.00    +0.000 C 
ATOM      9  O   UNL     1       4.492   3.672  16.760  0.00  0.00    +0.000 OA
ENDBRANCH   2   9
BRANCH   7  10
ATOM     10  O   UNL     1       5.978   5.450  14.890  0.00  0.00    +0.000 OA
ATOM     11  C   UNL     1       6.613   4.496  14.060  0.00  0.00    +0.000 C 
ENDBRANCH   7  10
ENDBRANCH   1   5
BRANCH   1  12
ATOM     12  C   UNL     1       8.373   8.705  17.580  0.00  0.00    +0.000 C 
BRANCH  12  13
ATOM     13  C   UNL     1       8.062  10.052  18.236  0.00  0.00    +0.000 C 
BRANCH  13  14
ATOM     14  C   UNL     1       9.312  10.747  18.720  0.00  0.00    +0.000 A 
ATOM     15  C   UNL     1       9.530  10.965  20.086  0.00  0.00    +0.000 A 
ATOM     16  C   UNL     1      10.683  11.615  20.525  0.00  0.00    +0.000 A 
ATOM     17  C   UNL     1      11.638  12.053  19.606  0.00  0.00    +0.000 A 
ATOM     18  C   UNL     1      11.429  11.823  18.249  0.00  0.00    +0.000 A 
ATOM     19  C   UNL     1      10.283  11.174  17.802  0.00  0.00    +0.000 A 
BRANCH  18  20
ATOM     20  O   UNL     1      12.333  12.233  17.314  0.00  0.00    +0.000 OA
ATOM     21  H   UNL     1      12.141  11.777  16.478  0.00  0.00    +0.000 HD
ENDBRANCH  18  20
ENDBRANCH  13  14
ENDBRANCH  12  13
ENDBRANCH   1  12
TORSDOF 7
ENDMDL
MODEL 5
REMARK VINA RESULT:      -6.9      2.108      6.523
REMARK  Name = 
REMARK  9 active torsions:
REMARK  status: ('A' for Active; 'I' for Inactive)
REMARK    1  A    between atoms: C_1  and  O_2
REMARK    2  A    between atoms: O_2  and  C_3
REMARK    3  A    between atoms: C_6  and  C_7
REMARK    4  A    between atoms: C_7  and  C_8
REMARK    5  A    between atoms: C_8  and  C_9
REMARK    6  A    between atoms: C_9  and  C_10
REMARK    7  A    between atoms: C_14  and  O_15
REMARK    8  A    between atoms: C_18  and  O_19
REMARK    9  A    between atoms: O_19  and  C_20
REMARK                            x       y       z     vdW  Elec       q    Type
REMARK                         _______ _______ _______ _____ _____    ______ ____
ROOT
ATOM      1  C   UNL     1       4.506   4.932  19.291  0.00  0.00    +0.000 C 
ENDROOT
BRANCH   1   5
ATOM      2  C   UNL     1       6.635   5.035  15.521  0.00  0.00    +0.000 A 
ATOM      3  C   UNL     1       5.723   4.006  15.808  0.00  0.00    +0.000 A 
ATOM      4  C   UNL     1       5.029   3.971  17.019  0.00  0.00    +0.000 A 
ATOM      5  C   UNL     1       5.282   4.926  17.995  0.00  0.00    +0.000 A 
ATOM      6  C   UNL     1       6.294   5.869  17.761  0.00  0.00    +0.000 A 
ATOM      7  C   UNL     1       6.970   5.945  16.533  0.00  0.00    +0.000 A 
BRANCH   2   9
ATOM      8  C   UNL     1       6.642   4.273  13.285  0.00  0.00    +0.000 C 
ATOM      9  O   UNL     1       7.202   5.137  14.278  0.00  0.00    +0.000 OA
ENDBRANCH   2   9
BRANCH   7  10
ATOM     10  O   UNL     1       7.881   6.968  16.525  0.00  0.00    +0.000 OA
ATOM     11  C   UNL     1       7.756   8.034  17.448  0.00  0.00    +0.000 C 
ENDBRANCH   7  10
ENDBRANCH   1   5
BRANCH   1  12
ATOM     12  C   UNL     1       3.723   6.236  19.499  0.00  0.00    +0.000 C 
BRANCH  12  13
ATOM     13  C   UNL     1       2.232   6.044  19.209  0.00  0.00    +0.000 C 
BRANCH  13  14
ATOM     14  C   UNL     1       1.787   4.623  19.453  0.00  0.00    +0.000 A 
ATOM     15  C   UNL     1       1.424   3.789  18.388  0.00  0.00    +0.000 A 
ATOM     16  C   UNL     1       1.006   2.480  18.623  0.00  0.00    +0.000 A 
ATOM     17  C   UNL     1       0.948   1.982  19.925  0.00  0.00    +0.000 A 
ATOM     18  C   UNL     1       1.323   2.805  20.984  0.00  0.00    +0.000 A 
ATOM     19  C   UNL     1       1.743   4.111  20.759  0.00  0.00    +0.000 A 
BRANCH  18  20
ATOM     20  O   UNL     1       1.281   2.364  22.273  0.00  0.00    +0.000 OA
ATOM     21  H   UNL     1       1.240   1.394  22.267  0.00  0.00    +0.000 HD
ENDBRANCH  18  20
ENDBRANCH  13  14
ENDBRANCH  12  13
ENDBRANCH   1  12
TORSDOF 7
ENDMDL
MODEL 6
REMARK VINA RESULT:      -6.8      1.994      6.552
REMARK  Name = 
REMARK  9 active torsions:
REMARK  status: ('A' for Active; 'I' for Inactive)
REMARK    1  A    between atoms: C_1  and  O_2
REMARK    2  A    between atoms: O_2  and  C_3
REMARK    3  A    between atoms: C_6  and  C_7
REMARK    4  A    between atoms: C_7  and  C_8
REMARK    5  A    between atoms: C_8  and  C_9
REMARK    6  A    between atoms: C_9  and  C_10
REMARK    7  A    between atoms: C_14  and  O_15
REMARK    8  A    between atoms: C_18  and  O_19
REMARK    9  A    between atoms: O_19  and  C_20
REMARK                            x       y       z     vdW  Elec       q    Type
REMARK                         _______ _______ _______ _____ _____    ______ ____
ROOT
ATOM      1  C   UNL     1       3.115   7.604  17.824  0.00  0.00    +0.000 C 
ENDROOT
BRANCH   1   5
ATOM      2  C   UNL     1       6.409   5.312  16.196  0.00  0.00    +0.000 A 
ATOM      3  C   UNL     1       5.146   4.728  16.385  0.00  0.00    +0.000 A 
ATOM      4  C   UNL     1       4.079   5.463  16.904  0.00  0.00    +0.000 A 
ATOM      5  C   UNL     1       4.270   6.779  17.306  0.00  0.00    +0.000 A 
ATOM      6  C   UNL     1       5.565   7.315  17.246  0.00  0.00    +0.000 A 
ATOM      7  C   UNL     1       6.639   6.605  16.687  0.00  0.00    +0.000 A 
BRANCH   2   9
ATOM      8  C   UNL     1       7.255   4.516  14.138  0.00  0.00    +0.000 C 
ATOM      9  O   UNL     1       7.407   4.624  15.556  0.00  0.00    +0.000 OA
ENDBRANCH   2   9
BRANCH   7  10
ATOM     10  O   UNL     1       7.790   7.346  16.700  0.00  0.00    +0.000 OA
ATOM     11  C   UNL     1       8.062   8.215  17.784  0.00  0.00    +0.000 C 
ENDBRANCH   7  10
ENDBRANCH   1   5
BRANCH   1  12
ATOM     12  C   UNL     1       1.984   6.738  18.395  0.00  0.00    +0.000 C 
BRANCH  12  13
ATOM     13  C   UNL     1       2.281   6.312  19.835  0.00  0.00    +0.000 C 
BRANCH  13  14
ATOM     14  C   UNL     1       1.920   4.868  20.083  0.00  0.00    +0.000 A 
ATOM     15  C   UNL     1       2.193   4.259  21.314  0.00  0.00    +0.000 A 
ATOM     16  C   UNL     1       1.863   2.921  21.533  0.00  0.00    +0.000 A 
ATOM     17  C   UNL     1       1.252   2.173  20.526  0.00  0.00    +0.000 A 
ATOM     18  C   UNL     1       0.966   2.782  19.307  0.00  0.00    +0.000 A 
ATOM     19  C   UNL     1       1.289   4.115  19.081  0.00  0.00    +0.000 A 
BRANCH  18  20
ATOM     20  O   UNL     1       0.371   2.091  18.293  0.00  0.00    +0.000 OA
ATOM     21  H   UNL     1      -0.414   2.583  18.003  0.00  0.00    +0.000 HD
ENDBRANCH  18  20
ENDBRANCH  13  14
ENDBRANCH  12  13
ENDBRANCH   1  12
TORSDOF 7
ENDMDL
MODEL 7
REMARK VINA RESULT:      -6.8      2.763      4.274
REMARK  Name = 
REMARK  9 active torsions:
REMARK  status: ('A' for Active; 'I' for Inactive)
REMARK    1  A    between atoms: C_1  and  O_2
REMARK    2  A    between atoms: O_2  and  C_3
REMARK    3  A    between atoms: C_6  and  C_7
REMARK    4  A    between atoms: C_7  and  C_8
REMARK    5  A    between atoms: C_8  and  C_9
REMARK    6  A    between atoms: C_9  and  C_10
REMARK    7  A    between atoms: C_14  and  O_15
REMARK    8  A    between atoms: C_18  and  O_19
REMARK    9  A    between atoms: O_19  and  C_20
REMARK                            x       y       z     vdW  Elec       q    Type
REMARK                         _______ _______ _______ _____ _____    ______ ____
ROOT
ATOM      1  C   UNL     1       3.140   7.289  17.880  0.00  0.00    +0.000 C 
ENDROOT
BRANCH   1   5
ATOM      2  C   UNL     1       0.544   9.450  20.590  0.00  0.00    +0.000 A 
ATOM      3  C   UNL     1       1.183   8.266  20.992  0.00  0.00    +0.000 A 
ATOM      4  C   UNL     1       2.025   7.568  20.126  0.00  0.00    +0.000 A 
ATOM      5  C   UNL     1       2.194   8.003  18.818  0.00  0.00    +0.000 A 
ATOM      6  C   UNL     1       1.445   9.105  18.378  0.00  0.00    +0.000 A 
ATOM      7  C   UNL     1       0.628   9.844  19.248  0.00  0.00    +0.000 A 
BRANCH   2   9
ATOM      8  C   UNL     1      -0.220   9.663  22.816  0.00  0.00    +0.000 C 
ATOM      9  O   UNL     1      -0.165  10.200  21.492  0.00  0.00    +0.000 OA
ENDBRANCH   2   9
BRANCH   7  10
ATOM     10  O   UNL     1       0.033  10.896  18.604  0.00  0.00    +0.000 OA
ATOM     11  C   UNL     1      -1.325  10.811  18.212  0.00  0.00    +0.000 C 
ENDBRANCH   7  10
ENDBRANCH   1   5
BRANCH   1  12
ATOM     12  C   UNL     1       3.106   5.765  18.063  0.00  0.00    +0.000 C 
BRANCH  12  13
ATOM     13  C   UNL     1       4.298   5.095  17.374  0.00  0.00    +0.000 C 
BRANCH  13  14
ATOM     14  C   UNL     1       5.613   5.695  17.808  0.00  0.00    +0.000 A 
ATOM     15  C   UNL     1       6.234   6.694  17.048  0.00  0.00    +0.000 A 
ATOM     16  C   UNL     1       7.453   7.238  17.451  0.00  0.00    +0.000 A 
ATOM     17  C   UNL     1       8.068   6.795  18.623  0.00  0.00    +0.000 A 
ATOM     18  C   UNL     1       7.445   5.812  19.387  0.00  0.00    +0.000 A 
ATOM     19  C   UNL     1       6.229   5.266  18.994  0.00  0.00    +0.000 A 
BRANCH  18  20
ATOM     20  O   UNL     1       8.009   5.346  20.538  0.00  0.00    +0.000 OA
ATOM     21  H   UNL     1       7.344   4.830  21.021  0.00  0.00    +0.000 HD
ENDBRANCH  18  20
ENDBRANCH  13  14
ENDBRANCH  12  13
ENDBRANCH   1  12
TORSDOF 7
ENDMDL
MODEL 8
REMARK VINA RESULT:      -6.8      2.185      5.774
REMARK  Name = 
REMARK  9 active torsions:
REMARK  status: ('A' for Active; 'I' for Inactive)
REMARK    1  A    between atoms: C_1  and  O_2
REMARK    2  A    between atoms: O_2  and  C_3
REMARK    3  A    between atoms: C_6  and  C_7
REMARK    4  A    between atoms: C_7  and  C_8
REMARK    5  A    between atoms: C_8  and  C_9
REMARK    6  A    between atoms: C_9  and  C_10
REMARK    7  A    between atoms: C_14  and  O_15
REMARK    8  A    between atoms: C_18  and  O_19
REMARK    9  A    between atoms: O_19  and  C_20
REMARK                            x       y       z     vdW  Elec       q    Type
REMARK                         _______ _______ _______ _____ _____    ______ ____
ROOT
ATOM      1  C   UNL     1       2.604   6.261  20.458  0.00  0.00    +0.000 C 
ENDROOT
BRANCH   1   5
ATOM      2  C   UNL     1       5.385   6.057  17.144  0.00  0.00    +0.000 A 
ATOM      3  C   UNL     1       4.070   6.513  16.957  0.00  0.00    +0.000 A 
ATOM      4  C   UNL     1       3.171   6.586  18.022  0.00  0.00    +0.000 A 
ATOM      5  C   UNL     1       3.547   6.143  19.283  0.00  0.00    +0.000 A 
ATOM      6  C   UNL     1       4.813   5.558  19.436  0.00  0.00    +0.000 A 
ATOM      7  C   UNL     1       5.745   5.516  18.386  0.00  0.00    +0.000 A 
BRANCH   2   9
ATOM      8  C   UNL     1       6.627   4.866  15.525  0.00  0.00    +0.000 C 
ATOM      9  O   UNL     1       6.297   6.123  16.123  0.00  0.00    +0.000 OA
ENDBRANCH   2   9
BRANCH   7  10
ATOM     10  O   UNL     1       6.921   4.939  18.783  0.00  0.00    +0.000 OA
ATOM     11  C   UNL     1       7.959   5.741  19.316  0.00  0.00    +0.000 C 
ENDBRANCH   7  10
ENDBRANCH   1   5
BRANCH   1  12
ATOM     12  C   UNL     1       1.250   5.590  20.192  0.00  0.00    +0.000 C 
BRANCH  12  13
ATOM     13  C   UNL     1       1.247   4.133  20.663  0.00  0.00    +0.000 C 
BRANCH  13  14
ATOM     14  C   UNL     1       2.097   3.252  19.780  0.00  0.00    +0.000 A 
ATOM     15  C   UNL     1       1.740   3.008  18.449  0.00  0.00    +0.000 A 
ATOM     16  C   UNL     1       2.526   2.186  17.642  0.00  0.00    +0.000 A 
ATOM     17  C   UNL     1       3.685   1.599  18.153  0.00  0.00    +0.000 A 
ATOM     18  C   UNL     1       4.050   1.853  19.472  0.00  0.00    +0.000 A 
ATOM     19  C   UNL     1       3.273   2.673  20.283  0.00  0.00    +0.000 A 
BRANCH  18  20
ATOM     20  O   UNL     1       5.172   1.302  20.016  0.00  0.00    +0.000 OA
ATOM     21  H   UNL     1       4.928   0.854  20.841  0.00  0.00    +0.000 HD
ENDBRANCH  18  20
ENDBRANCH  13  14
ENDBRANCH  12  13
ENDBRANCH   1  12
TORSDOF 7
ENDMDL
MODEL 9
REMARK VINA RESULT:      -6.8      2.170      5.944
REMARK  Name = 
REMARK  9 active torsions:
REMARK  status: ('A' for Active; 'I' for Inactive)
REMARK    1  A    between atoms: C_1  and  O_2
REMARK    2  A    between atoms: O_2  and  C_3
REMARK    3  A    between atoms: C_6  and  C_7
REMARK    4  A    between atoms: C_7  and  C_8
REMARK    5  A    between atoms: C_8  and  C_9
REMARK    6  A    between atoms: C_9  and  C_10
REMARK    7  A    between atoms: C_14  and  O_15
REMARK    8  A    between atoms: C_18  and  O_19
REMARK    9  A    between atoms: O_19  and  C_20
REMARK                            x       y       z     vdW  Elec       q    Type
REMARK                         _______ _______ _______ _____ _____    ______ ____
ROOT
ATOM      1  C   UNL     1       3.760   2.611  18.391  0.00  0.00    +0.000 C 
ENDROOT
BRANCH   1   5
ATOM      2  C   UNL     1       6.377   5.784  17.035  0.00  0.00    +0.000 A 
ATOM      3  C   UNL     1       6.121   5.593  18.403  0.00  0.00    +0.000 A 
ATOM      4  C   UNL     1       5.283   4.569  18.846  0.00  0.00    +0.000 A 
ATOM      5  C   UNL     1       4.631   3.756  17.929  0.00  0.00    +0.000 A 
ATOM      6  C   UNL     1       4.779   4.038  16.562  0.00  0.00    +0.000 A 
ATOM      7  C   UNL     1       5.651   5.035  16.098  0.00  0.00    +0.000 A 
BRANCH   2   9
ATOM      8  C   UNL     1       7.742   7.619  17.627  0.00  0.00    +0.000 C 
ATOM      9  O   UNL     1       7.309   6.700  16.621  0.00  0.00    +0.000 OA
ENDBRANCH   2   9
BRANCH   7  10
ATOM     10  O   UNL     1       5.658   5.097  14.731  0.00  0.00    +0.000 OA
ATOM     11  C   UNL     1       6.573   4.310  13.991  0.00  0.00    +0.000 C 
ENDBRANCH   7  10
ENDBRANCH   1   5
BRANCH   1  12
ATOM     12  C   UNL     1       2.451   2.512  17.596  0.00  0.00    +0.000 C 
BRANCH  12  13
ATOM     13  C   UNL     1       1.279   3.117  18.373  0.00  0.00    +0.000 C 
BRANCH  13  14
ATOM     14  C   UNL     1       1.609   4.486  18.918  0.00  0.00    +0.000 A 
ATOM     15  C   UNL     1       1.602   4.732  20.296  0.00  0.00    +0.000 A 
ATOM     16  C   UNL     1       1.899   6.002  20.792  0.00  0.00    +0.000 A 
ATOM     17  C   UNL     1       2.213   7.043  19.917  0.00  0.00    +0.000 A 
ATOM     18  C   UNL     1       2.235   6.795  18.547  0.00  0.00    +0.000 A 
ATOM     19  C   UNL     1       1.942   5.533  18.045  0.00  0.00    +0.000 A 
BRANCH  18  20
ATOM     20  O   UNL     1       2.535   7.781  17.654  0.00  0.00    +0.000 OA
ATOM     21  H   UNL     1       1.956   8.541  17.827  0.00  0.00    +0.000 HD
ENDBRANCH  18  20
ENDBRANCH  13  14
ENDBRANCH  12  13
ENDBRANCH   1  12
TORSDOF 7
ENDMDL
