MODEL 1
REMARK VINA RESULT:      -7.5      0.000      0.000
REMARK  Name = 
REMARK  7 active torsions:
REMARK  status: ('A' for Active; 'I' for Inactive)
REMARK    1  A    between atoms: C_1  and  C_2
REMARK    2  A    between atoms: C_2  and  C_3
REMARK    3  A    between atoms: C_2  and  C_4
REMARK    4  A    between atoms: C_2  and  O_5
REMARK    5  A    between atoms: O_5  and  C_6
REMARK    6  A    between atoms: C_14  and  C_15
REMARK    7  A    between atoms: C_15  and  O_17
REMARK                            x       y       z     vdW  Elec       q    Type
REMARK                         _______ _______ _______ _____ _____    ______ ____
ROOT
ATOM      1  C   UNL     1       5.015   4.942  19.322  0.00  0.00    +0.000 C 
ATOM      2  O   UNL     1       5.550   4.125  20.058  0.00  0.00    +0.000 OA
ATOM      3  N   UNL     1       5.712   5.651  18.381  0.00  0.00    +0.000 N 
ATOM      4  C   UNL     1       5.173   6.426  17.288  0.00  0.00    +0.000 C 
ATOM      5  C   UNL     1       6.261   7.499  17.091  0.00  0.00    +0.000 C 
ATOM      6  C   UNL     1       7.551   6.854  17.637  0.00  0.00    +0.000 C 
ATOM      7  C   UNL     1       7.124   5.466  18.124  0.00  0.00    +0.000 C 
ATOM      8  C   UNL     1       7.288   4.396  17.026  0.00  0.00    +0.000 C 
ATOM      9  C   UNL     1       6.367   4.660  15.823  0.00  0.00    +0.000 C 
ATOM     10  C   UNL     1       4.965   4.075  15.937  0.00  0.00    +0.000 C 
ATOM     11  C   UNL     1       5.138   5.567  16.044  0.00  0.00    +0.000 C 
ENDROOT
BRANCH   9  12
ATOM     12  C   UNL     1       7.038   4.872  14.507  0.00  0.00    +0.000 C 
ATOM     13  O   UNL     1       7.978   5.637  14.376  0.00  0.00    +0.000 OA
BRANCH  12  14
ATOM     14  O   UNL     1       6.526   4.117  13.513  0.00  0.00    +0.000 OA
ATOM     15  H   UNL     1       5.821   4.581  13.029  0.00  0.00    +0.000 HD
ENDBRANCH  12  14
ENDBRANCH   9  12
BRANCH   1  16
ATOM     16  O   UNL     1       3.692   5.259  19.333  0.00  0.00    +0.000 OA
BRANCH  16  18
ATOM     17  C   UNL     1       3.346   2.856  18.858  0.00  0.00    +0.000 C 
ATOM     18  C   UNL     1       2.702   4.237  19.040  0.00  0.00    +0.000 C 
ATOM     19  C   UNL     1       1.849   4.650  17.835  0.00  0.00    +0.000 C 
ATOM     20  C   UNL     1       1.788   4.168  20.275  0.00  0.00    +0.000 C 
ENDBRANCH  16  18
ENDBRANCH   1  16
TORSDOF 4
ENDMDL
MODEL 2
REMARK VINA RESULT:      -7.3      0.109      1.231
REMARK  Name = 
REMARK  7 active torsions:
REMARK  status: ('A' for Active; 'I' for Inactive)
REMARK    1  A    between atoms: C_1  and  C_2
REMARK    2  A    between atoms: C_2  and  C_3
REMARK    3  A    between atoms: C_2  and  C_4
REMARK    4  A    between atoms: C_2  and  O_5
REMARK    5  A    between atoms: O_5  and  C_6
REMARK    6  A    between atoms: C_14  and  C_15
REMARK    7  A    between atoms: C_15  and  O_17
REMARK                            x       y       z     vdW  Elec       q    Type
REMARK                         _______ _______ _______ _____ _____    ______ ____
ROOT
ATOM      1  C   UNL     1       5.003   4.916  19.315  0.00  0.00    +0.000 C 
ATOM      2  O   UNL     1       5.563   4.126  20.061  0.00  0.00    +0.000 OA
ATOM      3  N   UNL     1       5.672   5.615  18.347  0.00  0.00    +0.000 N 
ATOM      4  C   UNL     1       5.103   6.355  17.246  0.00  0.00    +0.000 C 
ATOM      5  C   UNL     1       6.169   7.442  17.007  0.00  0.00    +0.000 C 
ATOM      6  C   UNL     1       7.478   6.833  17.548  0.00  0.00    +0.000 C 
ATOM      7  C   UNL     1       7.084   5.449  18.073  0.00  0.00    +0.000 C 
ATOM      8  C   UNL     1       7.250   4.358  16.997  0.00  0.00    +0.000 C 
ATOM      9  C   UNL     1       6.307   4.577  15.803  0.00  0.00    +0.000 C 
ATOM     10  C   UNL     1       4.918   3.970  15.952  0.00  0.00    +0.000 C 
ATOM     11  C   UNL     1       5.066   5.466  16.022  0.00  0.00    +0.000 C 
ENDROOT
BRANCH   9  12
ATOM     12  C   UNL     1       6.954   4.770  14.472  0.00  0.00    +0.000 C 
ATOM     13  O   UNL     1       6.559   4.196  13.472  0.00  0.00    +0.000 OA
BRANCH  12  14
ATOM     14  O   UNL     1       7.973   5.654  14.492  0.00  0.00    +0.000 OA
ATOM     15  H   UNL     1       8.816   5.234  14.734  0.00  0.00    +0.000 HD
ENDBRANCH  12  14
ENDBRANCH   9  12
BRANCH   1  16
ATOM     16  O   UNL     1       3.675   5.209  19.339  0.00  0.00    +0.000 OA
BRANCH  16  18
ATOM     17  C   UNL     1       1.773   4.018  20.378  0.00  0.00    +0.000 C 
ATOM     18  C   UNL     1       2.697   4.149  19.161  0.00  0.00    +0.000 C 
ATOM     19  C   UNL     1       3.398   2.831  18.812  0.00  0.00    +0.000 C 
ATOM     20  C   UNL     1       1.834   4.568  17.960  0.00  0.00    +0.000 C 
ENDBRANCH  16  18
ENDBRANCH   1  16
TORSDOF 4
ENDMDL
MODEL 3
REMARK VINA RESULT:      -7.2      0.169      1.014
REMARK  Name = 
REMARK  7 active torsions:
REMARK  status: ('A' for Active; 'I' for Inactive)
REMARK    1  A    between atoms: C_1  and  C_2
REMARK    2  A    between atoms: C_2  and  C_3
REMARK    3  A    between atoms: C_2  and  C_4
REMARK    4  A    between atoms: C_2  and  O_5
REMARK    5  A    between atoms: O_5  and  C_6
REMARK    6  A    between atoms: C_14  and  C_15
REMARK    7  A    between atoms: C_15  and  O_17
REMARK                            x       y       z     vdW  Elec       q    Type
REMARK                         _______ _______ _______ _____ _____    ______ ____
ROOT
ATOM      1  C   UNL     1       5.057   5.074  19.359  0.00  0.00    +0.000 C 
ATOM      2  O   UNL     1       5.592   4.289  20.129  0.00  0.00    +0.000 OA
ATOM      3  N   UNL     1       5.749   5.727  18.375  0.00  0.00    +0.000 N 
ATOM      4  C   UNL     1       5.205   6.452  17.251  0.00  0.00    +0.000 C 
ATOM      5  C   UNL     1       6.301   7.502  16.987  0.00  0.00    +0.000 C 
ATOM      6  C   UNL     1       7.592   6.871  17.549  0.00  0.00    +0.000 C 
ATOM      7  C   UNL     1       7.156   5.513  18.110  0.00  0.00    +0.000 C 
ATOM      8  C   UNL     1       7.294   4.388  17.066  0.00  0.00    +0.000 C 
ATOM      9  C   UNL     1       6.361   4.601  15.863  0.00  0.00    +0.000 C 
ATOM     10  C   UNL     1       4.955   4.039  16.023  0.00  0.00    +0.000 C 
ATOM     11  C   UNL     1       5.145   5.531  16.053  0.00  0.00    +0.000 C 
ENDROOT
BRANCH   9  12
ATOM     12  C   UNL     1       7.018   4.739  14.529  0.00  0.00    +0.000 C 
ATOM     13  O   UNL     1       7.834   5.615  14.298  0.00  0.00    +0.000 OA
BRANCH  12  14
ATOM     14  O   UNL     1       6.645   3.792  13.644  0.00  0.00    +0.000 OA
ATOM     15  H   UNL     1       6.624   4.132  12.733  0.00  0.00    +0.000 HD
ENDBRANCH  12  14
ENDBRANCH   9  12
BRANCH   1  16
ATOM     16  O   UNL     1       3.738   5.406  19.370  0.00  0.00    +0.000 OA
BRANCH  16  18
ATOM     17  C   UNL     1       1.855   4.607  17.979  0.00  0.00    +0.000 C 
ATOM     18  C   UNL     1       2.731   4.370  19.216  0.00  0.00    +0.000 C 
ATOM     19  C   UNL     1       1.907   4.232  20.501  0.00  0.00    +0.000 C 
ATOM     20  C   UNL     1       3.504   3.059  18.998  0.00  0.00    +0.000 C 
ENDBRANCH  16  18
ENDBRANCH   1  16
TORSDOF 4
ENDMDL
MODEL 4
REMARK VINA RESULT:      -7.2      1.992      5.800
REMARK  Name = 
REMARK  7 active torsions:
REMARK  status: ('A' for Active; 'I' for Inactive)
REMARK    1  A    between atoms: C_1  and  C_2
REMARK    2  A    between atoms: C_2  and  C_3
REMARK    3  A    between atoms: C_2  and  C_4
REMARK    4  A    between atoms: C_2  and  O_5
REMARK    5  A    between atoms: O_5  and  C_6
REMARK    6  A    between atoms: C_14  and  C_15
REMARK    7  A    between atoms: C_15  and  O_17
REMARK                            x       y       z     vdW  Elec       q    Type
REMARK                         _______ _______ _______ _____ _____    ______ ____
ROOT
ATOM      1  C   UNL     1       5.451   4.635  18.600  0.00  0.00    +0.000 C 
ATOM      2  O   UNL     1       6.471   4.395  19.230  0.00  0.00    +0.000 OA
ATOM      3  N   UNL     1       4.396   3.764  18.548  0.00  0.00    +0.000 N 
ATOM      4  C   UNL     1       3.058   4.033  18.080  0.00  0.00    +0.000 C 
ATOM      5  C   UNL     1       2.610   2.647  17.577  0.00  0.00    +0.000 C 
ATOM      6  C   UNL     1       3.468   1.645  18.376  0.00  0.00    +0.000 C 
ATOM      7  C   UNL     1       4.358   2.511  19.273  0.00  0.00    +0.000 C 
ATOM      8  C   UNL     1       3.715   2.761  20.651  0.00  0.00    +0.000 C 
ATOM      9  C   UNL     1       2.412   3.569  20.542  0.00  0.00    +0.000 C 
ATOM     10  C   UNL     1       2.582   5.082  20.544  0.00  0.00    +0.000 C 
ATOM     11  C   UNL     1       2.187   4.400  19.262  0.00  0.00    +0.000 C 
ENDROOT
BRANCH   9  12
ATOM     12  C   UNL     1       1.174   2.905  21.048  0.00  0.00    +0.000 C 
ATOM     13  O   UNL     1       1.093   2.469  22.184  0.00  0.00    +0.000 OA
BRANCH  12  14
ATOM     14  O   UNL     1       0.171   2.874  20.147  0.00  0.00    +0.000 OA
ATOM     15  H   UNL     1      -0.106   1.965  19.942  0.00  0.00    +0.000 HD
ENDBRANCH  12  14
ENDBRANCH   9  12
BRANCH   1  16
ATOM     16  O   UNL     1       5.224   5.765  17.878  0.00  0.00    +0.000 OA
BRANCH  16  18
ATOM     17  C   UNL     1       6.636   4.798  16.093  0.00  0.00    +0.000 C 
ATOM     18  C   UNL     1       6.057   6.069  16.728  0.00  0.00    +0.000 C 
ATOM     19  C   UNL     1       7.143   7.082  17.108  0.00  0.00    +0.000 C 
ATOM     20  C   UNL     1       5.127   6.726  15.694  0.00  0.00    +0.000 C 
ENDBRANCH  16  18
ENDBRANCH   1  16
TORSDOF 4
ENDMDL
MODEL 5
REMARK VINA RESULT:      -7.0      1.095      1.552
REMARK  Name = 
REMARK  7 active torsions:
REMARK  status: ('A' for Active; 'I' for Inactive)
REMARK    1  A    between atoms: C_1  and  C_2
REMARK    2  A    between atoms: C_2  and  C_3
REMARK    3  A    between atoms: C_2  and  C_4
REMARK    4  A    between atoms: C_2  and  O_5
REMARK    5  A    between atoms: O_5  and  C_6
REMARK    6  A    between atoms: C_14  and  C_15
REMARK    7  A    between atoms: C_15  and  O_17
REMARK                            x       y       z     vdW  Elec       q    Type
REMARK                         _______ _______ _______ _____ _____    ______ ____
ROOT
ATOM      1  C   UNL     1       4.573   3.738  19.156  0.00  0.00    +0.000 C 
ATOM      2  O   UNL     1       5.317   3.208  19.969  0.00  0.00    +0.000 OA
ATOM      3  N   UNL     1       4.995   4.727  18.309  0.00  0.00    +0.000 N 
ATOM      4  C   UNL     1       4.312   5.235  17.143  0.00  0.00    +0.000 C 
ATOM      5  C   UNL     1       4.824   6.687  17.080  0.00  0.00    +0.000 C 
ATOM      6  C   UNL     1       6.185   6.655  17.805  0.00  0.00    +0.000 C 
ATOM      7  C   UNL     1       6.363   5.199  18.248  0.00  0.00    +0.000 C 
ATOM      8  C   UNL     1       7.123   4.367  17.198  0.00  0.00    +0.000 C 
ATOM      9  C   UNL     1       6.343   4.253  15.878  0.00  0.00    +0.000 C 
ATOM     10  C   UNL     1       5.346   3.104  15.808  0.00  0.00    +0.000 C 
ATOM     11  C   UNL     1       4.822   4.510  15.918  0.00  0.00    +0.000 C 
ENDROOT
BRANCH   9  12
ATOM     12  C   UNL     1       7.011   4.804  14.662  0.00  0.00    +0.000 C 
ATOM     13  O   UNL     1       7.857   5.679  14.729  0.00  0.00    +0.000 OA
BRANCH  12  14
ATOM     14  O   UNL     1       6.612   4.217  13.514  0.00  0.00    +0.000 OA
ATOM     15  H   UNL     1       6.948   4.684  12.730  0.00  0.00    +0.000 HD
ENDBRANCH  12  14
ENDBRANCH   9  12
BRANCH   1  16
ATOM     16  O   UNL     1       3.258   3.435  18.983  0.00  0.00    +0.000 OA
BRANCH  16  18
ATOM     17  C   UNL     1       2.319   5.222  20.412  0.00  0.00    +0.000 C 
ATOM     18  C   UNL     1       2.303   3.735  20.035  0.00  0.00    +0.000 C 
ATOM     19  C   UNL     1       2.536   2.821  21.244  0.00  0.00    +0.000 C 
ATOM     20  C   UNL     1       0.917   3.415  19.451  0.00  0.00    +0.000 C 
ENDBRANCH  16  18
ENDBRANCH   1  16
TORSDOF 4
ENDMDL
MODEL 6
REMARK VINA RESULT:      -7.0      2.014      5.795
REMARK  Name = 
REMARK  7 active torsions:
REMARK  status: ('A' for Active; 'I' for Inactive)
REMARK    1  A    between atoms: C_1  and  C_2
REMARK    2  A    between atoms: C_2  and  C_3
REMARK    3  A    between atoms: C_2  and  C_4
REMARK    4  A    between atoms: C_2  and  O_5
REMARK    5  A    between atoms: O_5  and  C_6
REMARK    6  A    between atoms: C_14  and  C_15
REMARK    7  A    between atoms: C_15  and  O_17
REMARK                            x       y       z     vdW  Elec       q    Type
REMARK                         _______ _______ _______ _____ _____    ______ ____
ROOT
ATOM      1  C   UNL     1       5.436   4.702  18.653  0.00  0.00    +0.000 C 
ATOM      2  O   UNL     1       6.454   4.453  19.281  0.00  0.00    +0.000 OA
ATOM      3  N   UNL     1       4.385   3.828  18.578  0.00  0.00    +0.000 N 
ATOM      4  C   UNL     1       3.046   4.102  18.112  0.00  0.00    +0.000 C 
ATOM      5  C   UNL     1       2.607   2.726  17.576  0.00  0.00    +0.000 C 
ATOM      6  C   UNL     1       3.466   1.709  18.355  0.00  0.00    +0.000 C 
ATOM      7  C   UNL     1       4.349   2.560  19.275  0.00  0.00    +0.000 C 
ATOM      8  C   UNL     1       3.701   2.775  20.656  0.00  0.00    +0.000 C 
ATOM      9  C   UNL     1       2.394   3.580  20.560  0.00  0.00    +0.000 C 
ATOM     10  C   UNL     1       2.558   5.093  20.597  0.00  0.00    +0.000 C 
ATOM     11  C   UNL     1       2.170   4.439  19.298  0.00  0.00    +0.000 C 
ENDROOT
BRANCH   9  12
ATOM     12  C   UNL     1       1.158   2.899  21.047  0.00  0.00    +0.000 C 
ATOM     13  O   UNL     1       1.057   2.482  22.188  0.00  0.00    +0.000 OA
BRANCH  12  14
ATOM     14  O   UNL     1       0.179   2.832  20.121  0.00  0.00    +0.000 OA
ATOM     15  H   UNL     1      -0.531   2.222  20.385  0.00  0.00    +0.000 HD
ENDBRANCH  12  14
ENDBRANCH   9  12
BRANCH   1  16
ATOM     16  O   UNL     1       5.205   5.848  17.956  0.00  0.00    +0.000 OA
BRANCH  16  18
ATOM     17  C   UNL     1       7.167   7.129  17.164  0.00  0.00    +0.000 C 
ATOM     18  C   UNL     1       6.027   6.169  16.802  0.00  0.00    +0.000 C 
ATOM     19  C   UNL     1       5.155   6.698  15.658  0.00  0.00    +0.000 C 
ATOM     20  C   UNL     1       6.658   4.841  16.351  0.00  0.00    +0.000 C 
ENDBRANCH  16  18
ENDBRANCH   1  16
TORSDOF 4
ENDMDL
MODEL 7
REMARK VINA RESULT:      -7.0      2.064      5.811
REMARK  Name = 
REMARK  7 active torsions:
REMARK  status: ('A' for Active; 'I' for Inactive)
REMARK    1  A    between atoms: C_1  and  C_2
REMARK    2  A    between atoms: C_2  and  C_3
REMARK    3  A    between atoms: C_2  and  C_4
REMARK    4  A    between atoms: C_2  and  O_5
REMARK    5  A    between atoms: O_5  and  C_6
REMARK    6  A    between atoms: C_14  and  C_15
REMARK    7  A    between atoms: C_15  and  O_17
REMARK                            x       y       z     vdW  Elec       q    Type
REMARK                         _______ _______ _______ _____ _____    ______ ____
ROOT
ATOM      1  C   UNL     1       4.853   3.827  16.936  0.00  0.00    +0.000 C 
ATOM      2  O   UNL     1       4.916   2.926  16.112  0.00  0.00    +0.000 OA
ATOM      3  N   UNL     1       3.690   4.157  17.578  0.00  0.00    +0.000 N 
ATOM      4  C   UNL     1       3.538   4.994  18.744  0.00  0.00    +0.000 C 
ATOM      5  C   UNL     1       2.123   5.571  18.540  0.00  0.00    +0.000 C 
ATOM      6  C   UNL     1       1.402   4.537  17.652  0.00  0.00    +0.000 C 
ATOM      7  C   UNL     1       2.444   3.444  17.392  0.00  0.00    +0.000 C 
ATOM      8  C   UNL     1       2.365   2.313  18.436  0.00  0.00    +0.000 C 
ATOM      9  C   UNL     1       2.704   2.810  19.850  0.00  0.00    +0.000 C 
ATOM     10  C   UNL     1       4.184   2.795  20.207  0.00  0.00    +0.000 C 
ATOM     11  C   UNL     1       3.508   4.120  19.978  0.00  0.00    +0.000 C 
ENDROOT
BRANCH   9  12
ATOM     12  C   UNL     1       1.634   2.662  20.881  0.00  0.00    +0.000 C 
ATOM     13  O   UNL     1       1.880   2.311  22.022  0.00  0.00    +0.000 OA
BRANCH  12  14
ATOM     14  O   UNL     1       0.404   2.986  20.431  0.00  0.00    +0.000 OA
ATOM     15  H   UNL     1      -0.109   2.201  20.174  0.00  0.00    +0.000 HD
ENDBRANCH  12  14
ENDBRANCH   9  12
BRANCH   1  16
ATOM     16  O   UNL     1       5.896   4.611  17.322  0.00  0.00    +0.000 OA
BRANCH  16  18
ATOM     17  C   UNL     1       5.260   6.500  15.857  0.00  0.00    +0.000 C 
ATOM     18  C   UNL     1       6.396   5.641  16.427  0.00  0.00    +0.000 C 
ATOM     19  C   UNL     1       7.268   5.018  15.331  0.00  0.00    +0.000 C 
ATOM     20  C   UNL     1       7.286   6.552  17.289  0.00  0.00    +0.000 C 
ENDBRANCH  16  18
ENDBRANCH   1  16
TORSDOF 4
ENDMDL
MODEL 8
REMARK VINA RESULT:      -6.9      1.095      1.379
REMARK  Name = 
REMARK  7 active torsions:
REMARK  status: ('A' for Active; 'I' for Inactive)
REMARK    1  A    between atoms: C_1  and  C_2
REMARK    2  A    between atoms: C_2  and  C_3
REMARK    3  A    between atoms: C_2  and  C_4
REMARK    4  A    between atoms: C_2  and  O_5
REMARK    5  A    between atoms: O_5  and  C_6
REMARK    6  A    between atoms: C_14  and  C_15
REMARK    7  A    between atoms: C_15  and  O_17
REMARK                            x       y       z     vdW  Elec       q    Type
REMARK                         _______ _______ _______ _____ _____    ______ ____
ROOT
ATOM      1  C   UNL     1       4.602   3.737  19.067  0.00  0.00    +0.000 C 
ATOM      2  O   UNL     1       5.348   3.234  19.895  0.00  0.00    +0.000 OA
ATOM      3  N   UNL     1       5.013   4.720  18.208  0.00  0.00    +0.000 N 
ATOM      4  C   UNL     1       4.332   5.196  17.028  0.00  0.00    +0.000 C 
ATOM      5  C   UNL     1       4.816   6.657  16.947  0.00  0.00    +0.000 C 
ATOM      6  C   UNL     1       6.170   6.662  17.685  0.00  0.00    +0.000 C 
ATOM      7  C   UNL     1       6.372   5.217  18.153  0.00  0.00    +0.000 C 
ATOM      8  C   UNL     1       7.159   4.384  17.123  0.00  0.00    +0.000 C 
ATOM      9  C   UNL     1       6.394   4.234  15.797  0.00  0.00    +0.000 C 
ATOM     10  C   UNL     1       5.420   3.065  15.737  0.00  0.00    +0.000 C 
ATOM     11  C   UNL     1       4.868   4.463  15.819  0.00  0.00    +0.000 C 
ENDROOT
BRANCH   9  12
ATOM     12  C   UNL     1       7.063   4.779  14.579  0.00  0.00    +0.000 C 
ATOM     13  O   UNL     1       7.884   5.678  14.640  0.00  0.00    +0.000 OA
BRANCH  12  14
ATOM     14  O   UNL     1       6.696   4.158  13.439  0.00  0.00    +0.000 OA
ATOM     15  H   UNL     1       5.797   4.406  13.163  0.00  0.00    +0.000 HD
ENDBRANCH  12  14
ENDBRANCH   9  12
BRANCH   1  16
ATOM     16  O   UNL     1       3.295   3.406  18.886  0.00  0.00    +0.000 OA
BRANCH  16  18
ATOM     17  C   UNL     1       0.889   3.398  19.460  0.00  0.00    +0.000 C 
ATOM     18  C   UNL     1       2.316   3.748  19.903  0.00  0.00    +0.000 C 
ATOM     19  C   UNL     1       2.459   5.219  20.308  0.00  0.00    +0.000 C 
ATOM     20  C   UNL     1       2.654   2.877  21.125  0.00  0.00    +0.000 C 
ENDBRANCH  16  18
ENDBRANCH   1  16
TORSDOF 4
ENDMDL
MODEL 9
REMARK VINA RESULT:      -6.8      1.909      3.325
REMARK  Name = 
REMARK  7 active torsions:
REMARK  status: ('A' for Active; 'I' for Inactive)
REMARK    1  A    between atoms: C_1  and  C_2
REMARK    2  A    between atoms: C_2  and  C_3
REMARK    3  A    between atoms: C_2  and  C_4
REMARK    4  A    between atoms: C_2  and  O_5
REMARK    5  A    between atoms: O_5  and  C_6
REMARK    6  A    between atoms: C_14  and  C_15
REMARK    7  A    between atoms: C_15  and  O_17
REMARK                            x       y       z     vdW  Elec       q    Type
REMARK                         _______ _______ _______ _____ _____    ______ ____
ROOT
ATOM      1  C   UNL     1       3.035   4.455  17.681  0.00  0.00    +0.000 C 
ATOM      2  O   UNL     1       2.104   5.242  17.770  0.00  0.00    +0.000 OA
ATOM      3  N   UNL     1       4.185   4.751  17.000  0.00  0.00    +0.000 N 
ATOM      4  C   UNL     1       5.441   4.040  17.046  0.00  0.00    +0.000 C 
ATOM      5  C   UNL     1       6.021   4.327  15.647  0.00  0.00    +0.000 C 
ATOM      6  C   UNL     1       5.360   5.651  15.212  0.00  0.00    +0.000 C 
ATOM      7  C   UNL     1       4.436   6.032  16.374  0.00  0.00    +0.000 C 
ATOM      8  C   UNL     1       5.143   6.947  17.393  0.00  0.00    +0.000 C 
ATOM      9  C   UNL     1       6.321   6.241  18.082  0.00  0.00    +0.000 C 
ATOM     10  C   UNL     1       5.961   5.434  19.322  0.00  0.00    +0.000 C 
ATOM     11  C   UNL     1       6.343   4.698  18.066  0.00  0.00    +0.000 C 
ENDROOT
BRANCH   9  12
ATOM     12  C   UNL     1       7.667   6.860  17.897  0.00  0.00    +0.000 C 
ATOM     13  O   UNL     1       8.020   7.331  16.829  0.00  0.00    +0.000 OA
BRANCH  12  14
ATOM     14  O   UNL     1       8.415   6.871  19.020  0.00  0.00    +0.000 OA
ATOM     15  H   UNL     1       9.231   6.353  18.919  0.00  0.00    +0.000 HD
ENDBRANCH  12  14
ENDBRANCH   9  12
BRANCH   1  16
ATOM     16  O   UNL     1       3.063   3.209  18.225  0.00  0.00    +0.000 OA
BRANCH  16  18
ATOM     17  C   UNL     1       2.751   4.389  20.376  0.00  0.00    +0.000 C 
ATOM     18  C   UNL     1       2.964   3.047  19.665  0.00  0.00    +0.000 C 
ATOM     19  C   UNL     1       4.181   2.285  20.201  0.00  0.00    +0.000 C 
ATOM     20  C   UNL     1       1.713   2.185  19.907  0.00  0.00    +0.000 C 
ENDBRANCH  16  18
ENDBRANCH   1  16
TORSDOF 4
ENDMDL
