MODEL 1
REMARK VINA RESULT:      -7.9      0.000      0.000
REMARK  Name = 
REMARK  10 active torsions:
REMARK  status: ('A' for Active; 'I' for Inactive)
REMARK    1  A    between atoms: C_1  and  C_2
REMARK    2  A    between atoms: C_2  and  C_3
REMARK    3  A    between atoms: C_6  and  C_7
REMARK    4  A    between atoms: C_9  and  C_10
REMARK    5  A    between atoms: C_13  and  N_14
REMARK    6  A    between atoms: N_14  and  C_15
REMARK    7  A    between atoms: C_15  and  C_16
REMARK    8  A    between atoms: C_22  and  C_24
REMARK    9  A    between atoms: C_27  and  O_28
REMARK   10  A    between atoms: C_30  and  O_31
REMARK                            x       y       z     vdW  Elec       q    Type
REMARK                         _______ _______ _______ _____ _____    ______ ____
ROOT
ATOM      1  N   UNL     1      -0.787  10.916  19.196  0.00  0.00    +0.000 N 
ATOM      2  C   UNL     1      -0.552  12.298  19.404  0.00  0.00    +0.000 C 
ATOM      3  O   UNL     1      -1.492  13.081  19.503  0.00  0.00    +0.000 OA
ENDROOT
BRANCH   1   7
ATOM      4  C   UNL     1       2.209   7.902  18.952  0.00  0.00    +0.000 A 
ATOM      5  C   UNL     1       1.797   8.619  17.805  0.00  0.00    +0.000 A 
ATOM      6  C   UNL     1       0.811   9.619  17.863  0.00  0.00    +0.000 A 
ATOM      7  C   UNL     1       0.229   9.935  19.086  0.00  0.00    +0.000 A 
ATOM      8  C   UNL     1       0.663   9.280  20.241  0.00  0.00    +0.000 A 
ATOM      9  C   UNL     1       1.640   8.287  20.174  0.00  0.00    +0.000 A 
BRANCH   4  16
ATOM     10  C   UNL     1       3.231   5.639  19.608  0.00  0.00    +0.000 A 
ATOM     11  C   UNL     1       4.326   4.821  19.382  0.00  0.00    +0.000 A 
ATOM     12  N   UNL     1       5.304   5.063  18.493  0.00  0.00    +0.000 NA
ATOM     13  C   UNL     1       5.190   6.197  17.791  0.00  0.00    +0.000 A 
ATOM     14  C   UNL     1       6.251   6.499  16.782  0.00  0.00    +0.000 C 
ATOM     15  N   UNL     1       4.190   7.080  17.933  0.00  0.00    +0.000 NA
ATOM     16  C   UNL     1       3.225   6.822  18.854  0.00  0.00    +0.000 A 
BRANCH  10  18
ATOM     17  C   UNL     1       1.106   4.295  20.197  0.00  0.00    +0.000 C 
ATOM     18  C   UNL     1       2.192   5.274  20.635  0.00  0.00    +0.000 C 
ENDBRANCH  10  18
ENDBRANCH   4  16
ENDBRANCH   1   7
BRANCH   2  19
ATOM     19  C   UNL     1       0.850  12.854  19.440  0.00  0.00    +0.000 A 
ATOM     20  C   UNL     1       1.553  13.110  18.252  0.00  0.00    +0.000 A 
ATOM     21  C   UNL     1       2.873  13.565  18.260  0.00  0.00    +0.000 A 
ATOM     22  C   UNL     1       3.473  13.878  19.468  0.00  0.00    +0.000 A 
ATOM     23  C   UNL     1       2.768  13.751  20.658  0.00  0.00    +0.000 A 
ATOM     24  C   UNL     1       1.466  13.226  20.646  0.00  0.00    +0.000 A 
BRANCH  22  25
ATOM     25  O   UNL     1       4.756  14.332  19.519  0.00  0.00    +0.000 OA
ATOM     26  H   UNL     1       5.225  14.034  18.722  0.00  0.00    +0.000 HD
ENDBRANCH  22  25
BRANCH  24  27
ATOM     27  O   UNL     1       0.819  13.078  21.842  0.00  0.00    +0.000 OA
ATOM     28  H   UNL     1      -0.001  12.575  21.701  0.00  0.00    +0.000 HD
ENDBRANCH  24  27
ENDBRANCH   2  19
BRANCH   1  29
ATOM     29  C   UNL     1      -2.199  10.485  19.123  0.00  0.00    +0.000 C 
BRANCH  29  30
ATOM     30  C   UNL     1      -2.857  10.505  17.765  0.00  0.00    +0.000 A 
ATOM     31  C   UNL     1      -2.346   9.775  16.687  0.00  0.00    +0.000 A 
ATOM     32  C   UNL     1      -2.892   9.948  15.417  0.00  0.00    +0.000 A 
ATOM     33  C   UNL     1      -3.938  10.844  15.267  0.00  0.00    +0.000 A 
ATOM     34  N   UNL     1      -4.493  11.529  16.289  0.00  0.00    +0.000 NA
ATOM     35  C   UNL     1      -3.946  11.335  17.510  0.00  0.00    +0.000 A 
ENDBRANCH  29  30
ENDBRANCH   1  29
TORSDOF 8
ENDMDL
MODEL 2
REMARK VINA RESULT:      -7.7      3.968      8.093
REMARK  Name = 
REMARK  10 active torsions:
REMARK  status: ('A' for Active; 'I' for Inactive)
REMARK    1  A    between atoms: C_1  and  C_2
REMARK    2  A    between atoms: C_2  and  C_3
REMARK    3  A    between atoms: C_6  and  C_7
REMARK    4  A    between atoms: C_9  and  C_10
REMARK    5  A    between atoms: C_13  and  N_14
REMARK    6  A    between atoms: N_14  and  C_15
REMARK    7  A    between atoms: C_15  and  C_16
REMARK    8  A    between atoms: C_22  and  C_24
REMARK    9  A    between atoms: C_27  and  O_28
REMARK   10  A    between atoms: C_30  and  O_31
REMARK                            x       y       z     vdW  Elec       q    Type
REMARK                         _______ _______ _______ _____ _____    ______ ____
ROOT
ATOM      1  N   UNL     1       4.398   5.115  17.133  0.00  0.00    +0.000 N 
ATOM      2  C   UNL     1       5.799   5.109  16.920  0.00  0.00    +0.000 C 
ATOM      3  O   UNL     1       6.331   4.186  16.307  0.00  0.00    +0.000 OA
ENDROOT
BRANCH   1   7
ATOM      4  C   UNL     1       2.211   8.213  19.069  0.00  0.00    +0.000 A 
ATOM      5  C   UNL     1       2.676   7.087  19.787  0.00  0.00    +0.000 A 
ATOM      6  C   UNL     1       3.402   6.053  19.168  0.00  0.00    +0.000 A 
ATOM      7  C   UNL     1       3.694   6.141  17.811  0.00  0.00    +0.000 A 
ATOM      8  C   UNL     1       3.294   7.271  17.094  0.00  0.00    +0.000 A 
ATOM      9  C   UNL     1       2.572   8.291  17.716  0.00  0.00    +0.000 A 
BRANCH   4  16
ATOM     10  C   UNL     1       1.271  10.591  19.291  0.00  0.00    +0.000 A 
ATOM     11  C   UNL     1       0.529  11.406  20.132  0.00  0.00    +0.000 A 
ATOM     12  N   UNL     1      -0.070  11.008  21.266  0.00  0.00    +0.000 NA
ATOM     13  C   UNL     1       0.087   9.720  21.591  0.00  0.00    +0.000 A 
ATOM     14  C   UNL     1      -0.573   9.232  22.841  0.00  0.00    +0.000 C 
ATOM     15  N   UNL     1       0.799   8.837  20.872  0.00  0.00    +0.000 NA
ATOM     16  C   UNL     1       1.412   9.270  19.740  0.00  0.00    +0.000 A 
BRANCH  10  18
ATOM     17  C   UNL     1       2.496  12.548  18.133  0.00  0.00    +0.000 C 
ATOM     18  C   UNL     1       1.905  11.143  18.042  0.00  0.00    +0.000 C 
ENDBRANCH  10  18
ENDBRANCH   4  16
ENDBRANCH   1   7
BRANCH   2  19
ATOM     19  C   UNL     1       6.681   6.190  17.492  0.00  0.00    +0.000 A 
ATOM     20  C   UNL     1       6.624   7.503  16.996  0.00  0.00    +0.000 A 
ATOM     21  C   UNL     1       7.474   8.505  17.466  0.00  0.00    +0.000 A 
ATOM     22  C   UNL     1       8.323   8.231  18.526  0.00  0.00    +0.000 A 
ATOM     23  C   UNL     1       8.322   6.977  19.122  0.00  0.00    +0.000 A 
ATOM     24  C   UNL     1       7.514   5.955  18.597  0.00  0.00    +0.000 A 
BRANCH  22  25
ATOM     25  O   UNL     1       9.161   9.184  19.020  0.00  0.00    +0.000 OA
ATOM     26  H   UNL     1       9.126   9.159  19.991  0.00  0.00    +0.000 HD
ENDBRANCH  22  25
BRANCH  24  27
ATOM     27  O   UNL     1       7.572   4.722  19.186  0.00  0.00    +0.000 OA
ATOM     28  H   UNL     1       7.897   4.073  18.539  0.00  0.00    +0.000 HD
ENDBRANCH  24  27
ENDBRANCH   2  19
BRANCH   1  29
ATOM     29  C   UNL     1       3.634   3.979  16.575  0.00  0.00    +0.000 C 
BRANCH  29  30
ATOM     30  C   UNL     1       2.793   3.175  17.536  0.00  0.00    +0.000 A 
ATOM     31  C   UNL     1       1.441   3.460  17.750  0.00  0.00    +0.000 A 
ATOM     32  C   UNL     1       0.748   2.795  18.758  0.00  0.00    +0.000 A 
ATOM     33  C   UNL     1       1.430   1.861  19.520  0.00  0.00    +0.000 A 
ATOM     34  N   UNL     1       2.719   1.519  19.313  0.00  0.00    +0.000 NA
ATOM     35  C   UNL     1       3.364   2.177  18.322  0.00  0.00    +0.000 A 
ENDBRANCH  29  30
ENDBRANCH   1  29
TORSDOF 8
ENDMDL
MODEL 3
REMARK VINA RESULT:      -7.6      3.831      7.835
REMARK  Name = 
REMARK  10 active torsions:
REMARK  status: ('A' for Active; 'I' for Inactive)
REMARK    1  A    between atoms: C_1  and  C_2
REMARK    2  A    between atoms: C_2  and  C_3
REMARK    3  A    between atoms: C_6  and  C_7
REMARK    4  A    between atoms: C_9  and  C_10
REMARK    5  A    between atoms: C_13  and  N_14
REMARK    6  A    between atoms: N_14  and  C_15
REMARK    7  A    between atoms: C_15  and  C_16
REMARK    8  A    between atoms: C_22  and  C_24
REMARK    9  A    between atoms: C_27  and  O_28
REMARK   10  A    between atoms: C_30  and  O_31
REMARK                            x       y       z     vdW  Elec       q    Type
REMARK                         _______ _______ _______ _____ _____    ______ ____
ROOT
ATOM      1  N   UNL     1       3.936   4.997  17.921  0.00  0.00    +0.000 N 
ATOM      2  C   UNL     1       5.322   4.898  17.640  0.00  0.00    +0.000 C 
ATOM      3  O   UNL     1       5.823   3.815  17.348  0.00  0.00    +0.000 OA
ENDROOT
BRANCH   1   7
ATOM      4  C   UNL     1       1.987   8.619  19.017  0.00  0.00    +0.000 A 
ATOM      5  C   UNL     1       2.335   8.353  17.673  0.00  0.00    +0.000 A 
ATOM      6  C   UNL     1       2.977   7.163  17.288  0.00  0.00    +0.000 A 
ATOM      7  C   UNL     1       3.267   6.201  18.250  0.00  0.00    +0.000 A 
ATOM      8  C   UNL     1       2.881   6.418  19.575  0.00  0.00    +0.000 A 
ATOM      9  C   UNL     1       2.246   7.602  19.948  0.00  0.00    +0.000 A 
BRANCH   4  16
ATOM     10  C   UNL     1       0.361  10.057  20.389  0.00  0.00    +0.000 A 
ATOM     11  C   UNL     1      -0.130  11.347  20.511  0.00  0.00    +0.000 A 
ATOM     12  N   UNL     1       0.296  12.409  19.807  0.00  0.00    +0.000 NA
ATOM     13  C   UNL     1       1.266  12.170  18.917  0.00  0.00    +0.000 A 
ATOM     14  C   UNL     1       1.778  13.328  18.120  0.00  0.00    +0.000 C 
ATOM     15  N   UNL     1       1.809  10.964  18.690  0.00  0.00    +0.000 NA
ATOM     16  C   UNL     1       1.345   9.903  19.401  0.00  0.00    +0.000 A 
BRANCH  10  18
ATOM     17  C   UNL     1      -0.380   9.218  22.716  0.00  0.00    +0.000 C 
ATOM     18  C   UNL     1      -0.193   8.936  21.227  0.00  0.00    +0.000 C 
ENDBRANCH  10  18
ENDBRANCH   4  16
ENDBRANCH   1   7
BRANCH   2  19
ATOM     19  C   UNL     1       6.230   6.098  17.759  0.00  0.00    +0.000 A 
ATOM     20  C   UNL     1       5.943   7.288  17.071  0.00  0.00    +0.000 A 
ATOM     21  C   UNL     1       6.800   8.389  17.114  0.00  0.00    +0.000 A 
ATOM     22  C   UNL     1       7.908   8.352  17.944  0.00  0.00    +0.000 A 
ATOM     23  C   UNL     1       8.160   7.236  18.732  0.00  0.00    +0.000 A 
ATOM     24  C   UNL     1       7.331   6.106  18.629  0.00  0.00    +0.000 A 
BRANCH  22  25
ATOM     25  O   UNL     1       8.764   9.407  18.022  0.00  0.00    +0.000 OA
ATOM     26  H   UNL     1       8.289  10.168  18.399  0.00  0.00    +0.000 HD
ENDBRANCH  22  25
BRANCH  24  27
ATOM     27  O   UNL     1       7.636   5.012  19.391  0.00  0.00    +0.000 OA
ATOM     28  H   UNL     1       7.371   5.181  20.311  0.00  0.00    +0.000 HD
ENDBRANCH  24  27
ENDBRANCH   2  19
BRANCH   1  29
ATOM     29  C   UNL     1       3.149   3.750  17.827  0.00  0.00    +0.000 C 
BRANCH  29  30
ATOM     30  C   UNL     1       2.545   3.219  19.105  0.00  0.00    +0.000 A 
ATOM     31  C   UNL     1       1.165   3.234  19.331  0.00  0.00    +0.000 A 
ATOM     32  C   UNL     1       0.668   2.881  20.583  0.00  0.00    +0.000 A 
ATOM     33  C   UNL     1       1.569   2.517  21.570  0.00  0.00    +0.000 A 
ATOM     34  N   UNL     1       2.902   2.439  21.378  0.00  0.00    +0.000 NA
ATOM     35  C   UNL     1       3.354   2.781  20.150  0.00  0.00    +0.000 A 
ENDBRANCH  29  30
ENDBRANCH   1  29
TORSDOF 8
ENDMDL
MODEL 4
REMARK VINA RESULT:      -7.6      3.797      8.014
REMARK  Name = 
REMARK  10 active torsions:
REMARK  status: ('A' for Active; 'I' for Inactive)
REMARK    1  A    between atoms: C_1  and  C_2
REMARK    2  A    between atoms: C_2  and  C_3
REMARK    3  A    between atoms: C_6  and  C_7
REMARK    4  A    between atoms: C_9  and  C_10
REMARK    5  A    between atoms: C_13  and  N_14
REMARK    6  A    between atoms: N_14  and  C_15
REMARK    7  A    between atoms: C_15  and  C_16
REMARK    8  A    between atoms: C_22  and  C_24
REMARK    9  A    between atoms: C_27  and  O_28
REMARK   10  A    between atoms: C_30  and  O_31
REMARK                            x       y       z     vdW  Elec       q    Type
REMARK                         _______ _______ _______ _____ _____    ______ ____
ROOT
ATOM      1  N   UNL     1       4.799   4.981  17.217  0.00  0.00    +0.000 N 
ATOM      2  C   UNL     1       6.183   5.154  16.965  0.00  0.00    +0.000 C 
ATOM      3  O   UNL     1       6.808   4.316  16.320  0.00  0.00    +0.000 OA
ENDROOT
BRANCH   1   7
ATOM      4  C   UNL     1       2.300   7.748  19.270  0.00  0.00    +0.000 A 
ATOM      5  C   UNL     1       2.890   6.655  19.946  0.00  0.00    +0.000 A 
ATOM      6  C   UNL     1       3.720   5.730  19.287  0.00  0.00    +0.000 A 
ATOM      7  C   UNL     1       3.991   5.898  17.934  0.00  0.00    +0.000 A 
ATOM      8  C   UNL     1       3.466   7.003  17.260  0.00  0.00    +0.000 A 
ATOM      9  C   UNL     1       2.641   7.914  17.920  0.00  0.00    +0.000 A 
BRANCH   4  16
ATOM     10  C   UNL     1       0.530   9.605  19.369  0.00  0.00    +0.000 A 
ATOM     11  C   UNL     1      -0.161  10.420  20.253  0.00  0.00    +0.000 A 
ATOM     12  N   UNL     1      -0.086  10.348  21.592  0.00  0.00    +0.000 NA
ATOM     13  C   UNL     1       0.735   9.413  22.084  0.00  0.00    +0.000 A 
ATOM     14  C   UNL     1       0.838   9.292  23.572  0.00  0.00    +0.000 C 
ATOM     15  N   UNL     1       1.472   8.580  21.335  0.00  0.00    +0.000 NA
ATOM     16  C   UNL     1       1.395   8.687  19.982  0.00  0.00    +0.000 A 
BRANCH  10  18
ATOM     17  C   UNL     1      -1.043   9.977  17.355  0.00  0.00    +0.000 C 
ATOM     18  C   UNL     1       0.376   9.775  17.881  0.00  0.00    +0.000 C 
ENDBRANCH  10  18
ENDBRANCH   4  16
ENDBRANCH   1   7
BRANCH   2  19
ATOM     19  C   UNL     1       6.938   6.329  17.535  0.00  0.00    +0.000 A 
ATOM     20  C   UNL     1       6.764   7.620  17.010  0.00  0.00    +0.000 A 
ATOM     21  C   UNL     1       7.499   8.711  17.478  0.00  0.00    +0.000 A 
ATOM     22  C   UNL     1       8.342   8.543  18.563  0.00  0.00    +0.000 A 
ATOM     23  C   UNL     1       8.451   7.306  19.186  0.00  0.00    +0.000 A 
ATOM     24  C   UNL     1       7.762   6.199  18.665  0.00  0.00    +0.000 A 
BRANCH  22  25
ATOM     25  O   UNL     1       9.069   9.583  19.056  0.00  0.00    +0.000 OA
ATOM     26  H   UNL     1      10.002   9.456  18.811  0.00  0.00    +0.000 HD
ENDBRANCH  22  25
BRANCH  24  27
ATOM     27  O   UNL     1       7.927   4.989  19.281  0.00  0.00    +0.000 OA
ATOM     28  H   UNL     1       7.766   5.092  20.234  0.00  0.00    +0.000 HD
ENDBRANCH  24  27
ENDBRANCH   2  19
BRANCH   1  29
ATOM     29  C   UNL     1       4.168   3.767  16.657  0.00  0.00    +0.000 C 
BRANCH  29  30
ATOM     30  C   UNL     1       3.139   3.068  17.511  0.00  0.00    +0.000 A 
ATOM     31  C   UNL     1       1.804   3.482  17.545  0.00  0.00    +0.000 A 
ATOM     32  C   UNL     1       0.927   2.910  18.463  0.00  0.00    +0.000 A 
ATOM     33  C   UNL     1       1.415   1.935  19.318  0.00  0.00    +0.000 A 
ATOM     34  N   UNL     1       2.682   1.470  19.284  0.00  0.00    +0.000 NA
ATOM     35  C   UNL     1       3.507   2.040  18.377  0.00  0.00    +0.000 A 
ENDBRANCH  29  30
ENDBRANCH   1  29
TORSDOF 8
ENDMDL
MODEL 5
REMARK VINA RESULT:      -7.4      2.768      5.325
REMARK  Name = 
REMARK  10 active torsions:
REMARK  status: ('A' for Active; 'I' for Inactive)
REMARK    1  A    between atoms: C_1  and  C_2
REMARK    2  A    between atoms: C_2  and  C_3
REMARK    3  A    between atoms: C_6  and  C_7
REMARK    4  A    between atoms: C_9  and  C_10
REMARK    5  A    between atoms: C_13  and  N_14
REMARK    6  A    between atoms: N_14  and  C_15
REMARK    7  A    between atoms: C_15  and  C_16
REMARK    8  A    between atoms: C_22  and  C_24
REMARK    9  A    between atoms: C_27  and  O_28
REMARK   10  A    between atoms: C_30  and  O_31
REMARK                            x       y       z     vdW  Elec       q    Type
REMARK                         _______ _______ _______ _____ _____    ______ ____
ROOT
ATOM      1  N   UNL     1      -0.557  11.634  20.761  0.00  0.00    +0.000 N 
ATOM      2  C   UNL     1      -1.508  12.209  19.881  0.00  0.00    +0.000 C 
ATOM      3  O   UNL     1      -2.000  13.308  20.127  0.00  0.00    +0.000 OA
ENDROOT
BRANCH   1   7
ATOM      4  C   UNL     1       1.444   7.938  20.090  0.00  0.00    +0.000 A 
ATOM      5  C   UNL     1       0.635   8.135  21.233  0.00  0.00    +0.000 A 
ATOM      6  C   UNL     1      -0.036   9.347  21.474  0.00  0.00    +0.000 A 
ATOM      7  C   UNL     1       0.076  10.385  20.554  0.00  0.00    +0.000 A 
ATOM      8  C   UNL     1       0.823  10.191  19.389  0.00  0.00    +0.000 A 
ATOM      9  C   UNL     1       1.487   8.987  19.160  0.00  0.00    +0.000 A 
BRANCH   4  16
ATOM     10  C   UNL     1       3.117   6.418  18.871  0.00  0.00    +0.000 A 
ATOM     11  C   UNL     1       3.606   5.121  18.845  0.00  0.00    +0.000 A 
ATOM     12  N   UNL     1       3.280   4.152  19.715  0.00  0.00    +0.000 NA
ATOM     13  C   UNL     1       2.404   4.490  20.668  0.00  0.00    +0.000 A 
ATOM     14  C   UNL     1       2.023   3.443  21.666  0.00  0.00    +0.000 C 
ATOM     15  N   UNL     1       1.843   5.704  20.787  0.00  0.00    +0.000 NA
ATOM     16  C   UNL     1       2.173   6.661  19.881  0.00  0.00    +0.000 A 
BRANCH  10  18
ATOM     17  C   UNL     1       4.527   6.947  16.774  0.00  0.00    +0.000 C 
ATOM     18  C   UNL     1       3.546   7.428  17.841  0.00  0.00    +0.000 C 
ENDBRANCH  10  18
ENDBRANCH   4  16
ENDBRANCH   1   7
BRANCH   2  19
ATOM     19  C   UNL     1      -1.991  11.466  18.660  0.00  0.00    +0.000 A 
ATOM     20  C   UNL     1      -2.831  10.348  18.785  0.00  0.00    +0.000 A 
ATOM     21  C   UNL     1      -3.240   9.607  17.675  0.00  0.00    +0.000 A 
ATOM     22  C   UNL     1      -2.901  10.045  16.406  0.00  0.00    +0.000 A 
ATOM     23  C   UNL     1      -2.170  11.214  16.237  0.00  0.00    +0.000 A 
ATOM     24  C   UNL     1      -1.704  11.915  17.361  0.00  0.00    +0.000 A 
BRANCH  22  25
ATOM     25  O   UNL     1      -3.287   9.355  15.298  0.00  0.00    +0.000 OA
ATOM     26  H   UNL     1      -4.142   8.928  15.477  0.00  0.00    +0.000 HD
ENDBRANCH  22  25
BRANCH  24  27
ATOM     27  O   UNL     1      -0.953  13.039  17.154  0.00  0.00    +0.000 OA
ATOM     28  H   UNL     1      -0.495  12.964  16.300  0.00  0.00    +0.000 HD
ENDBRANCH  24  27
ENDBRANCH   2  19
BRANCH   1  29
ATOM     29  C   UNL     1      -0.194  12.425  21.956  0.00  0.00    +0.000 C 
BRANCH  29  30
ATOM     30  C   UNL     1      -1.303  12.762  22.923  0.00  0.00    +0.000 A 
ATOM     31  C   UNL     1      -2.359  11.879  23.171  0.00  0.00    +0.000 A 
ATOM     32  C   UNL     1      -3.437  12.296  23.948  0.00  0.00    +0.000 A 
ATOM     33  C   UNL     1      -3.422  13.584  24.458  0.00  0.00    +0.000 A 
ATOM     34  N   UNL     1      -2.400  14.448  24.286  0.00  0.00    +0.000 NA
ATOM     35  C   UNL     1      -1.364  14.012  23.533  0.00  0.00    +0.000 A 
ENDBRANCH  29  30
ENDBRANCH   1  29
TORSDOF 8
ENDMDL
MODEL 6
REMARK VINA RESULT:      -7.3      4.101      8.989
REMARK  Name = 
REMARK  10 active torsions:
REMARK  status: ('A' for Active; 'I' for Inactive)
REMARK    1  A    between atoms: C_1  and  C_2
REMARK    2  A    between atoms: C_2  and  C_3
REMARK    3  A    between atoms: C_6  and  C_7
REMARK    4  A    between atoms: C_9  and  C_10
REMARK    5  A    between atoms: C_13  and  N_14
REMARK    6  A    between atoms: N_14  and  C_15
REMARK    7  A    between atoms: C_15  and  C_16
REMARK    8  A    between atoms: C_22  and  C_24
REMARK    9  A    between atoms: C_27  and  O_28
REMARK   10  A    between atoms: C_30  and  O_31
REMARK                            x       y       z     vdW  Elec       q    Type
REMARK                         _______ _______ _______ _____ _____    ______ ____
ROOT
ATOM      1  N   UNL     1       4.526   5.932  17.252  0.00  0.00    +0.000 N 
ATOM      2  C   UNL     1       4.436   4.522  17.358  0.00  0.00    +0.000 C 
ATOM      3  O   UNL     1       5.285   3.802  16.838  0.00  0.00    +0.000 OA
ENDROOT
BRANCH   1   7
ATOM      4  C   UNL     1       1.710   8.679  18.879  0.00  0.00    +0.000 A 
ATOM      5  C   UNL     1       2.177   7.577  19.633  0.00  0.00    +0.000 A 
ATOM      6  C   UNL     1       3.108   6.659  19.116  0.00  0.00    +0.000 A 
ATOM      7  C   UNL     1       3.607   6.841  17.830  0.00  0.00    +0.000 A 
ATOM      8  C   UNL     1       3.204   7.955  17.090  0.00  0.00    +0.000 A 
ATOM      9  C   UNL     1       2.278   8.860  17.610  0.00  0.00    +0.000 A 
BRANCH   4  16
ATOM     10  C   UNL     1       0.452   9.826  20.801  0.00  0.00    +0.000 A 
ATOM     11  C   UNL     1      -0.596  10.695  21.064  0.00  0.00    +0.000 A 
ATOM     12  N   UNL     1      -1.318  11.343  20.135  0.00  0.00    +0.000 NA
ATOM     13  C   UNL     1      -0.984  11.104  18.862  0.00  0.00    +0.000 A 
ATOM     14  C   UNL     1      -1.755  11.815  17.796  0.00  0.00    +0.000 C 
ATOM     15  N   UNL     1      -0.005  10.270  18.477  0.00  0.00    +0.000 NA
ATOM     16  C   UNL     1       0.696   9.610  19.436  0.00  0.00    +0.000 A 
BRANCH  10  18
ATOM     17  C   UNL     1       0.591   9.269  23.318  0.00  0.00    +0.000 C 
ATOM     18  C   UNL     1       1.194   9.147  21.921  0.00  0.00    +0.000 C 
ENDBRANCH  10  18
ENDBRANCH   4  16
ENDBRANCH   1   7
BRANCH   2  19
ATOM     19  C   UNL     1       3.267   3.864  18.050  0.00  0.00    +0.000 A 
ATOM     20  C   UNL     1       1.959   4.033  17.569  0.00  0.00    +0.000 A 
ATOM     21  C   UNL     1       0.856   3.487  18.227  0.00  0.00    +0.000 A 
ATOM     22  C   UNL     1       1.060   2.665  19.322  0.00  0.00    +0.000 A 
ATOM     23  C   UNL     1       2.347   2.377  19.756  0.00  0.00    +0.000 A 
ATOM     24  C   UNL     1       3.448   2.987  19.131  0.00  0.00    +0.000 A 
BRANCH  22  25
ATOM     25  O   UNL     1       0.011   2.106  19.987  0.00  0.00    +0.000 OA
ATOM     26  H   UNL     1      -0.444   1.488  19.390  0.00  0.00    +0.000 HD
ENDBRANCH  22  25
BRANCH  24  27
ATOM     27  O   UNL     1       4.697   2.710  19.613  0.00  0.00    +0.000 OA
ATOM     28  H   UNL     1       4.992   3.446  20.176  0.00  0.00    +0.000 HD
ENDBRANCH  24  27
ENDBRANCH   2  19
BRANCH   1  29
ATOM     29  C   UNL     1       5.684   6.470  16.507  0.00  0.00    +0.000 C 
BRANCH  29  30
ATOM     30  C   UNL     1       6.829   7.024  17.319  0.00  0.00    +0.000 A 
ATOM     31  C   UNL     1       7.496   6.252  18.275  0.00  0.00    +0.000 A 
ATOM     32  C   UNL     1       8.439   6.850  19.108  0.00  0.00    +0.000 A 
ATOM     33  C   UNL     1       8.688   8.204  18.954  0.00  0.00    +0.000 A 
ATOM     34  N   UNL     1       8.105   8.973  18.010  0.00  0.00    +0.000 NA
ATOM     35  C   UNL     1       7.199   8.362  17.213  0.00  0.00    +0.000 A 
ENDBRANCH  29  30
ENDBRANCH   1  29
TORSDOF 8
ENDMDL
MODEL 7
REMARK VINA RESULT:      -7.3      4.217      9.098
REMARK  Name = 
REMARK  10 active torsions:
REMARK  status: ('A' for Active; 'I' for Inactive)
REMARK    1  A    between atoms: C_1  and  C_2
REMARK    2  A    between atoms: C_2  and  C_3
REMARK    3  A    between atoms: C_6  and  C_7
REMARK    4  A    between atoms: C_9  and  C_10
REMARK    5  A    between atoms: C_13  and  N_14
REMARK    6  A    between atoms: N_14  and  C_15
REMARK    7  A    between atoms: C_15  and  C_16
REMARK    8  A    between atoms: C_22  and  C_24
REMARK    9  A    between atoms: C_27  and  O_28
REMARK   10  A    between atoms: C_30  and  O_31
REMARK                            x       y       z     vdW  Elec       q    Type
REMARK                         _______ _______ _______ _____ _____    ______ ____
ROOT
ATOM      1  N   UNL     1       4.398   6.025  17.173  0.00  0.00    +0.000 N 
ATOM      2  C   UNL     1       4.314   4.614  17.074  0.00  0.00    +0.000 C 
ATOM      3  O   UNL     1       5.130   3.987  16.403  0.00  0.00    +0.000 OA
ENDROOT
BRANCH   1   7
ATOM      4  C   UNL     1       1.680   8.468  19.355  0.00  0.00    +0.000 A 
ATOM      5  C   UNL     1       2.259   7.318  19.938  0.00  0.00    +0.000 A 
ATOM      6  C   UNL     1       3.161   6.498  19.236  0.00  0.00    +0.000 A 
ATOM      7  C   UNL     1       3.516   6.831  17.933  0.00  0.00    +0.000 A 
ATOM      8  C   UNL     1       3.000   7.995  17.358  0.00  0.00    +0.000 A 
ATOM      9  C   UNL     1       2.105   8.801  18.060  0.00  0.00    +0.000 A 
BRANCH   4  16
ATOM     10  C   UNL     1      -0.224  10.182  19.534  0.00  0.00    +0.000 A 
ATOM     11  C   UNL     1      -0.983  10.889  20.454  0.00  0.00    +0.000 A 
ATOM     12  N   UNL     1      -0.919  10.743  21.787  0.00  0.00    +0.000 NA
ATOM     13  C   UNL     1      -0.037   9.844  22.237  0.00  0.00    +0.000 A 
ATOM     14  C   UNL     1       0.058   9.641  23.715  0.00  0.00    +0.000 C 
ATOM     15  N   UNL     1       0.769   9.113  21.451  0.00  0.00    +0.000 NA
ATOM     16  C   UNL     1       0.700   9.294  20.106  0.00  0.00    +0.000 A 
BRANCH  10  18
ATOM     17  C   UNL     1      -1.762  10.822  17.561  0.00  0.00    +0.000 C 
ATOM     18  C   UNL     1      -0.373  10.428  18.057  0.00  0.00    +0.000 C 
ENDBRANCH  10  18
ENDBRANCH   4  16
ENDBRANCH   1   7
BRANCH   2  19
ATOM     19  C   UNL     1       3.188   3.851  17.727  0.00  0.00    +0.000 A 
ATOM     20  C   UNL     1       1.851   4.110  17.386  0.00  0.00    +0.000 A 
ATOM     21  C   UNL     1       0.790   3.462  18.022  0.00  0.00    +0.000 A 
ATOM     22  C   UNL     1       1.060   2.458  18.936  0.00  0.00    +0.000 A 
ATOM     23  C   UNL     1       2.371   2.091  19.212  0.00  0.00    +0.000 A 
ATOM     24  C   UNL     1       3.433   2.795  18.620  0.00  0.00    +0.000 A 
BRANCH  22  25
ATOM     25  O   UNL     1       0.054   1.796  19.572  0.00  0.00    +0.000 OA
ATOM     26  H   UNL     1      -0.758   1.879  19.042  0.00  0.00    +0.000 HD
ENDBRANCH  22  25
BRANCH  24  27
ATOM     27  O   UNL     1       4.709   2.431  18.948  0.00  0.00    +0.000 OA
ATOM     28  H   UNL     1       4.746   1.466  19.064  0.00  0.00    +0.000 HD
ENDBRANCH  24  27
ENDBRANCH   2  19
BRANCH   1  29
ATOM     29  C   UNL     1       5.510   6.677  16.450  0.00  0.00    +0.000 C 
BRANCH  29  30
ATOM     30  C   UNL     1       6.705   7.106  17.265  0.00  0.00    +0.000 A 
ATOM     31  C   UNL     1       7.328   6.243  18.171  0.00  0.00    +0.000 A 
ATOM     32  C   UNL     1       8.325   6.730  19.013  0.00  0.00    +0.000 A 
ATOM     33  C   UNL     1       8.671   8.068  18.918  0.00  0.00    +0.000 A 
ATOM     34  N   UNL     1       8.132   8.921  18.022  0.00  0.00    +0.000 NA
ATOM     35  C   UNL     1       7.172   8.417  17.214  0.00  0.00    +0.000 A 
ENDBRANCH  29  30
ENDBRANCH   1  29
TORSDOF 8
ENDMDL
MODEL 8
REMARK VINA RESULT:      -7.3      2.492      4.882
REMARK  Name = 
REMARK  10 active torsions:
REMARK  status: ('A' for Active; 'I' for Inactive)
REMARK    1  A    between atoms: C_1  and  C_2
REMARK    2  A    between atoms: C_2  and  C_3
REMARK    3  A    between atoms: C_6  and  C_7
REMARK    4  A    between atoms: C_9  and  C_10
REMARK    5  A    between atoms: C_13  and  N_14
REMARK    6  A    between atoms: N_14  and  C_15
REMARK    7  A    between atoms: C_15  and  C_16
REMARK    8  A    between atoms: C_22  and  C_24
REMARK    9  A    between atoms: C_27  and  O_28
REMARK   10  A    between atoms: C_30  and  O_31
REMARK                            x       y       z     vdW  Elec       q    Type
REMARK                         _______ _______ _______ _____ _____    ______ ____
ROOT
ATOM      1  N   UNL     1      -0.407  11.496  20.502  0.00  0.00    +0.000 N 
ATOM      2  C   UNL     1      -1.494  12.037  19.771  0.00  0.00    +0.000 C 
ATOM      3  O   UNL     1      -2.060  13.056  20.160  0.00  0.00    +0.000 OA
ENDROOT
BRANCH   1   7
ATOM      4  C   UNL     1       1.850   8.090  19.305  0.00  0.00    +0.000 A 
ATOM      5  C   UNL     1       1.248   8.157  20.583  0.00  0.00    +0.000 A 
ATOM      6  C   UNL     1       0.497   9.272  20.999  0.00  0.00    +0.000 A 
ATOM      7  C   UNL     1       0.318  10.339  20.125  0.00  0.00    +0.000 A 
ATOM      8  C   UNL     1       0.854  10.268  18.837  0.00  0.00    +0.000 A 
ATOM      9  C   UNL     1       1.600   9.161  18.434  0.00  0.00    +0.000 A 
BRANCH   4  16
ATOM     10  C   UNL     1       2.605   5.643  19.490  0.00  0.00    +0.000 A 
ATOM     11  C   UNL     1       3.525   4.736  18.989  0.00  0.00    +0.000 A 
ATOM     12  N   UNL     1       4.396   4.984  17.996  0.00  0.00    +0.000 NA
ATOM     13  C   UNL     1       4.356   6.216  17.476  0.00  0.00    +0.000 A 
ATOM     14  C   UNL     1       5.300   6.530  16.360  0.00  0.00    +0.000 C 
ATOM     15  N   UNL     1       3.527   7.188  17.888  0.00  0.00    +0.000 NA
ATOM     16  C   UNL     1       2.671   6.918  18.908  0.00  0.00    +0.000 A 
BRANCH  10  18
ATOM     17  C   UNL     1       1.139   3.832  20.604  0.00  0.00    +0.000 C 
ATOM     18  C   UNL     1       1.676   5.261  20.612  0.00  0.00    +0.000 C 
ENDBRANCH  10  18
ENDBRANCH   4  16
ENDBRANCH   1   7
BRANCH   2  19
ATOM     19  C   UNL     1      -2.029  11.346  18.541  0.00  0.00    +0.000 A 
ATOM     20  C   UNL     1      -2.865  10.224  18.652  0.00  0.00    +0.000 A 
ATOM     21  C   UNL     1      -3.320   9.531  17.530  0.00  0.00    +0.000 A 
ATOM     22  C   UNL     1      -3.034  10.023  16.268  0.00  0.00    +0.000 A 
ATOM     23  C   UNL     1      -2.309  11.198  16.119  0.00  0.00    +0.000 A 
ATOM     24  C   UNL     1      -1.795  11.850  17.251  0.00  0.00    +0.000 A 
BRANCH  22  25
ATOM     25  O   UNL     1      -3.466   9.381  15.148  0.00  0.00    +0.000 OA
ATOM     26  H   UNL     1      -3.906  10.026  14.568  0.00  0.00    +0.000 HD
ENDBRANCH  22  25
BRANCH  24  27
ATOM     27  O   UNL     1      -1.052  12.982  17.061  0.00  0.00    +0.000 OA
ATOM     28  H   UNL     1      -0.125  12.799  17.293  0.00  0.00    +0.000 HD
ENDBRANCH  24  27
ENDBRANCH   2  19
BRANCH   1  29
ATOM     29  C   UNL     1       0.002  12.223  21.722  0.00  0.00    +0.000 C 
BRANCH  29  30
ATOM     30  C   UNL     1      -1.085  12.590  22.702  0.00  0.00    +0.000 A 
ATOM     31  C   UNL     1      -2.114  11.702  23.030  0.00  0.00    +0.000 A 
ATOM     32  C   UNL     1      -3.178  12.139  23.815  0.00  0.00    +0.000 A 
ATOM     33  C   UNL     1      -3.176  13.453  24.253  0.00  0.00    +0.000 A 
ATOM     34  N   UNL     1      -2.178  14.327  24.004  0.00  0.00    +0.000 NA
ATOM     35  C   UNL     1      -1.156  13.871  23.245  0.00  0.00    +0.000 A 
ENDBRANCH  29  30
ENDBRANCH   1  29
TORSDOF 8
ENDMDL
MODEL 9
REMARK VINA RESULT:      -7.3      3.882      8.078
REMARK  Name = 
REMARK  10 active torsions:
REMARK  status: ('A' for Active; 'I' for Inactive)
REMARK    1  A    between atoms: C_1  and  C_2
REMARK    2  A    between atoms: C_2  and  C_3
REMARK    3  A    between atoms: C_6  and  C_7
REMARK    4  A    between atoms: C_9  and  C_10
REMARK    5  A    between atoms: C_13  and  N_14
REMARK    6  A    between atoms: N_14  and  C_15
REMARK    7  A    between atoms: C_15  and  C_16
REMARK    8  A    between atoms: C_22  and  C_24
REMARK    9  A    between atoms: C_27  and  O_28
REMARK   10  A    between atoms: C_30  and  O_31
REMARK                            x       y       z     vdW  Elec       q    Type
REMARK                         _______ _______ _______ _____ _____    ______ ____
ROOT
ATOM      1  N   UNL     1       4.249   4.801  17.409  0.00  0.00    +0.000 N 
ATOM      2  C   UNL     1       5.640   4.765  17.142  0.00  0.00    +0.000 C 
ATOM      3  O   UNL     1       6.136   3.811  16.547  0.00  0.00    +0.000 OA
ENDROOT
BRANCH   1   7
ATOM      4  C   UNL     1       2.178   8.002  19.302  0.00  0.00    +0.000 A 
ATOM      5  C   UNL     1       2.676   6.910  20.049  0.00  0.00    +0.000 A 
ATOM      6  C   UNL     1       3.364   5.843  19.445  0.00  0.00    +0.000 A 
ATOM      7  C   UNL     1       3.585   5.862  18.072  0.00  0.00    +0.000 A 
ATOM      8  C   UNL     1       3.152   6.959  17.323  0.00  0.00    +0.000 A 
ATOM      9  C   UNL     1       2.468   8.012  17.930  0.00  0.00    +0.000 A 
BRANCH   4  16
ATOM     10  C   UNL     1       1.181  10.366  19.415  0.00  0.00    +0.000 A 
ATOM     11  C   UNL     1       0.507  11.235  20.257  0.00  0.00    +0.000 A 
ATOM     12  N   UNL     1       0.051  10.929  21.483  0.00  0.00    +0.000 NA
ATOM     13  C   UNL     1       0.291   9.681  21.902  0.00  0.00    +0.000 A 
ATOM     14  C   UNL     1      -0.210   9.294  23.258  0.00  0.00    +0.000 C 
ATOM     15  N   UNL     1       0.951   8.754  21.190  0.00  0.00    +0.000 NA
ATOM     16  C   UNL     1       1.419   9.096  19.962  0.00  0.00    +0.000 A 
BRANCH  10  18
ATOM     17  C   UNL     1       2.514  12.076  18.011  0.00  0.00    +0.000 C 
ATOM     18  C   UNL     1       1.654  10.815  18.058  0.00  0.00    +0.000 C 
ENDBRANCH  10  18
ENDBRANCH   4  16
ENDBRANCH   1   7
BRANCH   2  19
ATOM     19  C   UNL     1       6.558   5.857  17.635  0.00  0.00    +0.000 A 
ATOM     20  C   UNL     1       7.394   5.647  18.744  0.00  0.00    +0.000 A 
ATOM     21  C   UNL     1       8.204   6.660  19.257  0.00  0.00    +0.000 A 
ATOM     22  C   UNL     1       8.273   7.874  18.594  0.00  0.00    +0.000 A 
ATOM     23  C   UNL     1       7.550   8.078  17.425  0.00  0.00    +0.000 A 
ATOM     24  C   UNL     1       6.684   7.078  16.955  0.00  0.00    +0.000 A 
BRANCH  22  25
ATOM     25  O   UNL     1       9.058   8.885  19.057  0.00  0.00    +0.000 OA
ATOM     26  H   UNL     1       8.932   8.963  20.018  0.00  0.00    +0.000 HD
ENDBRANCH  22  25
BRANCH  24  27
ATOM     27  O   UNL     1       5.960   7.333  15.823  0.00  0.00    +0.000 OA
ATOM     28  H   UNL     1       5.028   7.471  16.065  0.00  0.00    +0.000 HD
ENDBRANCH  24  27
ENDBRANCH   2  19
BRANCH   1  29
ATOM     29  C   UNL     1       3.450   3.654  16.928  0.00  0.00    +0.000 C 
BRANCH  29  30
ATOM     30  C   UNL     1       2.499   3.015  17.911  0.00  0.00    +0.000 A 
ATOM     31  C   UNL     1       1.149   3.375  17.972  0.00  0.00    +0.000 A 
ATOM     32  C   UNL     1       0.349   2.876  18.996  0.00  0.00    +0.000 A 
ATOM     33  C   UNL     1       0.924   2.025  19.926  0.00  0.00    +0.000 A 
ATOM     34  N   UNL     1       2.208   1.612  19.873  0.00  0.00    +0.000 NA
ATOM     35  C   UNL     1       2.958   2.109  18.864  0.00  0.00    +0.000 A 
ENDBRANCH  29  30
ENDBRANCH   1  29
TORSDOF 8
ENDMDL
