MODEL 1
REMARK VINA RESULT:      -8.7      0.000      0.000
REMARK  Name = 
REMARK  7 active torsions:
REMARK  status: ('A' for Active; 'I' for Inactive)
REMARK    1  A    between atoms: C_1  and  C_2
REMARK    2  A    between atoms: C_4  and  C_5
REMARK    3  A    between atoms: C_10  and  N_11
REMARK    4  A    between atoms: N_14  and  CA_15
REMARK    5  A    between atoms: CA_15  and  CB_16
REMARK    6  A    between atoms: CA_15  and  C_17
REMARK    7  A    between atoms: C_17  and  OXT_19
REMARK                            x       y       z     vdW  Elec       q    Type
REMARK                         _______ _______ _______ _____ _____    ______ ____
ROOT
ATOM      1  C   UNK A   0       6.900   4.597  16.042  0.00  0.00    +0.000 A 
ATOM      2  N   UNK A   0       7.906   4.232  16.852  0.00  0.00    +0.000 NA
ATOM      3  N   UNK A   0       7.460   4.509  18.092  0.00  0.00    +0.000 N 
ATOM      4  C   UNK A   0       6.188   5.015  18.135  0.00  0.00    +0.000 A 
ATOM      5  C   UNK A   0       5.366   5.433  19.186  0.00  0.00    +0.000 A 
ATOM      6  C   UNK A   0       4.107   5.885  18.802  0.00  0.00    +0.000 A 
ATOM      7  N   UNK A   0       3.691   5.912  17.513  0.00  0.00    +0.000 NA
ATOM      8  C   UNK A   0       4.500   5.494  16.517  0.00  0.00    +0.000 A 
ATOM      9  C   UNK A   0       5.788   5.055  16.805  0.00  0.00    +0.000 A 
ATOM     10  H   UNK A   0       8.080   4.318  18.872  0.00  0.00    +0.000 HD
ENDROOT
BRANCH   1  14
ATOM     11  C   UNK A   0       5.485   2.585  11.686  0.00  0.00    +0.000 C 
ATOM     12  C   UNK A   0       6.297   3.553  12.490  0.00  0.00    +0.000 A 
ATOM     13  C   UNK A   0       6.204   3.589  13.878  0.00  0.00    +0.000 A 
ATOM     14  C   UNK A   0       6.995   4.499  14.583  0.00  0.00    +0.000 A 
ATOM     15  C   UNK A   0       7.868   5.321  13.865  0.00  0.00    +0.000 A 
ATOM     16  C   UNK A   0       7.885   5.230  12.486  0.00  0.00    +0.000 A 
ATOM     17  N   UNK A   0       7.119   4.370  11.790  0.00  0.00    +0.000 NA
ENDBRANCH   1  14
BRANCH   6  18
ATOM     18  N   UNK A   0       3.213   6.348  19.779  0.00  0.00    +0.000 N 
ATOM     19  C   UNK A   0       2.232   5.626  20.415  0.00  0.00    +0.000 C 
ATOM     20  O   UNK A   0       1.500   6.159  21.243  0.00  0.00    +0.000 OA
ATOM     21  N   ALA A   1       2.155   4.309  20.085  0.00  0.00    +0.000 N 
ATOM     22  H   UNK A   0       3.254   7.319  20.057  0.00  0.00    +0.000 HD
ATOM     23  H   ALA A   1       2.598   4.112  19.186  0.00  0.00    +0.000 HD
BRANCH  21  24
ATOM     24  CA  ALA A   1       1.096   3.393  20.496  0.00  0.00    +0.000 C 
ATOM     25  CB  ALA A   1       0.748   2.431  19.370  0.00  0.00    +0.000 C 
BRANCH  24  26
ATOM     26  C   ALA A   1       1.591   2.623  21.732  0.00  0.00    +0.000 C 
ATOM     27  O   ALA A   1       0.875   2.190  22.623  0.00  0.00    +0.000 OA
BRANCH  26  28
ATOM     28  OXT ALA A   1       2.946   2.513  21.779  0.00  0.00    +0.000 OA
ATOM     29  HXT ALA A   1       3.280   2.202  20.908  0.00  0.00    +0.000 HD
ENDBRANCH  26  28
ENDBRANCH  24  26
ENDBRANCH  21  24
ENDBRANCH   6  18
TORSDOF 5
ENDMDL
MODEL 2
REMARK VINA RESULT:      -8.0      5.134      7.205
REMARK  Name = 
REMARK  7 active torsions:
REMARK  status: ('A' for Active; 'I' for Inactive)
REMARK    1  A    between atoms: C_1  and  C_2
REMARK    2  A    between atoms: C_4  and  C_5
REMARK    3  A    between atoms: C_10  and  N_11
REMARK    4  A    between atoms: N_14  and  CA_15
REMARK    5  A    between atoms: CA_15  and  CB_16
REMARK    6  A    between atoms: CA_15  and  C_17
REMARK    7  A    between atoms: C_17  and  OXT_19
REMARK                            x       y       z     vdW  Elec       q    Type
REMARK                         _______ _______ _______ _____ _____    ______ ____
ROOT
ATOM      1  C   UNK A   0       2.662   6.449  19.197  0.00  0.00    +0.000 A 
ATOM      2  N   UNK A   0       2.251   6.156  20.441  0.00  0.00    +0.000 NA
ATOM      3  N   UNK A   0       1.624   7.271  20.863  0.00  0.00    +0.000 N 
ATOM      4  C   UNK A   0       1.580   8.278  19.936  0.00  0.00    +0.000 A 
ATOM      5  C   UNK A   0       1.047   9.571  19.962  0.00  0.00    +0.000 A 
ATOM      6  C   UNK A   0       1.205  10.293  18.782  0.00  0.00    +0.000 A 
ATOM      7  N   UNK A   0       1.815   9.792  17.682  0.00  0.00    +0.000 NA
ATOM      8  C   UNK A   0       2.313   8.538  17.679  0.00  0.00    +0.000 A 
ATOM      9  C   UNK A   0       2.228   7.753  18.825  0.00  0.00    +0.000 A 
ATOM     10  H   UNK A   0       1.240   7.272  21.801  0.00  0.00    +0.000 HD
ENDROOT
BRANCH   1  14
ATOM     11  C   UNK A   0       7.010   4.770  17.384  0.00  0.00    +0.000 C 
ATOM     12  C   UNK A   0       5.524   4.682  17.537  0.00  0.00    +0.000 A 
ATOM     13  C   UNK A   0       4.822   5.621  18.287  0.00  0.00    +0.000 A 
ATOM     14  C   UNK A   0       3.434   5.505  18.386  0.00  0.00    +0.000 A 
ATOM     15  C   UNK A   0       2.802   4.461  17.705  0.00  0.00    +0.000 A 
ATOM     16  C   UNK A   0       3.577   3.564  16.995  0.00  0.00    +0.000 A 
ATOM     17  N   UNK A   0       4.917   3.652  16.902  0.00  0.00    +0.000 NA
ENDBRANCH   1  14
BRANCH   6  18
ATOM     18  N   UNK A   0       0.725  11.610  18.711  0.00  0.00    +0.000 N 
ATOM     19  C   UNK A   0      -0.465  12.032  18.169  0.00  0.00    +0.000 C 
ATOM     20  O   UNK A   0      -0.759  13.222  18.153  0.00  0.00    +0.000 OA
ATOM     21  N   ALA A   1      -1.278  11.053  17.688  0.00  0.00    +0.000 N 
ATOM     22  H   UNK A   0       1.299  12.359  19.073  0.00  0.00    +0.000 HD
ATOM     23  H   ALA A   1      -0.767  10.191  17.490  0.00  0.00    +0.000 HD
BRANCH  21  24
ATOM     24  CA  ALA A   1      -2.500  11.268  16.920  0.00  0.00    +0.000 C 
ATOM     25  CB  ALA A   1      -2.690  10.166  15.889  0.00  0.00    +0.000 C 
BRANCH  24  26
ATOM     26  C   ALA A   1      -3.680  11.295  17.906  0.00  0.00    +0.000 C 
ATOM     27  O   ALA A   1      -4.552  10.443  17.981  0.00  0.00    +0.000 OA
BRANCH  26  28
ATOM     28  OXT ALA A   1      -3.703  12.420  18.672  0.00  0.00    +0.000 OA
ATOM     29  HXT ALA A   1      -3.724  12.168  19.622  0.00  0.00    +0.000 HD
ENDBRANCH  26  28
ENDBRANCH  24  26
ENDBRANCH  21  24
ENDBRANCH   6  18
TORSDOF 5
ENDMDL
MODEL 3
REMARK VINA RESULT:      -8.0      4.856      8.505
REMARK  Name = 
REMARK  7 active torsions:
REMARK  status: ('A' for Active; 'I' for Inactive)
REMARK    1  A    between atoms: C_1  and  C_2
REMARK    2  A    between atoms: C_4  and  C_5
REMARK    3  A    between atoms: C_10  and  N_11
REMARK    4  A    between atoms: N_14  and  CA_15
REMARK    5  A    between atoms: CA_15  and  CB_16
REMARK    6  A    between atoms: CA_15  and  C_17
REMARK    7  A    between atoms: C_17  and  OXT_19
REMARK                            x       y       z     vdW  Elec       q    Type
REMARK                         _______ _______ _______ _____ _____    ______ ____
ROOT
ATOM      1  C   UNK A   0       1.012   9.621  20.044  0.00  0.00    +0.000 A 
ATOM      2  N   UNK A   0       0.913   9.185  21.310  0.00  0.00    +0.000 NA
ATOM      3  N   UNK A   0       1.438   7.945  21.284  0.00  0.00    +0.000 N 
ATOM      4  C   UNK A   0       1.906   7.556  20.057  0.00  0.00    +0.000 A 
ATOM      5  C   UNK A   0       2.504   6.379  19.598  0.00  0.00    +0.000 A 
ATOM      6  C   UNK A   0       2.852   6.386  18.250  0.00  0.00    +0.000 A 
ATOM      7  N   UNK A   0       2.644   7.448  17.436  0.00  0.00    +0.000 NA
ATOM      8  C   UNK A   0       2.073   8.577  17.906  0.00  0.00    +0.000 A 
ATOM      9  C   UNK A   0       1.664   8.649  19.234  0.00  0.00    +0.000 A 
ATOM     10  H   UNK A   0       1.452   7.419  22.151  0.00  0.00    +0.000 HD
ENDROOT
BRANCH   1  14
ATOM     11  C   UNK A   0       1.776  14.334  18.554  0.00  0.00    +0.000 C 
ATOM     12  C   UNK A   0       0.874  13.185  18.885  0.00  0.00    +0.000 A 
ATOM     13  C   UNK A   0       1.391  11.967  19.314  0.00  0.00    +0.000 A 
ATOM     14  C   UNK A   0       0.508  10.932  19.627  0.00  0.00    +0.000 A 
ATOM     15  C   UNK A   0      -0.864  11.171  19.519  0.00  0.00    +0.000 A 
ATOM     16  C   UNK A   0      -1.292  12.406  19.071  0.00  0.00    +0.000 A 
ATOM     17  N   UNK A   0      -0.454  13.409  18.750  0.00  0.00    +0.000 NA
ENDBRANCH   1  14
BRANCH   6  18
ATOM     18  N   UNK A   0       3.439   5.243  17.684  0.00  0.00    +0.000 N 
ATOM     19  C   UNK A   0       4.769   5.044  17.408  0.00  0.00    +0.000 C 
ATOM     20  O   UNK A   0       5.152   4.000  16.891  0.00  0.00    +0.000 OA
ATOM     21  N   ALA A   1       5.607   6.055  17.765  0.00  0.00    +0.000 N 
ATOM     22  H   UNK A   0       2.844   4.469  17.421  0.00  0.00    +0.000 HD
ATOM     23  H   ALA A   1       5.114   6.942  17.876  0.00  0.00    +0.000 HD
BRANCH  21  24
ATOM     24  CA  ALA A   1       7.023   6.143  17.420  0.00  0.00    +0.000 C 
ATOM     25  CB  ALA A   1       7.535   7.563  17.605  0.00  0.00    +0.000 C 
BRANCH  24  26
ATOM     26  C   ALA A   1       7.792   5.169  18.328  0.00  0.00    +0.000 C 
ATOM     27  O   ALA A   1       8.068   5.370  19.501  0.00  0.00    +0.000 OA
BRANCH  26  28
ATOM     28  OXT ALA A   1       8.206   4.050  17.672  0.00  0.00    +0.000 OA
ATOM     29  HXT ALA A   1       9.058   4.233  17.218  0.00  0.00    +0.000 HD
ENDBRANCH  26  28
ENDBRANCH  24  26
ENDBRANCH  21  24
ENDBRANCH   6  18
TORSDOF 5
ENDMDL
MODEL 4
REMARK VINA RESULT:      -7.9      4.624      8.773
REMARK  Name = 
REMARK  7 active torsions:
REMARK  status: ('A' for Active; 'I' for Inactive)
REMARK    1  A    between atoms: C_1  and  C_2
REMARK    2  A    between atoms: C_4  and  C_5
REMARK    3  A    between atoms: C_10  and  N_11
REMARK    4  A    between atoms: N_14  and  CA_15
REMARK    5  A    between atoms: CA_15  and  CB_16
REMARK    6  A    between atoms: CA_15  and  C_17
REMARK    7  A    between atoms: C_17  and  OXT_19
REMARK                            x       y       z     vdW  Elec       q    Type
REMARK                         _______ _______ _______ _____ _____    ______ ____
ROOT
ATOM      1  C   UNK A   0       0.665  10.264  19.775  0.00  0.00    +0.000 A 
ATOM      2  N   UNK A   0       0.587  10.979  18.642  0.00  0.00    +0.000 NA
ATOM      3  N   UNK A   0       1.300  10.272  17.744  0.00  0.00    +0.000 N 
ATOM      4  C   UNK A   0       1.821   9.103  18.233  0.00  0.00    +0.000 A 
ATOM      5  C   UNK A   0       2.608   8.100  17.659  0.00  0.00    +0.000 A 
ATOM      6  C   UNK A   0       2.926   7.045  18.510  0.00  0.00    +0.000 A 
ATOM      7  N   UNK A   0       2.503   6.976  19.794  0.00  0.00    +0.000 NA
ATOM      8  C   UNK A   0       1.736   7.953  20.323  0.00  0.00    +0.000 A 
ATOM      9  C   UNK A   0       1.394   9.062  19.555  0.00  0.00    +0.000 A 
ATOM     10  H   UNK A   0       1.383  10.645  16.805  0.00  0.00    +0.000 HD
ENDROOT
BRANCH   1  14
ATOM     11  C   UNK A   0      -1.070  13.893  22.748  0.00  0.00    +0.000 C 
ATOM     12  C   UNK A   0      -0.808  12.451  22.443  0.00  0.00    +0.000 A 
ATOM     13  C   UNK A   0      -0.187  12.069  21.258  0.00  0.00    +0.000 A 
ATOM     14  C   UNK A   0       0.050  10.713  21.027  0.00  0.00    +0.000 A 
ATOM     15  C   UNK A   0      -0.324   9.793  22.011  0.00  0.00    +0.000 A 
ATOM     16  C   UNK A   0      -0.949  10.258  23.153  0.00  0.00    +0.000 A 
ATOM     17  N   UNK A   0      -1.200  11.559  23.383  0.00  0.00    +0.000 NA
ENDBRANCH   1  14
BRANCH   6  18
ATOM     18  N   UNK A   0       3.731   5.997  18.037  0.00  0.00    +0.000 N 
ATOM     19  C   UNK A   0       3.585   4.657  18.297  0.00  0.00    +0.000 C 
ATOM     20  O   UNK A   0       4.374   3.840  17.834  0.00  0.00    +0.000 OA
ATOM     21  N   ALA A   1       2.515   4.314  19.064  0.00  0.00    +0.000 N 
ATOM     22  H   UNK A   0       4.526   6.218  17.453  0.00  0.00    +0.000 HD
ATOM     23  H   ALA A   1       2.166   5.102  19.611  0.00  0.00    +0.000 HD
BRANCH  21  24
ATOM     24  CA  ALA A   1       2.254   2.985  19.610  0.00  0.00    +0.000 C 
ATOM     25  CB  ALA A   1       1.564   3.084  20.961  0.00  0.00    +0.000 C 
BRANCH  24  26
ATOM     26  C   ALA A   1       1.371   2.227  18.605  0.00  0.00    +0.000 C 
ATOM     27  O   ALA A   1       0.172   2.029  18.733  0.00  0.00    +0.000 OA
BRANCH  26  28
ATOM     28  OXT ALA A   1       2.076   1.724  17.555  0.00  0.00    +0.000 OA
ATOM     29  HXT ALA A   1       2.643   0.984  17.866  0.00  0.00    +0.000 HD
ENDBRANCH  26  28
ENDBRANCH  24  26
ENDBRANCH  21  24
ENDBRANCH   6  18
TORSDOF 5
ENDMDL
MODEL 5
REMARK VINA RESULT:      -7.9      4.528      9.034
REMARK  Name = 
REMARK  7 active torsions:
REMARK  status: ('A' for Active; 'I' for Inactive)
REMARK    1  A    between atoms: C_1  and  C_2
REMARK    2  A    between atoms: C_4  and  C_5
REMARK    3  A    between atoms: C_10  and  N_11
REMARK    4  A    between atoms: N_14  and  CA_15
REMARK    5  A    between atoms: CA_15  and  CB_16
REMARK    6  A    between atoms: CA_15  and  C_17
REMARK    7  A    between atoms: C_17  and  OXT_19
REMARK                            x       y       z     vdW  Elec       q    Type
REMARK                         _______ _______ _______ _____ _____    ______ ____
ROOT
ATOM      1  C   UNK A   0       1.116   9.720  19.684  0.00  0.00    +0.000 A 
ATOM      2  N   UNK A   0       1.208  10.554  18.636  0.00  0.00    +0.000 NA
ATOM      3  N   UNK A   0       1.837   9.836  17.686  0.00  0.00    +0.000 N 
ATOM      4  C   UNK A   0       2.136   8.551  18.055  0.00  0.00    +0.000 A 
ATOM      5  C   UNK A   0       2.775   7.497  17.394  0.00  0.00    +0.000 A 
ATOM      6  C   UNK A   0       2.876   6.320  18.131  0.00  0.00    +0.000 A 
ATOM      7  N   UNK A   0       2.387   6.187  19.387  0.00  0.00    +0.000 NA
ATOM      8  C   UNK A   0       1.767   7.217  19.999  0.00  0.00    +0.000 A 
ATOM      9  C   UNK A   0       1.648   8.442  19.351  0.00  0.00    +0.000 A 
ATOM     10  H   UNK A   0       2.024  10.287  16.798  0.00  0.00    +0.000 HD
ENDROOT
BRANCH   1  14
ATOM     11  C   UNK A   0      -0.999  13.171  22.623  0.00  0.00    +0.000 C 
ATOM     12  C   UNK A   0      -0.516  11.778  22.362  0.00  0.00    +0.000 A 
ATOM     13  C   UNK A   0       0.074  11.438  21.149  0.00  0.00    +0.000 A 
ATOM     14  C   UNK A   0       0.525  10.130  20.961  0.00  0.00    +0.000 A 
ATOM     15  C   UNK A   0       0.386   9.219  22.012  0.00  0.00    +0.000 A 
ATOM     16  C   UNK A   0      -0.225   9.637  23.179  0.00  0.00    +0.000 A 
ATOM     17  N   UNK A   0      -0.679  10.889  23.370  0.00  0.00    +0.000 NA
ENDBRANCH   1  14
BRANCH   6  18
ATOM     18  N   UNK A   0       3.519   5.207  17.567  0.00  0.00    +0.000 N 
ATOM     19  C   UNK A   0       4.867   5.046  17.356  0.00  0.00    +0.000 C 
ATOM     20  O   UNK A   0       5.301   4.025  16.834  0.00  0.00    +0.000 OA
ATOM     21  N   ALA A   1       5.661   6.065  17.783  0.00  0.00    +0.000 N 
ATOM     22  H   UNK A   0       2.958   4.427  17.253  0.00  0.00    +0.000 HD
ATOM     23  H   ALA A   1       5.141   6.937  17.892  0.00  0.00    +0.000 HD
BRANCH  21  24
ATOM     24  CA  ALA A   1       7.089   6.196  17.516  0.00  0.00    +0.000 C 
ATOM     25  CB  ALA A   1       7.560   7.618  17.780  0.00  0.00    +0.000 C 
BRANCH  24  26
ATOM     26  C   ALA A   1       7.833   5.202  18.425  0.00  0.00    +0.000 C 
ATOM     27  O   ALA A   1       8.077   5.381  19.609  0.00  0.00    +0.000 OA
BRANCH  26  28
ATOM     28  OXT ALA A   1       8.264   4.096  17.759  0.00  0.00    +0.000 OA
ATOM     29  HXT ALA A   1       8.669   4.366  16.905  0.00  0.00    +0.000 HD
ENDBRANCH  26  28
ENDBRANCH  24  26
ENDBRANCH  21  24
ENDBRANCH   6  18
TORSDOF 5
ENDMDL
MODEL 6
REMARK VINA RESULT:      -7.8      5.216      7.242
REMARK  Name = 
REMARK  7 active torsions:
REMARK  status: ('A' for Active; 'I' for Inactive)
REMARK    1  A    between atoms: C_1  and  C_2
REMARK    2  A    between atoms: C_4  and  C_5
REMARK    3  A    between atoms: C_10  and  N_11
REMARK    4  A    between atoms: N_14  and  CA_15
REMARK    5  A    between atoms: CA_15  and  CB_16
REMARK    6  A    between atoms: CA_15  and  C_17
REMARK    7  A    between atoms: C_17  and  OXT_19
REMARK                            x       y       z     vdW  Elec       q    Type
REMARK                         _______ _______ _______ _____ _____    ______ ____
ROOT
ATOM      1  C   UNK A   0       2.575   6.494  19.292  0.00  0.00    +0.000 A 
ATOM      2  N   UNK A   0       2.185   6.256  20.554  0.00  0.00    +0.000 NA
ATOM      3  N   UNK A   0       1.593   7.400  20.948  0.00  0.00    +0.000 N 
ATOM      4  C   UNK A   0       1.551   8.373  19.985  0.00  0.00    +0.000 A 
ATOM      5  C   UNK A   0       1.048   9.678  19.974  0.00  0.00    +0.000 A 
ATOM      6  C   UNK A   0       1.196  10.353  18.766  0.00  0.00    +0.000 A 
ATOM      7  N   UNK A   0       1.770   9.798  17.672  0.00  0.00    +0.000 NA
ATOM      8  C   UNK A   0       2.239   8.533  17.705  0.00  0.00    +0.000 A 
ATOM      9  C   UNK A   0       2.163   7.793  18.881  0.00  0.00    +0.000 A 
ATOM     10  H   UNK A   0       1.229   7.444  21.893  0.00  0.00    +0.000 HD
ENDROOT
BRANCH   1  14
ATOM     11  C   UNK A   0       3.455   1.765  17.920  0.00  0.00    +0.000 C 
ATOM     12  C   UNK A   0       3.713   3.237  17.821  0.00  0.00    +0.000 A 
ATOM     13  C   UNK A   0       3.020   4.142  18.618  0.00  0.00    +0.000 A 
ATOM     14  C   UNK A   0       3.308   5.503  18.500  0.00  0.00    +0.000 A 
ATOM     15  C   UNK A   0       4.302   5.899  17.600  0.00  0.00    +0.000 A 
ATOM     16  C   UNK A   0       4.930   4.934  16.836  0.00  0.00    +0.000 A 
ATOM     17  N   UNK A   0       4.653   3.620  16.926  0.00  0.00    +0.000 NA
ENDBRANCH   1  14
BRANCH   6  18
ATOM     18  N   UNK A   0       0.744  11.677  18.656  0.00  0.00    +0.000 N 
ATOM     19  C   UNK A   0      -0.444  12.107  18.115  0.00  0.00    +0.000 C 
ATOM     20  O   UNK A   0      -0.711  13.303  18.063  0.00  0.00    +0.000 OA
ATOM     21  N   ALA A   1      -1.285  11.131  17.678  0.00  0.00    +0.000 N 
ATOM     22  H   UNK A   0       1.340  12.425  18.985  0.00  0.00    +0.000 HD
ATOM     23  H   ALA A   1      -0.795  10.252  17.503  0.00  0.00    +0.000 HD
BRANCH  21  24
ATOM     24  CA  ALA A   1      -2.512  11.348  16.919  0.00  0.00    +0.000 C 
ATOM     25  CB  ALA A   1      -2.695  10.262  15.869  0.00  0.00    +0.000 C 
BRANCH  24  26
ATOM     26  C   ALA A   1      -3.688  11.345  17.910  0.00  0.00    +0.000 C 
ATOM     27  O   ALA A   1      -4.566  10.497  17.955  0.00  0.00    +0.000 OA
BRANCH  26  28
ATOM     28  OXT ALA A   1      -3.699  12.438  18.721  0.00  0.00    +0.000 OA
ATOM     29  HXT ALA A   1      -3.789  12.150  19.656  0.00  0.00    +0.000 HD
ENDBRANCH  26  28
ENDBRANCH  24  26
ENDBRANCH  21  24
ENDBRANCH   6  18
TORSDOF 5
ENDMDL
MODEL 7
REMARK VINA RESULT:      -7.8      4.811      8.606
REMARK  Name = 
REMARK  7 active torsions:
REMARK  status: ('A' for Active; 'I' for Inactive)
REMARK    1  A    between atoms: C_1  and  C_2
REMARK    2  A    between atoms: C_4  and  C_5
REMARK    3  A    between atoms: C_10  and  N_11
REMARK    4  A    between atoms: N_14  and  CA_15
REMARK    5  A    between atoms: CA_15  and  CB_16
REMARK    6  A    between atoms: CA_15  and  C_17
REMARK    7  A    between atoms: C_17  and  OXT_19
REMARK                            x       y       z     vdW  Elec       q    Type
REMARK                         _______ _______ _______ _____ _____    ______ ____
ROOT
ATOM      1  C   UNK A   0       1.021   9.511  20.172  0.00  0.00    +0.000 A 
ATOM      2  N   UNK A   0       0.979   9.046  21.431  0.00  0.00    +0.000 NA
ATOM      3  N   UNK A   0       1.526   7.818  21.357  0.00  0.00    +0.000 N 
ATOM      4  C   UNK A   0       1.954   7.465  20.105  0.00  0.00    +0.000 A 
ATOM      5  C   UNK A   0       2.556   6.309  19.597  0.00  0.00    +0.000 A 
ATOM      6  C   UNK A   0       2.851   6.351  18.237  0.00  0.00    +0.000 A 
ATOM      7  N   UNK A   0       2.592   7.427  17.456  0.00  0.00    +0.000 NA
ATOM      8  C   UNK A   0       2.019   8.534  17.972  0.00  0.00    +0.000 A 
ATOM      9  C   UNK A   0       1.660   8.570  19.316  0.00  0.00    +0.000 A 
ATOM     10  H   UNK A   0       1.583   7.274  22.211  0.00  0.00    +0.000 HD
ENDROOT
BRANCH   1  14
ATOM     11  C   UNK A   0      -2.686  12.869  20.159  0.00  0.00    +0.000 C 
ATOM     12  C   UNK A   0      -1.291  12.443  19.820  0.00  0.00    +0.000 A 
ATOM     13  C   UNK A   0      -0.825  11.176  20.156  0.00  0.00    +0.000 A 
ATOM     14  C   UNK A   0       0.478  10.820  19.803  0.00  0.00    +0.000 A 
ATOM     15  C   UNK A   0       1.255  11.747  19.102  0.00  0.00    +0.000 A 
ATOM     16  C   UNK A   0       0.719  12.990  18.822  0.00  0.00    +0.000 A 
ATOM     17  N   UNK A   0      -0.530  13.353  19.169  0.00  0.00    +0.000 NA
ENDBRANCH   1  14
BRANCH   6  18
ATOM     18  N   UNK A   0       3.437   5.233  17.624  0.00  0.00    +0.000 N 
ATOM     19  C   UNK A   0       4.768   5.043  17.344  0.00  0.00    +0.000 C 
ATOM     20  O   UNK A   0       5.149   4.020  16.784  0.00  0.00    +0.000 OA
ATOM     21  N   ALA A   1       5.607   6.034  17.747  0.00  0.00    +0.000 N 
ATOM     22  H   UNK A   0       2.841   4.473  17.326  0.00  0.00    +0.000 HD
ATOM     23  H   ALA A   1       5.116   6.917  17.895  0.00  0.00    +0.000 HD
BRANCH  21  24
ATOM     24  CA  ALA A   1       7.024   6.134  17.410  0.00  0.00    +0.000 C 
ATOM     25  CB  ALA A   1       7.523   7.559  17.595  0.00  0.00    +0.000 C 
BRANCH  24  26
ATOM     26  C   ALA A   1       7.796   5.168  18.325  0.00  0.00    +0.000 C 
ATOM     27  O   ALA A   1       8.077   5.382  19.495  0.00  0.00    +0.000 OA
BRANCH  26  28
ATOM     28  OXT ALA A   1       8.206   4.042  17.680  0.00  0.00    +0.000 OA
ATOM     29  HXT ALA A   1       9.018   4.239  17.163  0.00  0.00    +0.000 HD
ENDBRANCH  26  28
ENDBRANCH  24  26
ENDBRANCH  21  24
ENDBRANCH   6  18
TORSDOF 5
ENDMDL
MODEL 8
REMARK VINA RESULT:      -7.7      4.254      8.453
REMARK  Name = 
REMARK  7 active torsions:
REMARK  status: ('A' for Active; 'I' for Inactive)
REMARK    1  A    between atoms: C_1  and  C_2
REMARK    2  A    between atoms: C_4  and  C_5
REMARK    3  A    between atoms: C_10  and  N_11
REMARK    4  A    between atoms: N_14  and  CA_15
REMARK    5  A    between atoms: CA_15  and  CB_16
REMARK    6  A    between atoms: CA_15  and  C_17
REMARK    7  A    between atoms: C_17  and  OXT_19
REMARK                            x       y       z     vdW  Elec       q    Type
REMARK                         _______ _______ _______ _____ _____    ______ ____
ROOT
ATOM      1  C   UNK A   0       0.982   9.758  19.679  0.00  0.00    +0.000 A 
ATOM      2  N   UNK A   0       0.883  10.606  18.643  0.00  0.00    +0.000 NA
ATOM      3  N   UNK A   0       1.614  10.036  17.667  0.00  0.00    +0.000 N 
ATOM      4  C   UNK A   0       2.168   8.831  18.007  0.00  0.00    +0.000 A 
ATOM      5  C   UNK A   0       2.983   7.930  17.315  0.00  0.00    +0.000 A 
ATOM      6  C   UNK A   0       3.331   6.787  18.029  0.00  0.00    +0.000 A 
ATOM      7  N   UNK A   0       2.911   6.546  19.294  0.00  0.00    +0.000 NA
ATOM      8  C   UNK A   0       2.117   7.428  19.937  0.00  0.00    +0.000 A 
ATOM      9  C   UNK A   0       1.744   8.613  19.313  0.00  0.00    +0.000 A 
ATOM     10  H   UNK A   0       1.686  10.526  16.782  0.00  0.00    +0.000 HD
ENDROOT
BRANCH   1  14
ATOM     11  C   UNK A   0      -1.975  12.517  22.621  0.00  0.00    +0.000 C 
ATOM     12  C   UNK A   0      -1.085  11.338  22.381  0.00  0.00    +0.000 A 
ATOM     13  C   UNK A   0      -0.480  11.136  21.145  0.00  0.00    +0.000 A 
ATOM     14  C   UNK A   0       0.356  10.030  20.975  0.00  0.00    +0.000 A 
ATOM     15  C   UNK A   0       0.569   9.182  22.066  0.00  0.00    +0.000 A 
ATOM     16  C   UNK A   0      -0.084   9.449  23.254  0.00  0.00    +0.000 A 
ATOM     17  N   UNK A   0      -0.905  10.501  23.429  0.00  0.00    +0.000 NA
ENDBRANCH   1  14
BRANCH   6  18
ATOM     18  N   UNK A   0       4.165   5.828  17.432  0.00  0.00    +0.000 N 
ATOM     19  C   UNK A   0       3.932   4.479  17.322  0.00  0.00    +0.000 C 
ATOM     20  O   UNK A   0       4.757   3.743  16.789  0.00  0.00    +0.000 OA
ATOM     21  N   ALA A   1       2.741   4.040  17.811  0.00  0.00    +0.000 N 
ATOM     22  H   UNK A   0       5.050   6.125  17.046  0.00  0.00    +0.000 HD
ATOM     23  H   ALA A   1       2.336   4.696  18.482  0.00  0.00    +0.000 HD
BRANCH  21  24
ATOM     24  CA  ALA A   1       2.351   2.642  17.961  0.00  0.00    +0.000 C 
ATOM     25  CB  ALA A   1       3.443   1.849  18.662  0.00  0.00    +0.000 C 
BRANCH  24  26
ATOM     26  C   ALA A   1       1.045   2.600  18.773  0.00  0.00    +0.000 C 
ATOM     27  O   ALA A   1       0.797   3.304  19.740  0.00  0.00    +0.000 OA
BRANCH  26  28
ATOM     28  OXT ALA A   1       0.186   1.635  18.345  0.00  0.00    +0.000 OA
ATOM     29  HXT ALA A   1       0.137   0.920  19.017  0.00  0.00    +0.000 HD
ENDBRANCH  26  28
ENDBRANCH  24  26
ENDBRANCH  21  24
ENDBRANCH   6  18
TORSDOF 5
ENDMDL
MODEL 9
REMARK VINA RESULT:      -7.6      5.051      7.092
REMARK  Name = 
REMARK  7 active torsions:
REMARK  status: ('A' for Active; 'I' for Inactive)
REMARK    1  A    between atoms: C_1  and  C_2
REMARK    2  A    between atoms: C_4  and  C_5
REMARK    3  A    between atoms: C_10  and  N_11
REMARK    4  A    between atoms: N_14  and  CA_15
REMARK    5  A    between atoms: CA_15  and  CB_16
REMARK    6  A    between atoms: CA_15  and  C_17
REMARK    7  A    between atoms: C_17  and  OXT_19
REMARK                            x       y       z     vdW  Elec       q    Type
REMARK                         _______ _______ _______ _____ _____    ______ ____
ROOT
ATOM      1  C   UNK A   0       3.063   6.325  19.181  0.00  0.00    +0.000 A 
ATOM      2  N   UNK A   0       2.742   6.033  20.452  0.00  0.00    +0.000 NA
ATOM      3  N   UNK A   0       1.925   7.034  20.834  0.00  0.00    +0.000 N 
ATOM      4  C   UNK A   0       1.670   7.958  19.856  0.00  0.00    +0.000 A 
ATOM      5  C   UNK A   0       0.903   9.128  19.830  0.00  0.00    +0.000 A 
ATOM      6  C   UNK A   0       0.896   9.796  18.609  0.00  0.00    +0.000 A 
ATOM      7  N   UNK A   0       1.566   9.355  17.518  0.00  0.00    +0.000 NA
ATOM      8  C   UNK A   0       2.291   8.218  17.566  0.00  0.00    +0.000 A 
ATOM      9  C   UNK A   0       2.382   7.500  18.754  0.00  0.00    +0.000 A 
ATOM     10  H   UNK A   0       1.568   7.017  21.783  0.00  0.00    +0.000 HD
ENDROOT
BRANCH   1  14
ATOM     11  C   UNK A   0       7.690   4.862  17.971  0.00  0.00    +0.000 C 
ATOM     12  C   UNK A   0       6.201   4.774  17.835  0.00  0.00    +0.000 A 
ATOM     13  C   UNK A   0       5.363   5.605  18.572  0.00  0.00    +0.000 A 
ATOM     14  C   UNK A   0       3.982   5.497  18.397  0.00  0.00    +0.000 A 
ATOM     15  C   UNK A   0       3.498   4.572  17.468  0.00  0.00    +0.000 A 
ATOM     16  C   UNK A   0       4.401   3.775  16.790  0.00  0.00    +0.000 A 
ATOM     17  N   UNK A   0       5.733   3.856  16.958  0.00  0.00    +0.000 NA
ENDBRANCH   1  14
BRANCH   6  18
ATOM     18  N   UNK A   0       0.174  10.993  18.483  0.00  0.00    +0.000 N 
ATOM     19  C   UNK A   0      -1.112  11.142  18.024  0.00  0.00    +0.000 C 
ATOM     20  O   UNK A   0      -1.624  12.254  17.946  0.00  0.00    +0.000 OA
ATOM     21  N   ALA A   1      -1.763   9.993  17.697  0.00  0.00    +0.000 N 
ATOM     22  H   UNK A   0       0.625  11.863  18.732  0.00  0.00    +0.000 HD
ATOM     23  H   ALA A   1      -1.116   9.223  17.518  0.00  0.00    +0.000 HD
BRANCH  21  24
ATOM     24  CA  ALA A   1      -3.059   9.914  17.032  0.00  0.00    +0.000 C 
ATOM     25  CB  ALA A   1      -4.110  10.696  17.804  0.00  0.00    +0.000 C 
BRANCH  24  26
ATOM     26  C   ALA A   1      -2.897  10.481  15.611  0.00  0.00    +0.000 C 
ATOM     27  O   ALA A   1      -2.363   9.900  14.679  0.00  0.00    +0.000 OA
BRANCH  26  28
ATOM     28  OXT ALA A   1      -3.363  11.755  15.495  0.00  0.00    +0.000 OA
ATOM     29  HXT ALA A   1      -2.605  12.372  15.390  0.00  0.00    +0.000 HD
ENDBRANCH  26  28
ENDBRANCH  24  26
ENDBRANCH  21  24
ENDBRANCH   6  18
TORSDOF 5
ENDMDL
