MODEL 1
REMARK VINA RESULT:      -8.1      0.000      0.000
REMARK  Name = 
REMARK  8 active torsions:
REMARK  status: ('A' for Active; 'I' for Inactive)
REMARK    1  A    between atoms: C_2  and  O_3
REMARK    2  A    between atoms: C_2  and  C_4
REMARK    3  A    between atoms: C_7  and  S_8
REMARK    4  A    between atoms: S_8  and  N_11
REMARK    5  A    between atoms: N_11  and  C_12
REMARK    6  A    between atoms: N_11  and  C_19
REMARK    7  A    between atoms: C_12  and  C_13
REMARK    8  A    between atoms: C_19  and  C_20
REMARK                            x       y       z     vdW  Elec       q    Type
REMARK                         _______ _______ _______ _____ _____    ______ ____
ROOT
ATOM      1  N   UNL     1       4.698   4.623  16.718  0.00  0.00    +0.000 NA
ENDROOT
BRANCH   1   2
ATOM      2  S   UNL     1       5.078   6.131  17.367  0.00  0.00    +0.000 S 
ATOM      3  O   UNL     1       5.508   7.026  16.327  0.00  0.00    +0.000 OA
ATOM      4  O   UNL     1       5.948   5.908  18.506  0.00  0.00    +0.000 OA
BRANCH   2   8
ATOM      5  C   UNL     1       1.655   8.377  19.381  0.00  0.00    +0.000 A 
ATOM      6  C   UNL     1       2.220   7.254  19.999  0.00  0.00    +0.000 A 
ATOM      7  C   UNL     1       3.160   6.472  19.321  0.00  0.00    +0.000 A 
ATOM      8  C   UNL     1       3.563   6.827  18.033  0.00  0.00    +0.000 A 
ATOM      9  C   UNL     1       2.980   7.939  17.408  0.00  0.00    +0.000 A 
ATOM     10  C   UNL     1       2.007   8.699  18.066  0.00  0.00    +0.000 A 
BRANCH   5  12
ATOM     11  O   UNL     1       0.864  10.502  20.078  0.00  0.00    +0.000 OA
ATOM     12  C   UNL     1       0.836   9.294  20.211  0.00  0.00    +0.000 C 
BRANCH  12  13
ATOM     13  O   UNL     1       0.079   8.667  21.133  0.00  0.00    +0.000 OA
ATOM     14  H   UNL     1       0.021   7.699  21.033  0.00  0.00    +0.000 HD
ENDBRANCH  12  13
ENDBRANCH   5  12
ENDBRANCH   2   8
ENDBRANCH   1   2
BRANCH   1  15
ATOM     15  C   UNL     1       5.794   3.804  16.157  0.00  0.00    +0.000 C 
BRANCH  15  16
ATOM     16  C   UNL     1       6.133   4.027  14.700  0.00  0.00    +0.000 A 
ATOM     17  C   UNL     1       5.473   3.386  13.643  0.00  0.00    +0.000 A 
ATOM     18  C   UNL     1       5.911   3.540  12.326  0.00  0.00    +0.000 A 
ATOM     19  C   UNL     1       7.014   4.340  12.045  0.00  0.00    +0.000 A 
ATOM     20  C   UNL     1       7.657   5.019  13.075  0.00  0.00    +0.000 A 
ATOM     21  C   UNL     1       7.213   4.872  14.391  0.00  0.00    +0.000 A 
ENDBRANCH  15  16
ENDBRANCH   1  15
BRANCH   1  22
ATOM     22  C   UNL     1       3.375   3.979  16.686  0.00  0.00    +0.000 C 
BRANCH  22  23
ATOM     23  C   UNL     1       2.789   3.429  17.960  0.00  0.00    +0.000 A 
ATOM     24  C   UNL     1       1.413   3.440  18.222  0.00  0.00    +0.000 A 
ATOM     25  C   UNL     1       0.931   3.111  19.493  0.00  0.00    +0.000 A 
ATOM     26  C   UNL     1       1.812   2.693  20.488  0.00  0.00    +0.000 A 
ATOM     27  C   UNL     1       3.160   2.557  20.184  0.00  0.00    +0.000 A 
ATOM     28  F   UNL     1       4.015   2.149  21.134  0.00  0.00    +0.000 F 
ATOM     29  C   UNL     1       3.651   2.901  18.933  0.00  0.00    +0.000 A 
ENDBRANCH  22  23
ENDBRANCH   1  22
TORSDOF 8
ENDMDL
MODEL 2
REMARK VINA RESULT:      -8.1      2.491      6.265
REMARK  Name = 
REMARK  8 active torsions:
REMARK  status: ('A' for Active; 'I' for Inactive)
REMARK    1  A    between atoms: C_2  and  O_3
REMARK    2  A    between atoms: C_2  and  C_4
REMARK    3  A    between atoms: C_7  and  S_8
REMARK    4  A    between atoms: S_8  and  N_11
REMARK    5  A    between atoms: N_11  and  C_12
REMARK    6  A    between atoms: N_11  and  C_19
REMARK    7  A    between atoms: C_12  and  C_13
REMARK    8  A    between atoms: C_19  and  C_20
REMARK                            x       y       z     vdW  Elec       q    Type
REMARK                         _______ _______ _______ _____ _____    ______ ____
ROOT
ATOM      1  N   UNL     1       5.782   4.447  18.549  0.00  0.00    +0.000 NA
ENDROOT
BRANCH   1   2
ATOM      2  S   UNL     1       7.050   4.948  17.557  0.00  0.00    +0.000 S 
ATOM      3  O   UNL     1       8.170   4.057  17.693  0.00  0.00    +0.000 OA
ATOM      4  O   UNL     1       7.248   6.366  17.787  0.00  0.00    +0.000 OA
BRANCH   2   8
ATOM      5  C   UNL     1       5.786   3.867  13.308  0.00  0.00    +0.000 A 
ATOM      6  C   UNL     1       7.088   4.316  13.562  0.00  0.00    +0.000 A 
ATOM      7  C   UNL     1       7.437   4.794  14.829  0.00  0.00    +0.000 A 
ATOM      8  C   UNL     1       6.493   4.797  15.857  0.00  0.00    +0.000 A 
ATOM      9  C   UNL     1       5.184   4.367  15.595  0.00  0.00    +0.000 A 
ATOM     10  C   UNL     1       4.819   3.930  14.317  0.00  0.00    +0.000 A 
BRANCH   5  12
ATOM     11  O   UNL     1       4.562   3.418  11.326  0.00  0.00    +0.000 OA
ATOM     12  C   UNL     1       5.525   3.169  12.025  0.00  0.00    +0.000 C 
BRANCH  12  13
ATOM     13  O   UNL     1       6.439   2.228  11.720  0.00  0.00    +0.000 OA
ATOM     14  H   UNL     1       7.238   2.558  11.267  0.00  0.00    +0.000 HD
ENDBRANCH  12  13
ENDBRANCH   5  12
ENDBRANCH   2   8
ENDBRANCH   1   2
BRANCH   1  15
ATOM     15  C   UNL     1       5.213   5.422  19.505  0.00  0.00    +0.000 C 
BRANCH  15  16
ATOM     16  C   UNL     1       4.043   6.249  19.018  0.00  0.00    +0.000 A 
ATOM     17  C   UNL     1       4.005   6.873  17.764  0.00  0.00    +0.000 A 
ATOM     18  C   UNL     1       2.950   7.723  17.420  0.00  0.00    +0.000 A 
ATOM     19  C   UNL     1       1.917   7.957  18.322  0.00  0.00    +0.000 A 
ATOM     20  C   UNL     1       1.916   7.312  19.555  0.00  0.00    +0.000 A 
ATOM     21  C   UNL     1       2.966   6.457  19.896  0.00  0.00    +0.000 A 
ENDBRANCH  15  16
ENDBRANCH   1  15
BRANCH   1  22
ATOM     22  C   UNL     1       5.117   3.135  18.545  0.00  0.00    +0.000 C 
BRANCH  22  23
ATOM     23  C   UNL     1       3.647   3.049  18.862  0.00  0.00    +0.000 A 
ATOM     24  C   UNL     1       2.655   3.326  17.912  0.00  0.00    +0.000 A 
ATOM     25  C   UNL     1       1.316   3.434  18.298  0.00  0.00    +0.000 A 
ATOM     26  C   UNL     1       0.947   3.191  19.619  0.00  0.00    +0.000 A 
ATOM     27  C   UNL     1       1.916   2.788  20.529  0.00  0.00    +0.000 A 
ATOM     28  F   UNL     1       1.569   2.546  21.802  0.00  0.00    +0.000 F 
ATOM     29  C   UNL     1       3.251   2.698  20.161  0.00  0.00    +0.000 A 
ENDBRANCH  22  23
ENDBRANCH   1  22
TORSDOF 8
ENDMDL
MODEL 3
REMARK VINA RESULT:      -8.1      1.967      5.434
REMARK  Name = 
REMARK  8 active torsions:
REMARK  status: ('A' for Active; 'I' for Inactive)
REMARK    1  A    between atoms: C_2  and  O_3
REMARK    2  A    between atoms: C_2  and  C_4
REMARK    3  A    between atoms: C_7  and  S_8
REMARK    4  A    between atoms: S_8  and  N_11
REMARK    5  A    between atoms: N_11  and  C_12
REMARK    6  A    between atoms: N_11  and  C_19
REMARK    7  A    between atoms: C_12  and  C_13
REMARK    8  A    between atoms: C_19  and  C_20
REMARK                            x       y       z     vdW  Elec       q    Type
REMARK                         _______ _______ _______ _____ _____    ______ ____
ROOT
ATOM      1  N   UNL     1       4.894   4.544  16.928  0.00  0.00    +0.000 NA
ENDROOT
BRANCH   1   2
ATOM      2  S   UNL     1       5.241   5.904  17.861  0.00  0.00    +0.000 S 
ATOM      3  O   UNL     1       6.032   6.837  17.105  0.00  0.00    +0.000 OA
ATOM      4  O   UNL     1       5.736   5.438  19.142  0.00  0.00    +0.000 OA
BRANCH   2   8
ATOM      5  C   UNL     1       1.687   8.504  19.056  0.00  0.00    +0.000 A 
ATOM      6  C   UNL     1       2.101   7.454  19.885  0.00  0.00    +0.000 A 
ATOM      7  C   UNL     1       3.086   6.559  19.455  0.00  0.00    +0.000 A 
ATOM      8  C   UNL     1       3.685   6.730  18.206  0.00  0.00    +0.000 A 
ATOM      9  C   UNL     1       3.254   7.769  17.369  0.00  0.00    +0.000 A 
ATOM     10  C   UNL     1       2.237   8.640  17.777  0.00  0.00    +0.000 A 
BRANCH   5  12
ATOM     11  O   UNL     1       0.020   9.319  20.534  0.00  0.00    +0.000 OA
ATOM     12  C   UNL     1       0.807   9.548  19.637  0.00  0.00    +0.000 C 
BRANCH  12  13
ATOM     13  O   UNL     1       0.950  10.761  19.068  0.00  0.00    +0.000 OA
ATOM     14  H   UNL     1       1.870  11.024  18.876  0.00  0.00    +0.000 HD
ENDBRANCH  12  13
ENDBRANCH   5  12
ENDBRANCH   2   8
ENDBRANCH   1   2
BRANCH   1  15
ATOM     15  C   UNL     1       3.477   4.157  16.751  0.00  0.00    +0.000 C 
BRANCH  15  16
ATOM     16  C   UNL     1       2.791   3.525  17.942  0.00  0.00    +0.000 A 
ATOM     17  C   UNL     1       1.421   3.653  18.205  0.00  0.00    +0.000 A 
ATOM     18  C   UNL     1       0.867   3.149  19.385  0.00  0.00    +0.000 A 
ATOM     19  C   UNL     1       1.676   2.506  20.317  0.00  0.00    +0.000 A 
ATOM     20  C   UNL     1       3.031   2.331  20.055  0.00  0.00    +0.000 A 
ATOM     21  C   UNL     1       3.582   2.828  18.872  0.00  0.00    +0.000 A 
ENDBRANCH  15  16
ENDBRANCH   1  15
BRANCH   1  22
ATOM     22  C   UNL     1       5.854   3.697  16.203  0.00  0.00    +0.000 C 
BRANCH  22  23
ATOM     23  C   UNL     1       6.170   4.003  14.762  0.00  0.00    +0.000 A 
ATOM     24  C   UNL     1       5.465   3.425  13.698  0.00  0.00    +0.000 A 
ATOM     25  C   UNL     1       5.919   3.574  12.384  0.00  0.00    +0.000 A 
ATOM     26  C   UNL     1       7.034   4.364  12.115  0.00  0.00    +0.000 A 
ATOM     27  C   UNL     1       7.651   5.042  13.159  0.00  0.00    +0.000 A 
ATOM     28  F   UNL     1       8.721   5.811  12.908  0.00  0.00    +0.000 F 
ATOM     29  C   UNL     1       7.220   4.884  14.469  0.00  0.00    +0.000 A 
ENDBRANCH  22  23
ENDBRANCH   1  22
TORSDOF 8
ENDMDL
MODEL 4
REMARK VINA RESULT:      -8.1      2.212      6.611
REMARK  Name = 
REMARK  8 active torsions:
REMARK  status: ('A' for Active; 'I' for Inactive)
REMARK    1  A    between atoms: C_2  and  O_3
REMARK    2  A    between atoms: C_2  and  C_4
REMARK    3  A    between atoms: C_7  and  S_8
REMARK    4  A    between atoms: S_8  and  N_11
REMARK    5  A    between atoms: N_11  and  C_12
REMARK    6  A    between atoms: N_11  and  C_19
REMARK    7  A    between atoms: C_12  and  C_13
REMARK    8  A    between atoms: C_19  and  C_20
REMARK                            x       y       z     vdW  Elec       q    Type
REMARK                         _______ _______ _______ _____ _____    ______ ____
ROOT
ATOM      1  N   UNL     1       4.638   5.911  18.291  0.00  0.00    +0.000 NA
ENDROOT
BRANCH   1   2
ATOM      2  S   UNL     1       6.028   6.366  17.452  0.00  0.00    +0.000 S 
ATOM      3  O   UNL     1       7.184   6.236  18.297  0.00  0.00    +0.000 OA
ATOM      4  O   UNL     1       5.757   7.644  16.823  0.00  0.00    +0.000 OA
BRANCH   2   8
ATOM      5  C   UNL     1       6.224   3.856  13.647  0.00  0.00    +0.000 A 
ATOM      6  C   UNL     1       5.211   3.631  14.587  0.00  0.00    +0.000 A 
ATOM      7  C   UNL     1       5.233   4.286  15.822  0.00  0.00    +0.000 A 
ATOM      8  C   UNL     1       6.253   5.195  16.111  0.00  0.00    +0.000 A 
ATOM      9  C   UNL     1       7.278   5.403  15.176  0.00  0.00    +0.000 A 
ATOM     10  C   UNL     1       7.283   4.716  13.958  0.00  0.00    +0.000 A 
BRANCH   5  12
ATOM     11  O   UNL     1       6.967   2.901  11.606  0.00  0.00    +0.000 OA
ATOM     12  C   UNL     1       6.042   3.313  12.279  0.00  0.00    +0.000 C 
BRANCH  12  13
ATOM     13  O   UNL     1       4.765   3.336  11.848  0.00  0.00    +0.000 OA
ATOM     14  H   UNL     1       4.373   2.461  11.667  0.00  0.00    +0.000 HD
ENDBRANCH  12  13
ENDBRANCH   5  12
ENDBRANCH   2   8
ENDBRANCH   1   2
BRANCH   1  15
ATOM     15  C   UNL     1       3.325   6.325  17.750  0.00  0.00    +0.000 C 
BRANCH  15  16
ATOM     16  C   UNL     1       2.611   7.441  18.480  0.00  0.00    +0.000 A 
ATOM     17  C   UNL     1       2.161   7.338  19.804  0.00  0.00    +0.000 A 
ATOM     18  C   UNL     1       1.401   8.357  20.383  0.00  0.00    +0.000 A 
ATOM     19  C   UNL     1       1.081   9.495  19.649  0.00  0.00    +0.000 A 
ATOM     20  C   UNL     1       1.555   9.635  18.348  0.00  0.00    +0.000 A 
ATOM     21  C   UNL     1       2.322   8.620  17.772  0.00  0.00    +0.000 A 
ENDBRANCH  15  16
ENDBRANCH   1  15
BRANCH   1  22
ATOM     22  C   UNL     1       4.566   5.083  19.505  0.00  0.00    +0.000 C 
BRANCH  22  23
ATOM     23  C   UNL     1       3.643   3.893  19.535  0.00  0.00    +0.000 A 
ATOM     24  C   UNL     1       3.651   2.909  18.538  0.00  0.00    +0.000 A 
ATOM     25  C   UNL     1       2.647   1.937  18.495  0.00  0.00    +0.000 A 
ATOM     26  C   UNL     1       1.673   1.893  19.490  0.00  0.00    +0.000 A 
ATOM     27  C   UNL     1       1.746   2.789  20.548  0.00  0.00    +0.000 A 
ATOM     28  F   UNL     1       0.816   2.749  21.514  0.00  0.00    +0.000 F 
ATOM     29  C   UNL     1       2.726   3.770  20.590  0.00  0.00    +0.000 A 
ENDBRANCH  22  23
ENDBRANCH   1  22
TORSDOF 8
ENDMDL
MODEL 5
REMARK VINA RESULT:      -7.9      1.945      5.469
REMARK  Name = 
REMARK  8 active torsions:
REMARK  status: ('A' for Active; 'I' for Inactive)
REMARK    1  A    between atoms: C_2  and  O_3
REMARK    2  A    between atoms: C_2  and  C_4
REMARK    3  A    between atoms: C_7  and  S_8
REMARK    4  A    between atoms: S_8  and  N_11
REMARK    5  A    between atoms: N_11  and  C_12
REMARK    6  A    between atoms: N_11  and  C_19
REMARK    7  A    between atoms: C_12  and  C_13
REMARK    8  A    between atoms: C_19  and  C_20
REMARK                            x       y       z     vdW  Elec       q    Type
REMARK                         _______ _______ _______ _____ _____    ______ ____
ROOT
ATOM      1  N   UNL     1       4.843   4.603  16.758  0.00  0.00    +0.000 NA
ENDROOT
BRANCH   1   2
ATOM      2  S   UNL     1       5.212   6.058  17.525  0.00  0.00    +0.000 S 
ATOM      3  O   UNL     1       5.805   6.976  16.591  0.00  0.00    +0.000 OA
ATOM      4  O   UNL     1       5.927   5.737  18.746  0.00  0.00    +0.000 OA
BRANCH   2   8
ATOM      5  C   UNL     1       1.679   8.454  19.136  0.00  0.00    +0.000 A 
ATOM      6  C   UNL     1       2.217   7.401  19.887  0.00  0.00    +0.000 A 
ATOM      7  C   UNL     1       3.193   6.566  19.337  0.00  0.00    +0.000 A 
ATOM      8  C   UNL     1       3.662   6.800  18.043  0.00  0.00    +0.000 A 
ATOM      9  C   UNL     1       3.107   7.842  17.285  0.00  0.00    +0.000 A 
ATOM     10  C   UNL     1       2.097   8.652  17.816  0.00  0.00    +0.000 A 
BRANCH   5  12
ATOM     11  O   UNL     1       0.698  10.590  19.458  0.00  0.00    +0.000 OA
ATOM     12  C   UNL     1       0.815   9.439  19.831  0.00  0.00    +0.000 C 
BRANCH  12  13
ATOM     13  O   UNL     1       0.190   8.946  20.918  0.00  0.00    +0.000 OA
ATOM     14  H   UNL     1      -0.784   8.935  20.867  0.00  0.00    +0.000 HD
ENDBRANCH  12  13
ENDBRANCH   5  12
ENDBRANCH   2   8
ENDBRANCH   1   2
BRANCH   1  15
ATOM     15  C   UNL     1       3.430   4.167  16.723  0.00  0.00    +0.000 C 
BRANCH  15  16
ATOM     16  C   UNL     1       2.858   3.609  18.008  0.00  0.00    +0.000 A 
ATOM     17  C   UNL     1       3.633   2.982  18.993  0.00  0.00    +0.000 A 
ATOM     18  C   UNL     1       3.032   2.379  20.101  0.00  0.00    +0.000 A 
ATOM     19  C   UNL     1       1.648   2.399  20.242  0.00  0.00    +0.000 A 
ATOM     20  C   UNL     1       0.865   3.054  19.297  0.00  0.00    +0.000 A 
ATOM     21  C   UNL     1       1.466   3.664  18.194  0.00  0.00    +0.000 A 
ENDBRANCH  15  16
ENDBRANCH   1  15
BRANCH   1  22
ATOM     22  C   UNL     1       5.776   3.710  16.052  0.00  0.00    +0.000 C 
BRANCH  22  23
ATOM     23  C   UNL     1       6.166   4.021  14.631  0.00  0.00    +0.000 A 
ATOM     24  C   UNL     1       5.520   3.443  13.530  0.00  0.00    +0.000 A 
ATOM     25  C   UNL     1       6.042   3.598  12.242  0.00  0.00    +0.000 A 
ATOM     26  C   UNL     1       7.166   4.394  12.034  0.00  0.00    +0.000 A 
ATOM     27  C   UNL     1       7.724   5.071  13.110  0.00  0.00    +0.000 A 
ATOM     28  F   UNL     1       8.803   5.845  12.917  0.00  0.00    +0.000 F 
ATOM     29  C   UNL     1       7.227   4.908  14.395  0.00  0.00    +0.000 A 
ENDBRANCH  22  23
ENDBRANCH   1  22
TORSDOF 8
ENDMDL
MODEL 6
REMARK VINA RESULT:      -7.9      2.793      7.019
REMARK  Name = 
REMARK  8 active torsions:
REMARK  status: ('A' for Active; 'I' for Inactive)
REMARK    1  A    between atoms: C_2  and  O_3
REMARK    2  A    between atoms: C_2  and  C_4
REMARK    3  A    between atoms: C_7  and  S_8
REMARK    4  A    between atoms: S_8  and  N_11
REMARK    5  A    between atoms: N_11  and  C_12
REMARK    6  A    between atoms: N_11  and  C_19
REMARK    7  A    between atoms: C_12  and  C_13
REMARK    8  A    between atoms: C_19  and  C_20
REMARK                            x       y       z     vdW  Elec       q    Type
REMARK                         _______ _______ _______ _____ _____    ______ ____
ROOT
ATOM      1  N   UNL     1       4.272   5.930  18.411  0.00  0.00    +0.000 NA
ENDROOT
BRANCH   1   2
ATOM      2  S   UNL     1       5.856   6.205  17.904  0.00  0.00    +0.000 S 
ATOM      3  O   UNL     1       6.783   5.802  18.927  0.00  0.00    +0.000 OA
ATOM      4  O   UNL     1       5.920   7.560  17.393  0.00  0.00    +0.000 OA
BRANCH   2   8
ATOM      5  C   UNL     1       6.413   4.032  13.931  0.00  0.00    +0.000 A 
ATOM      6  C   UNL     1       5.219   3.890  14.650  0.00  0.00    +0.000 A 
ATOM      7  C   UNL     1       5.099   4.425  15.936  0.00  0.00    +0.000 A 
ATOM      8  C   UNL     1       6.164   5.132  16.498  0.00  0.00    +0.000 A 
ATOM      9  C   UNL     1       7.365   5.255  15.785  0.00  0.00    +0.000 A 
ATOM     10  C   UNL     1       7.504   4.682  14.516  0.00  0.00    +0.000 A 
BRANCH   5  12
ATOM     11  O   UNL     1       7.064   4.240  11.659  0.00  0.00    +0.000 OA
ATOM     12  C   UNL     1       6.417   3.644  12.499  0.00  0.00    +0.000 C 
BRANCH  12  13
ATOM     13  O   UNL     1       5.630   2.588  12.217  0.00  0.00    +0.000 OA
ATOM     14  H   UNL     1       5.995   1.719  12.468  0.00  0.00    +0.000 HD
ENDBRANCH  12  13
ENDBRANCH   5  12
ENDBRANCH   2   8
ENDBRANCH   1   2
BRANCH   1  15
ATOM     15  C   UNL     1       4.048   5.002  19.541  0.00  0.00    +0.000 C 
BRANCH  15  16
ATOM     16  C   UNL     1       2.954   3.971  19.368  0.00  0.00    +0.000 A 
ATOM     17  C   UNL     1       2.908   3.061  18.303  0.00  0.00    +0.000 A 
ATOM     18  C   UNL     1       1.809   2.216  18.131  0.00  0.00    +0.000 A 
ATOM     19  C   UNL     1       0.742   2.265  19.022  0.00  0.00    +0.000 A 
ATOM     20  C   UNL     1       0.789   3.132  20.110  0.00  0.00    +0.000 A 
ATOM     21  C   UNL     1       1.891   3.971  20.287  0.00  0.00    +0.000 A 
ENDBRANCH  15  16
ENDBRANCH   1  15
BRANCH   1  22
ATOM     22  C   UNL     1       3.051   6.558  17.885  0.00  0.00    +0.000 C 
BRANCH  22  23
ATOM     23  C   UNL     1       2.370   7.638  18.685  0.00  0.00    +0.000 A 
ATOM     24  C   UNL     1       2.048   7.482  20.039  0.00  0.00    +0.000 A 
ATOM     25  C   UNL     1       1.239   8.420  20.687  0.00  0.00    +0.000 A 
ATOM     26  C   UNL     1       0.810   9.560  20.010  0.00  0.00    +0.000 A 
ATOM     27  C   UNL     1       1.241   9.776  18.708  0.00  0.00    +0.000 A 
ATOM     28  F   UNL     1       0.839  10.874  18.051  0.00  0.00    +0.000 F 
ATOM     29  C   UNL     1       2.027   8.841  18.049  0.00  0.00    +0.000 A 
ENDBRANCH  22  23
ENDBRANCH   1  22
TORSDOF 8
ENDMDL
MODEL 7
REMARK VINA RESULT:      -7.8      2.631      7.170
REMARK  Name = 
REMARK  8 active torsions:
REMARK  status: ('A' for Active; 'I' for Inactive)
REMARK    1  A    between atoms: C_2  and  O_3
REMARK    2  A    between atoms: C_2  and  C_4
REMARK    3  A    between atoms: C_7  and  S_8
REMARK    4  A    between atoms: S_8  and  N_11
REMARK    5  A    between atoms: N_11  and  C_12
REMARK    6  A    between atoms: N_11  and  C_19
REMARK    7  A    between atoms: C_12  and  C_13
REMARK    8  A    between atoms: C_19  and  C_20
REMARK                            x       y       z     vdW  Elec       q    Type
REMARK                         _______ _______ _______ _____ _____    ______ ____
ROOT
ATOM      1  N   UNL     1       3.587   5.763  17.974  0.00  0.00    +0.000 NA
ENDROOT
BRANCH   1   2
ATOM      2  S   UNL     1       4.958   4.854  18.342  0.00  0.00    +0.000 S 
ATOM      3  O   UNL     1       4.579   3.580  18.889  0.00  0.00    +0.000 OA
ATOM      4  O   UNL     1       5.853   5.706  19.102  0.00  0.00    +0.000 OA
BRANCH   2   8
ATOM      5  C   UNL     1       6.934   4.644  14.235  0.00  0.00    +0.000 A 
ATOM      6  C   UNL     1       5.612   4.211  14.403  0.00  0.00    +0.000 A 
ATOM      7  C   UNL     1       5.053   4.127  15.682  0.00  0.00    +0.000 A 
ATOM      8  C   UNL     1       5.802   4.506  16.797  0.00  0.00    +0.000 A 
ATOM      9  C   UNL     1       7.132   4.919  16.628  0.00  0.00    +0.000 A 
ATOM     10  C   UNL     1       7.710   4.962  15.354  0.00  0.00    +0.000 A 
BRANCH   5  12
ATOM     11  O   UNL     1       7.099   4.236  11.904  0.00  0.00    +0.000 OA
ATOM     12  C   UNL     1       7.407   4.925  12.857  0.00  0.00    +0.000 C 
BRANCH  12  13
ATOM     13  O   UNL     1       8.218   5.996  12.766  0.00  0.00    +0.000 OA
ATOM     14  H   UNL     1       8.643   6.122  11.897  0.00  0.00    +0.000 HD
ENDBRANCH  12  13
ENDBRANCH   5  12
ENDBRANCH   2   8
ENDBRANCH   1   2
BRANCH   1  15
ATOM     15  C   UNL     1       2.284   5.066  17.895  0.00  0.00    +0.000 C 
BRANCH  15  16
ATOM     16  C   UNL     1       1.865   4.268  19.111  0.00  0.00    +0.000 A 
ATOM     17  C   UNL     1       2.048   4.709  20.428  0.00  0.00    +0.000 A 
ATOM     18  C   UNL     1       1.752   3.876  21.510  0.00  0.00    +0.000 A 
ATOM     19  C   UNL     1       1.265   2.592  21.290  0.00  0.00    +0.000 A 
ATOM     20  C   UNL     1       1.036   2.151  19.990  0.00  0.00    +0.000 A 
ATOM     21  C   UNL     1       1.324   2.987  18.910  0.00  0.00    +0.000 A 
ENDBRANCH  15  16
ENDBRANCH   1  15
BRANCH   1  22
ATOM     22  C   UNL     1       3.516   7.218  17.766  0.00  0.00    +0.000 C 
BRANCH  22  23
ATOM     23  C   UNL     1       2.412   8.006  18.421  0.00  0.00    +0.000 A 
ATOM     24  C   UNL     1       1.655   8.960  17.727  0.00  0.00    +0.000 A 
ATOM     25  C   UNL     1       0.785   9.810  18.416  0.00  0.00    +0.000 A 
ATOM     26  C   UNL     1       0.607   9.664  19.790  0.00  0.00    +0.000 A 
ATOM     27  C   UNL     1       1.260   8.632  20.451  0.00  0.00    +0.000 A 
ATOM     28  F   UNL     1       1.088   8.480  21.773  0.00  0.00    +0.000 F 
ATOM     29  C   UNL     1       2.141   7.796  19.780  0.00  0.00    +0.000 A 
ENDBRANCH  22  23
ENDBRANCH   1  22
TORSDOF 8
ENDMDL
MODEL 8
REMARK VINA RESULT:      -7.8      2.224      6.563
REMARK  Name = 
REMARK  8 active torsions:
REMARK  status: ('A' for Active; 'I' for Inactive)
REMARK    1  A    between atoms: C_2  and  O_3
REMARK    2  A    between atoms: C_2  and  C_4
REMARK    3  A    between atoms: C_7  and  S_8
REMARK    4  A    between atoms: S_8  and  N_11
REMARK    5  A    between atoms: N_11  and  C_12
REMARK    6  A    between atoms: N_11  and  C_19
REMARK    7  A    between atoms: C_12  and  C_13
REMARK    8  A    between atoms: C_19  and  C_20
REMARK                            x       y       z     vdW  Elec       q    Type
REMARK                         _______ _______ _______ _____ _____    ______ ____
ROOT
ATOM      1  N   UNL     1       4.435   6.145  18.441  0.00  0.00    +0.000 NA
ENDROOT
BRANCH   1   2
ATOM      2  S   UNL     1       6.018   6.282  17.878  0.00  0.00    +0.000 S 
ATOM      3  O   UNL     1       6.943   5.805  18.870  0.00  0.00    +0.000 OA
ATOM      4  O   UNL     1       6.179   7.626  17.356  0.00  0.00    +0.000 OA
BRANCH   2   8
ATOM      5  C   UNL     1       6.139   4.021  13.916  0.00  0.00    +0.000 A 
ATOM      6  C   UNL     1       5.058   3.852  14.790  0.00  0.00    +0.000 A 
ATOM      7  C   UNL     1       5.086   4.418  16.068  0.00  0.00    +0.000 A 
ATOM      8  C   UNL     1       6.183   5.183  16.468  0.00  0.00    +0.000 A 
ATOM      9  C   UNL     1       7.274   5.334  15.599  0.00  0.00    +0.000 A 
ATOM     10  C   UNL     1       7.269   4.732  14.336  0.00  0.00    +0.000 A 
BRANCH   5  12
ATOM     11  O   UNL     1       4.899   3.249  12.047  0.00  0.00    +0.000 OA
ATOM     12  C   UNL     1       5.971   3.593  12.506  0.00  0.00    +0.000 C 
BRANCH  12  13
ATOM     13  O   UNL     1       7.114   3.605  11.791  0.00  0.00    +0.000 OA
ATOM     14  H   UNL     1       7.403   2.736  11.457  0.00  0.00    +0.000 HD
ENDBRANCH  12  13
ENDBRANCH   5  12
ENDBRANCH   2   8
ENDBRANCH   1   2
BRANCH   1  15
ATOM     15  C   UNL     1       3.358   6.810  17.676  0.00  0.00    +0.000 C 
BRANCH  15  16
ATOM     16  C   UNL     1       2.534   7.839  18.417  0.00  0.00    +0.000 A 
ATOM     17  C   UNL     1       2.123   7.690  19.749  0.00  0.00    +0.000 A 
ATOM     18  C   UNL     1       1.262   8.617  20.341  0.00  0.00    +0.000 A 
ATOM     19  C   UNL     1       0.800   9.708  19.612  0.00  0.00    +0.000 A 
ATOM     20  C   UNL     1       1.230   9.896  18.302  0.00  0.00    +0.000 A 
ATOM     21  C   UNL     1       2.098   8.975  17.713  0.00  0.00    +0.000 A 
ENDBRANCH  15  16
ENDBRANCH   1  15
BRANCH   1  22
ATOM     22  C   UNL     1       3.972   5.377  19.608  0.00  0.00    +0.000 C 
BRANCH  22  23
ATOM     23  C   UNL     1       3.109   4.160  19.398  0.00  0.00    +0.000 A 
ATOM     24  C   UNL     1       1.747   4.139  19.723  0.00  0.00    +0.000 A 
ATOM     25  C   UNL     1       1.034   2.936  19.706  0.00  0.00    +0.000 A 
ATOM     26  C   UNL     1       1.655   1.761  19.291  0.00  0.00    +0.000 A 
ATOM     27  C   UNL     1       2.969   1.812  18.844  0.00  0.00    +0.000 A 
ATOM     28  F   UNL     1       3.573   0.686  18.435  0.00  0.00    +0.000 F 
ATOM     29  C   UNL     1       3.691   2.996  18.876  0.00  0.00    +0.000 A 
ENDBRANCH  22  23
ENDBRANCH   1  22
TORSDOF 8
ENDMDL
MODEL 9
REMARK VINA RESULT:      -7.7      3.037      5.209
REMARK  Name = 
REMARK  8 active torsions:
REMARK  status: ('A' for Active; 'I' for Inactive)
REMARK    1  A    between atoms: C_2  and  O_3
REMARK    2  A    between atoms: C_2  and  C_4
REMARK    3  A    between atoms: C_7  and  S_8
REMARK    4  A    between atoms: S_8  and  N_11
REMARK    5  A    between atoms: N_11  and  C_12
REMARK    6  A    between atoms: N_11  and  C_19
REMARK    7  A    between atoms: C_12  and  C_13
REMARK    8  A    between atoms: C_19  and  C_20
REMARK                            x       y       z     vdW  Elec       q    Type
REMARK                         _______ _______ _______ _____ _____    ______ ____
ROOT
ATOM      1  N   UNL     1       5.267   4.327  16.847  0.00  0.00    +0.000 NA
ENDROOT
BRANCH   1   2
ATOM      2  S   UNL     1       4.295   3.693  18.069  0.00  0.00    +0.000 S 
ATOM      3  O   UNL     1       5.091   3.371  19.223  0.00  0.00    +0.000 OA
ATOM      4  O   UNL     1       3.469   2.659  17.475  0.00  0.00    +0.000 OA
BRANCH   2   8
ATOM      5  C   UNL     1       1.951   7.193  19.822  0.00  0.00    +0.000 A 
ATOM      6  C   UNL     1       1.809   5.909  20.365  0.00  0.00    +0.000 A 
ATOM      7  C   UNL     1       2.402   4.808  19.739  0.00  0.00    +0.000 A 
ATOM      8  C   UNL     1       3.166   4.989  18.585  0.00  0.00    +0.000 A 
ATOM      9  C   UNL     1       3.288   6.272  18.032  0.00  0.00    +0.000 A 
ATOM     10  C   UNL     1       2.660   7.370  18.629  0.00  0.00    +0.000 A 
BRANCH   5  12
ATOM     11  O   UNL     1       0.812   9.244  20.175  0.00  0.00    +0.000 OA
ATOM     12  C   UNL     1       1.495   8.348  20.633  0.00  0.00    +0.000 C 
BRANCH  12  13
ATOM     13  O   UNL     1       1.921   8.321  21.911  0.00  0.00    +0.000 OA
ATOM     14  H   UNL     1       2.837   8.627  22.049  0.00  0.00    +0.000 HD
ENDBRANCH  12  13
ENDBRANCH   5  12
ENDBRANCH   2   8
ENDBRANCH   1   2
BRANCH   1  15
ATOM     15  C   UNL     1       6.720   4.449  17.099  0.00  0.00    +0.000 C 
BRANCH  15  16
ATOM     16  C   UNL     1       7.207   5.774  17.645  0.00  0.00    +0.000 A 
ATOM     17  C   UNL     1       7.046   6.994  16.975  0.00  0.00    +0.000 A 
ATOM     18  C   UNL     1       7.624   8.165  17.471  0.00  0.00    +0.000 A 
ATOM     19  C   UNL     1       8.368   8.134  18.647  0.00  0.00    +0.000 A 
ATOM     20  C   UNL     1       8.503   6.940  19.349  0.00  0.00    +0.000 A 
ATOM     21  C   UNL     1       7.918   5.771  18.857  0.00  0.00    +0.000 A 
ENDBRANCH  15  16
ENDBRANCH   1  15
BRANCH   1  22
ATOM     22  C   UNL     1       4.843   4.741  15.501  0.00  0.00    +0.000 C 
BRANCH  22  23
ATOM     23  C   UNL     1       5.686   4.365  14.311  0.00  0.00    +0.000 A 
ATOM     24  C   UNL     1       6.911   4.986  14.030  0.00  0.00    +0.000 A 
ATOM     25  C   UNL     1       7.559   4.754  12.813  0.00  0.00    +0.000 A 
ATOM     26  C   UNL     1       7.030   3.843  11.901  0.00  0.00    +0.000 A 
ATOM     27  C   UNL     1       5.887   3.132  12.241  0.00  0.00    +0.000 A 
ATOM     28  F   UNL     1       5.375   2.247  11.373  0.00  0.00    +0.000 F 
ATOM     29  C   UNL     1       5.225   3.369  13.437  0.00  0.00    +0.000 A 
ENDBRANCH  22  23
ENDBRANCH   1  22
TORSDOF 8
ENDMDL
