MODEL 1
REMARK VINA RESULT:      -6.2      0.000      0.000
REMARK  Name = 
REMARK  11 active torsions:
REMARK  status: ('A' for Active; 'I' for Inactive)
REMARK    1  A    between atoms: C_1  and  C_2
REMARK    2  A    between atoms: C_2  and  O_3
REMARK    3  A    between atoms: O_3  and  P_4
REMARK    4  A    between atoms: P_4  and  O_6
REMARK    5  A    between atoms: P_4  and  C_9
REMARK    6  A    between atoms: O_6  and  C_7
REMARK    7  A    between atoms: C_7  and  C_8
REMARK    8  A    between atoms: C_9  and  C_19
REMARK    9  A    between atoms: C_10  and  N_11
REMARK   10  A    between atoms: C_19  and  O_21
REMARK   11  A    between atoms: O_21  and  C_22
REMARK                            x       y       z     vdW  Elec       q    Type
REMARK                         _______ _______ _______ _____ _____    ______ ____
ROOT
ATOM      1  C   UNL     1       5.346   4.266  16.677  0.00  0.00    +0.000 C 
ATOM      2  C   UNL     1       4.632   3.184  17.061  0.00  0.00    +0.000 C 
ENDROOT
BRANCH   2   3
ATOM      3  N   UNL     1       3.517   3.183  17.902  0.00  0.00    +0.000 N 
ATOM      4  C   UNL     1       2.385   3.802  17.390  0.00  0.00    +0.000 A 
ATOM      5  C   UNL     1       1.324   4.094  18.146  0.00  0.00    +0.000 A 
ATOM      6  C   UNL     1       1.350   3.781  19.583  0.00  0.00    +0.000 A 
ATOM      7  O   UNL     1       0.431   4.103  20.323  0.00  0.00    +0.000 OA
ATOM      8  N   UNL     1       2.474   3.137  20.015  0.00  0.00    +0.000 N 
ATOM      9  C   UNL     1       3.596   2.851  19.266  0.00  0.00    +0.000 A 
ATOM     10  S   UNL     1       4.874   2.087  20.030  0.00  0.00    +0.000 S 
ATOM     11  H   UNL     1       2.504   2.915  21.002  0.00  0.00    +0.000 HD
ENDBRANCH   2   3
BRANCH   1  12
ATOM     12  P   UNL     1       4.752   5.935  17.133  0.00  0.00    +0.000 P 
ATOM     13  O   UNL     1       4.923   6.446  15.691  0.00  0.00    +0.000 OA
BRANCH  12  14
ATOM     14  O   UNL     1       4.190   7.513  17.565  0.00  0.00    +0.000 OA
BRANCH  14  16
ATOM     15  C   UNL     1       2.138   8.756  17.773  0.00  0.00    +0.000 C 
ATOM     16  C   UNL     1       2.869   7.474  18.104  0.00  0.00    +0.000 C 
ENDBRANCH  14  16
ENDBRANCH  12  14
BRANCH  12  17
ATOM     17  O   UNL     1       6.118   6.249  18.018  0.00  0.00    +0.000 OA
BRANCH  17  18
ATOM     18  C   UNL     1       6.323   5.529  19.226  0.00  0.00    +0.000 C 
ATOM     19  C   UNL     1       7.789   5.582  19.604  0.00  0.00    +0.000 C 
ENDBRANCH  17  18
ENDBRANCH  12  17
ENDBRANCH   1  12
BRANCH   1  20
ATOM     20  C   UNL     1       6.561   4.166  15.846  0.00  0.00    +0.000 C 
ATOM     21  O   UNL     1       7.696   4.447  16.187  0.00  0.00    +0.000 OA
BRANCH  20  22
ATOM     22  O   UNL     1       6.236   3.626  14.635  0.00  0.00    +0.000 OA
ATOM     23  C   UNL     1       6.764   4.352  13.522  0.00  0.00    +0.000 C 
ENDBRANCH  20  22
ENDBRANCH   1  20
TORSDOF 8
ENDMDL
MODEL 2
REMARK VINA RESULT:      -5.9      2.474      5.340
REMARK  Name = 
REMARK  11 active torsions:
REMARK  status: ('A' for Active; 'I' for Inactive)
REMARK    1  A    between atoms: C_1  and  C_2
REMARK    2  A    between atoms: C_2  and  O_3
REMARK    3  A    between atoms: O_3  and  P_4
REMARK    4  A    between atoms: P_4  and  O_6
REMARK    5  A    between atoms: P_4  and  C_9
REMARK    6  A    between atoms: O_6  and  C_7
REMARK    7  A    between atoms: C_7  and  C_8
REMARK    8  A    between atoms: C_9  and  C_19
REMARK    9  A    between atoms: C_10  and  N_11
REMARK   10  A    between atoms: C_19  and  O_21
REMARK   11  A    between atoms: O_21  and  C_22
REMARK                            x       y       z     vdW  Elec       q    Type
REMARK                         _______ _______ _______ _____ _____    ______ ____
ROOT
ATOM      1  C   UNL     1       4.216   4.007  18.935  0.00  0.00    +0.000 C 
ATOM      2  C   UNL     1       5.405   3.783  18.334  0.00  0.00    +0.000 C 
ENDROOT
BRANCH   2   3
ATOM      3  N   UNL     1       5.890   4.423  17.190  0.00  0.00    +0.000 N 
ATOM      4  C   UNL     1       5.469   3.883  15.983  0.00  0.00    +0.000 A 
ATOM      5  C   UNL     1       6.022   4.221  14.815  0.00  0.00    +0.000 A 
ATOM      6  C   UNL     1       7.139   5.178  14.792  0.00  0.00    +0.000 A 
ATOM      7  O   UNL     1       7.721   5.454  13.753  0.00  0.00    +0.000 OA
ATOM      8  N   UNL     1       7.476   5.702  16.007  0.00  0.00    +0.000 N 
ATOM      9  C   UNL     1       6.946   5.350  17.230  0.00  0.00    +0.000 A 
ATOM     10  S   UNL     1       7.554   6.105  18.594  0.00  0.00    +0.000 S 
ATOM     11  H   UNL     1       8.243   6.363  16.005  0.00  0.00    +0.000 HD
ENDBRANCH   2   3
BRANCH   1  12
ATOM     12  P   UNL     1       3.161   5.381  18.343  0.00  0.00    +0.000 P 
ATOM     13  O   UNL     1       3.592   6.284  19.513  0.00  0.00    +0.000 OA
BRANCH  12  14
ATOM     14  O   UNL     1       2.165   6.679  17.783  0.00  0.00    +0.000 OA
BRANCH  14  16
ATOM     15  C   UNL     1       1.809   9.059  17.829  0.00  0.00    +0.000 C 
ATOM     16  C   UNL     1       2.335   7.853  18.575  0.00  0.00    +0.000 C 
ENDBRANCH  14  16
ENDBRANCH  12  14
BRANCH  12  17
ATOM     17  O   UNL     1       1.771   4.565  18.731  0.00  0.00    +0.000 OA
BRANCH  17  18
ATOM     18  C   UNL     1       1.354   3.499  17.889  0.00  0.00    +0.000 C 
ATOM     19  C   UNL     1       0.637   2.451  18.717  0.00  0.00    +0.000 C 
ENDBRANCH  17  18
ENDBRANCH  12  17
ENDBRANCH   1  12
BRANCH   1  20
ATOM     20  C   UNL     1       3.750   3.227  20.098  0.00  0.00    +0.000 C 
ATOM     21  O   UNL     1       3.118   3.653  21.048  0.00  0.00    +0.000 OA
BRANCH  20  22
ATOM     22  O   UNL     1       4.066   1.912  19.915  0.00  0.00    +0.000 OA
ATOM     23  C   UNL     1       4.979   1.401  20.890  0.00  0.00    +0.000 C 
ENDBRANCH  20  22
ENDBRANCH   1  20
TORSDOF 8
ENDMDL
MODEL 3
REMARK VINA RESULT:      -5.8      2.464      5.275
REMARK  Name = 
REMARK  11 active torsions:
REMARK  status: ('A' for Active; 'I' for Inactive)
REMARK    1  A    between atoms: C_1  and  C_2
REMARK    2  A    between atoms: C_2  and  O_3
REMARK    3  A    between atoms: O_3  and  P_4
REMARK    4  A    between atoms: P_4  and  O_6
REMARK    5  A    between atoms: P_4  and  C_9
REMARK    6  A    between atoms: O_6  and  C_7
REMARK    7  A    between atoms: C_7  and  C_8
REMARK    8  A    between atoms: C_9  and  C_19
REMARK    9  A    between atoms: C_10  and  N_11
REMARK   10  A    between atoms: C_19  and  O_21
REMARK   11  A    between atoms: O_21  and  C_22
REMARK                            x       y       z     vdW  Elec       q    Type
REMARK                         _______ _______ _______ _____ _____    ______ ____
ROOT
ATOM      1  C   UNL     1       4.199   3.365  18.105  0.00  0.00    +0.000 C 
ATOM      2  C   UNL     1       5.350   3.191  17.419  0.00  0.00    +0.000 C 
ENDROOT
BRANCH   2   3
ATOM      3  N   UNL     1       5.869   4.044  16.441  0.00  0.00    +0.000 N 
ATOM      4  C   UNL     1       5.498   3.748  15.137  0.00  0.00    +0.000 A 
ATOM      5  C   UNL     1       6.089   4.310  14.079  0.00  0.00    +0.000 A 
ATOM      6  C   UNL     1       7.196   5.257  14.285  0.00  0.00    +0.000 A 
ATOM      7  O   UNL     1       7.813   5.732  13.342  0.00  0.00    +0.000 OA
ATOM      8  N   UNL     1       7.484   5.534  15.591  0.00  0.00    +0.000 N 
ATOM      9  C   UNL     1       6.913   4.949  16.701  0.00  0.00    +0.000 A 
ATOM     10  S   UNL     1       7.463   5.425  18.208  0.00  0.00    +0.000 S 
ATOM     11  H   UNL     1       8.243   6.186  15.747  0.00  0.00    +0.000 HD
ENDBRANCH   2   3
BRANCH   1  12
ATOM     12  P   UNL     1       3.266   4.926  17.902  0.00  0.00    +0.000 P 
ATOM     13  O   UNL     1       4.038   5.597  19.053  0.00  0.00    +0.000 OA
BRANCH  12  14
ATOM     14  O   UNL     1       2.384   6.402  17.710  0.00  0.00    +0.000 OA
BRANCH  14  16
ATOM     15  C   UNL     1       2.397   8.806  17.823  0.00  0.00    +0.000 C 
ATOM     16  C   UNL     1       3.229   7.543  17.847  0.00  0.00    +0.000 C 
ENDBRANCH  14  16
ENDBRANCH  12  14
BRANCH  12  17
ATOM     17  O   UNL     1       1.869   4.240  18.474  0.00  0.00    +0.000 OA
BRANCH  17  18
ATOM     18  C   UNL     1       1.228   4.839  19.592  0.00  0.00    +0.000 C 
ATOM     19  C   UNL     1       1.089   3.818  20.703  0.00  0.00    +0.000 C 
ENDBRANCH  17  18
ENDBRANCH  12  17
ENDBRANCH   1  12
BRANCH   1  20
ATOM     20  C   UNL     1       3.686   2.371  19.068  0.00  0.00    +0.000 C 
ATOM     21  O   UNL     1       2.937   1.444  18.820  0.00  0.00    +0.000 OA
BRANCH  20  22
ATOM     22  O   UNL     1       4.247   2.598  20.291  0.00  0.00    +0.000 OA
ATOM     23  C   UNL     1       5.015   1.496  20.783  0.00  0.00    +0.000 C 
ENDBRANCH  20  22
ENDBRANCH   1  20
TORSDOF 8
ENDMDL
MODEL 4
REMARK VINA RESULT:      -5.7      2.772      5.277
REMARK  Name = 
REMARK  11 active torsions:
REMARK  status: ('A' for Active; 'I' for Inactive)
REMARK    1  A    between atoms: C_1  and  C_2
REMARK    2  A    between atoms: C_2  and  O_3
REMARK    3  A    between atoms: O_3  and  P_4
REMARK    4  A    between atoms: P_4  and  O_6
REMARK    5  A    between atoms: P_4  and  C_9
REMARK    6  A    between atoms: O_6  and  C_7
REMARK    7  A    between atoms: C_7  and  C_8
REMARK    8  A    between atoms: C_9  and  C_19
REMARK    9  A    between atoms: C_10  and  N_11
REMARK   10  A    between atoms: C_19  and  O_21
REMARK   11  A    between atoms: O_21  and  C_22
REMARK                            x       y       z     vdW  Elec       q    Type
REMARK                         _______ _______ _______ _____ _____    ______ ____
ROOT
ATOM      1  C   UNL     1       3.133   4.346  18.056  0.00  0.00    +0.000 C 
ATOM      2  C   UNL     1       4.355   4.010  17.586  0.00  0.00    +0.000 C 
ENDROOT
BRANCH   2   3
ATOM      3  N   UNL     1       5.532   4.748  17.733  0.00  0.00    +0.000 N 
ATOM      4  C   UNL     1       6.065   4.767  19.015  0.00  0.00    +0.000 A 
ATOM      5  C   UNL     1       7.039   5.609  19.373  0.00  0.00    +0.000 A 
ATOM      6  C   UNL     1       7.558   6.576  18.393  0.00  0.00    +0.000 A 
ATOM      7  O   UNL     1       8.394   7.413  18.704  0.00  0.00    +0.000 OA
ATOM      8  N   UNL     1       7.020   6.476  17.142  0.00  0.00    +0.000 N 
ATOM      9  C   UNL     1       5.995   5.642  16.752  0.00  0.00    +0.000 A 
ATOM     10  S   UNL     1       5.474   5.729  15.164  0.00  0.00    +0.000 S 
ATOM     11  H   UNL     1       7.370   7.135  16.457  0.00  0.00    +0.000 HD
ENDBRANCH   2   3
BRANCH   1  12
ATOM     12  P   UNL     1       2.966   5.813  19.137  0.00  0.00    +0.000 P 
ATOM     13  O   UNL     1       1.795   5.176  19.908  0.00  0.00    +0.000 OA
BRANCH  12  14
ATOM     14  O   UNL     1       2.808   7.200  20.159  0.00  0.00    +0.000 OA
BRANCH  14  16
ATOM     15  C   UNL     1       1.229   8.570  21.353  0.00  0.00    +0.000 C 
ATOM     16  C   UNL     1       1.590   7.172  20.901  0.00  0.00    +0.000 C 
ENDBRANCH  14  16
ENDBRANCH  12  14
BRANCH  12  17
ATOM     17  O   UNL     1       2.392   6.744  17.892  0.00  0.00    +0.000 OA
BRANCH  17  18
ATOM     18  C   UNL     1       2.950   8.038  17.700  0.00  0.00    +0.000 C 
ATOM     19  C   UNL     1       1.839   9.069  17.682  0.00  0.00    +0.000 C 
ENDBRANCH  17  18
ENDBRANCH  12  17
ENDBRANCH   1  12
BRANCH   1  20
ATOM     20  C   UNL     1       1.925   3.542  17.787  0.00  0.00    +0.000 C 
ATOM     21  O   UNL     1       0.879   3.946  17.315  0.00  0.00    +0.000 OA
BRANCH  20  22
ATOM     22  O   UNL     1       2.182   2.233  18.076  0.00  0.00    +0.000 OA
ATOM     23  C   UNL     1       1.858   1.869  19.421  0.00  0.00    +0.000 C 
ENDBRANCH  20  22
ENDBRANCH   1  20
TORSDOF 8
ENDMDL
MODEL 5
REMARK VINA RESULT:      -5.7      1.605      3.630
REMARK  Name = 
REMARK  11 active torsions:
REMARK  status: ('A' for Active; 'I' for Inactive)
REMARK    1  A    between atoms: C_1  and  C_2
REMARK    2  A    between atoms: C_2  and  O_3
REMARK    3  A    between atoms: O_3  and  P_4
REMARK    4  A    between atoms: P_4  and  O_6
REMARK    5  A    between atoms: P_4  and  C_9
REMARK    6  A    between atoms: O_6  and  C_7
REMARK    7  A    between atoms: C_7  and  C_8
REMARK    8  A    between atoms: C_9  and  C_19
REMARK    9  A    between atoms: C_10  and  N_11
REMARK   10  A    between atoms: C_19  and  O_21
REMARK   11  A    between atoms: O_21  and  C_22
REMARK                            x       y       z     vdW  Elec       q    Type
REMARK                         _______ _______ _______ _____ _____    ______ ____
ROOT
ATOM      1  C   UNL     1       5.934   4.385  18.027  0.00  0.00    +0.000 C 
ATOM      2  C   UNL     1       5.017   3.951  18.920  0.00  0.00    +0.000 C 
ENDROOT
BRANCH   2   3
ATOM      3  N   UNL     1       3.749   3.444  18.627  0.00  0.00    +0.000 N 
ATOM      4  C   UNL     1       2.738   4.390  18.533  0.00  0.00    +0.000 A 
ATOM      5  C   UNL     1       1.445   4.055  18.496  0.00  0.00    +0.000 A 
ATOM      6  C   UNL     1       1.061   2.638  18.587  0.00  0.00    +0.000 A 
ATOM      7  O   UNL     1      -0.113   2.298  18.634  0.00  0.00    +0.000 OA
ATOM      8  N   UNL     1       2.103   1.758  18.635  0.00  0.00    +0.000 N 
ATOM      9  C   UNL     1       3.443   2.074  18.706  0.00  0.00    +0.000 A 
ATOM     10  S   UNL     1       4.542   0.815  18.801  0.00  0.00    +0.000 S 
ATOM     11  H   UNL     1       1.852   0.779  18.696  0.00  0.00    +0.000 HD
ENDBRANCH   2   3
BRANCH   1  12
ATOM     12  P   UNL     1       5.613   4.162  16.239  0.00  0.00    +0.000 P 
ATOM     13  O   UNL     1       6.992   4.738  15.868  0.00  0.00    +0.000 OA
BRANCH  12  14
ATOM     14  O   UNL     1       5.310   3.951  14.549  0.00  0.00    +0.000 OA
BRANCH  14  16
ATOM     15  C   UNL     1       6.296   3.491  12.402  0.00  0.00    +0.000 C 
ATOM     16  C   UNL     1       6.504   4.081  13.779  0.00  0.00    +0.000 C 
ENDBRANCH  14  16
ENDBRANCH  12  14
BRANCH  12  17
ATOM     17  O   UNL     1       4.470   5.362  16.230  0.00  0.00    +0.000 OA
BRANCH  17  18
ATOM     18  C   UNL     1       4.906   6.713  16.285  0.00  0.00    +0.000 C 
ATOM     19  C   UNL     1       4.048   7.482  17.270  0.00  0.00    +0.000 C 
ENDBRANCH  17  18
ENDBRANCH  12  17
ENDBRANCH   1  12
BRANCH   1  20
ATOM     20  C   UNL     1       7.223   4.980  18.431  0.00  0.00    +0.000 C 
ATOM     21  O   UNL     1       8.312   4.437  18.397  0.00  0.00    +0.000 OA
BRANCH  20  22
ATOM     22  O   UNL     1       7.026   6.284  18.782  0.00  0.00    +0.000 OA
ATOM     23  C   UNL     1       8.022   7.173  18.267  0.00  0.00    +0.000 C 
ENDBRANCH  20  22
ENDBRANCH   1  20
TORSDOF 8
ENDMDL
MODEL 6
REMARK VINA RESULT:      -5.6      1.556      1.994
REMARK  Name = 
REMARK  11 active torsions:
REMARK  status: ('A' for Active; 'I' for Inactive)
REMARK    1  A    between atoms: C_1  and  C_2
REMARK    2  A    between atoms: C_2  and  O_3
REMARK    3  A    between atoms: O_3  and  P_4
REMARK    4  A    between atoms: P_4  and  O_6
REMARK    5  A    between atoms: P_4  and  C_9
REMARK    6  A    between atoms: O_6  and  C_7
REMARK    7  A    between atoms: C_7  and  C_8
REMARK    8  A    between atoms: C_9  and  C_19
REMARK    9  A    between atoms: C_10  and  N_11
REMARK   10  A    between atoms: C_19  and  O_21
REMARK   11  A    between atoms: O_21  and  C_22
REMARK                            x       y       z     vdW  Elec       q    Type
REMARK                         _______ _______ _______ _____ _____    ______ ____
ROOT
ATOM      1  C   UNL     1       4.776   4.383  16.525  0.00  0.00    +0.000 C 
ATOM      2  C   UNL     1       4.360   3.302  17.220  0.00  0.00    +0.000 C 
ENDROOT
BRANCH   2   3
ATOM      3  N   UNL     1       3.762   3.308  18.483  0.00  0.00    +0.000 N 
ATOM      4  C   UNL     1       4.558   2.840  19.520  0.00  0.00    +0.000 A 
ATOM      5  C   UNL     1       4.067   2.559  20.730  0.00  0.00    +0.000 A 
ATOM      6  C   UNL     1       2.626   2.718  20.982  0.00  0.00    +0.000 A 
ATOM      7  O   UNL     1       2.127   2.398  22.051  0.00  0.00    +0.000 OA
ATOM      8  N   UNL     1       1.908   3.220  19.934  0.00  0.00    +0.000 N 
ATOM      9  C   UNL     1       2.380   3.489  18.668  0.00  0.00    +0.000 A 
ATOM     10  S   UNL     1       1.294   4.063  17.531  0.00  0.00    +0.000 S 
ATOM     11  H   UNL     1       0.915   3.336  20.095  0.00  0.00    +0.000 HD
ENDBRANCH   2   3
BRANCH   1  12
ATOM     12  P   UNL     1       4.403   6.056  17.168  0.00  0.00    +0.000 P 
ATOM     13  O   UNL     1       4.927   6.722  15.883  0.00  0.00    +0.000 OA
BRANCH  12  14
ATOM     14  O   UNL     1       4.050   7.636  17.776  0.00  0.00    +0.000 OA
BRANCH  14  16
ATOM     15  C   UNL     1       2.051   8.978  17.761  0.00  0.00    +0.000 C 
ATOM     16  C   UNL     1       2.718   7.722  18.279  0.00  0.00    +0.000 C 
ENDBRANCH  14  16
ENDBRANCH  12  14
BRANCH  12  17
ATOM     17  O   UNL     1       5.612   5.960  18.298  0.00  0.00    +0.000 OA
BRANCH  17  18
ATOM     18  C   UNL     1       6.892   6.481  17.966  0.00  0.00    +0.000 C 
ATOM     19  C   UNL     1       7.915   5.989  18.970  0.00  0.00    +0.000 C 
ENDBRANCH  17  18
ENDBRANCH  12  17
ENDBRANCH   1  12
BRANCH   1  20
ATOM     20  C   UNL     1       5.471   4.279  15.227  0.00  0.00    +0.000 C 
ATOM     21  O   UNL     1       4.948   4.232  14.129  0.00  0.00    +0.000 OA
BRANCH  20  22
ATOM     22  O   UNL     1       6.819   4.324  15.433  0.00  0.00    +0.000 OA
ATOM     23  C   UNL     1       7.542   4.942  14.365  0.00  0.00    +0.000 C 
ENDBRANCH  20  22
ENDBRANCH   1  20
TORSDOF 8
ENDMDL
MODEL 7
REMARK VINA RESULT:      -5.5      2.939      5.230
REMARK  Name = 
REMARK  11 active torsions:
REMARK  status: ('A' for Active; 'I' for Inactive)
REMARK    1  A    between atoms: C_1  and  C_2
REMARK    2  A    between atoms: C_2  and  O_3
REMARK    3  A    between atoms: O_3  and  P_4
REMARK    4  A    between atoms: P_4  and  O_6
REMARK    5  A    between atoms: P_4  and  C_9
REMARK    6  A    between atoms: O_6  and  C_7
REMARK    7  A    between atoms: C_7  and  C_8
REMARK    8  A    between atoms: C_9  and  C_19
REMARK    9  A    between atoms: C_10  and  N_11
REMARK   10  A    between atoms: C_19  and  O_21
REMARK   11  A    between atoms: O_21  and  C_22
REMARK                            x       y       z     vdW  Elec       q    Type
REMARK                         _______ _______ _______ _____ _____    ______ ____
ROOT
ATOM      1  C   UNL     1       4.301   4.076  18.038  0.00  0.00    +0.000 C 
ATOM      2  C   UNL     1       5.606   4.067  17.686  0.00  0.00    +0.000 C 
ENDROOT
BRANCH   2   3
ATOM      3  N   UNL     1       6.437   5.183  17.556  0.00  0.00    +0.000 N 
ATOM      4  C   UNL     1       7.237   5.460  18.656  0.00  0.00    +0.000 A 
ATOM      5  C   UNL     1       7.903   6.611  18.785  0.00  0.00    +0.000 A 
ATOM      6  C   UNL     1       7.771   7.645  17.748  0.00  0.00    +0.000 A 
ATOM      7  O   UNL     1       8.302   8.740  17.868  0.00  0.00    +0.000 OA
ATOM      8  N   UNL     1       7.004   7.293  16.674  0.00  0.00    +0.000 N 
ATOM      9  C   UNL     1       6.281   6.129  16.528  0.00  0.00    +0.000 A 
ATOM     10  S   UNL     1       5.375   5.939  15.133  0.00  0.00    +0.000 S 
ATOM     11  H   UNL     1       6.906   7.996  15.952  0.00  0.00    +0.000 HD
ENDBRANCH   2   3
BRANCH   1  12
ATOM     12  P   UNL     1       3.529   5.649  18.565  0.00  0.00    +0.000 P 
ATOM     13  O   UNL     1       4.380   5.695  19.848  0.00  0.00    +0.000 OA
BRANCH  12  14
ATOM     14  O   UNL     1       2.799   7.136  19.064  0.00  0.00    +0.000 OA
BRANCH  14  16
ATOM     15  C   UNL     1       1.623   9.076  18.260  0.00  0.00    +0.000 C 
ATOM     16  C   UNL     1       2.721   8.071  17.990  0.00  0.00    +0.000 C 
ENDBRANCH  14  16
ENDBRANCH  12  14
BRANCH  12  17
ATOM     17  O   UNL     1       2.077   4.908  18.868  0.00  0.00    +0.000 OA
BRANCH  17  18
ATOM     18  C   UNL     1       1.492   5.063  20.154  0.00  0.00    +0.000 C 
ATOM     19  C   UNL     1       1.105   3.704  20.700  0.00  0.00    +0.000 C 
ENDBRANCH  17  18
ENDBRANCH  12  17
ENDBRANCH   1  12
BRANCH   1  20
ATOM     20  C   UNL     1       3.477   2.852  18.075  0.00  0.00    +0.000 C 
ATOM     21  O   UNL     1       2.651   2.511  17.249  0.00  0.00    +0.000 OA
BRANCH  20  22
ATOM     22  O   UNL     1       3.838   2.099  19.155  0.00  0.00    +0.000 OA
ATOM     23  C   UNL     1       4.071   0.723  18.842  0.00  0.00    +0.000 C 
ENDBRANCH  20  22
ENDBRANCH   1  20
TORSDOF 8
ENDMDL
MODEL 8
REMARK VINA RESULT:      -5.5      2.780      5.445
REMARK  Name = 
REMARK  11 active torsions:
REMARK  status: ('A' for Active; 'I' for Inactive)
REMARK    1  A    between atoms: C_1  and  C_2
REMARK    2  A    between atoms: C_2  and  O_3
REMARK    3  A    between atoms: O_3  and  P_4
REMARK    4  A    between atoms: P_4  and  O_6
REMARK    5  A    between atoms: P_4  and  C_9
REMARK    6  A    between atoms: O_6  and  C_7
REMARK    7  A    between atoms: C_7  and  C_8
REMARK    8  A    between atoms: C_9  and  C_19
REMARK    9  A    between atoms: C_10  and  N_11
REMARK   10  A    between atoms: C_19  and  O_21
REMARK   11  A    between atoms: O_21  and  C_22
REMARK                            x       y       z     vdW  Elec       q    Type
REMARK                         _______ _______ _______ _____ _____    ______ ____
ROOT
ATOM      1  C   UNL     1       4.774   3.562  18.770  0.00  0.00    +0.000 C 
ATOM      2  C   UNL     1       6.113   3.726  18.689  0.00  0.00    +0.000 C 
ENDROOT
BRANCH   2   3
ATOM      3  N   UNL     1       6.783   4.831  18.158  0.00  0.00    +0.000 N 
ATOM      4  C   UNL     1       7.289   5.724  19.093  0.00  0.00    +0.000 A 
ATOM      5  C   UNL     1       7.740   6.935  18.756  0.00  0.00    +0.000 A 
ATOM      6  C   UNL     1       7.678   7.366  17.350  0.00  0.00    +0.000 A 
ATOM      7  O   UNL     1       8.009   8.495  17.014  0.00  0.00    +0.000 OA
ATOM      8  N   UNL     1       7.208   6.427  16.478  0.00  0.00    +0.000 N 
ATOM      9  C   UNL     1       6.708   5.184  16.799  0.00  0.00    +0.000 A 
ATOM     10  S   UNL     1       6.147   4.217  15.553  0.00  0.00    +0.000 S 
ATOM     11  H   UNL     1       7.162   6.710  15.507  0.00  0.00    +0.000 HD
ENDBRANCH   2   3
BRANCH   1  12
ATOM     12  P   UNL     1       3.675   4.952  18.310  0.00  0.00    +0.000 P 
ATOM     13  O   UNL     1       3.546   5.402  19.777  0.00  0.00    +0.000 OA
BRANCH  12  14
ATOM     14  O   UNL     1       2.637   6.265  17.875  0.00  0.00    +0.000 OA
BRANCH  14  16
ATOM     15  C   UNL     1       2.376   8.658  17.866  0.00  0.00    +0.000 C 
ATOM     16  C   UNL     1       3.348   7.500  17.811  0.00  0.00    +0.000 C 
ENDBRANCH  14  16
ENDBRANCH  12  14
BRANCH  12  17
ATOM     17  O   UNL     1       2.436   3.924  17.915  0.00  0.00    +0.000 OA
BRANCH  17  18
ATOM     18  C   UNL     1       1.185   4.088  18.570  0.00  0.00    +0.000 C 
ATOM     19  C   UNL     1       0.528   2.734  18.750  0.00  0.00    +0.000 C 
ENDBRANCH  17  18
ENDBRANCH  12  17
ENDBRANCH   1  12
BRANCH   1  20
ATOM     20  C   UNL     1       4.150   2.324  19.276  0.00  0.00    +0.000 C 
ATOM     21  O   UNL     1       3.688   1.420  18.604  0.00  0.00    +0.000 OA
BRANCH  20  22
ATOM     22  O   UNL     1       4.239   2.299  20.638  0.00  0.00    +0.000 OA
ATOM     23  C   UNL     1       2.975   2.415  21.297  0.00  0.00    +0.000 C 
ENDBRANCH  20  22
ENDBRANCH   1  20
TORSDOF 8
ENDMDL
MODEL 9
REMARK VINA RESULT:      -5.4      1.933      3.811
REMARK  Name = 
REMARK  11 active torsions:
REMARK  status: ('A' for Active; 'I' for Inactive)
REMARK    1  A    between atoms: C_1  and  C_2
REMARK    2  A    between atoms: C_2  and  O_3
REMARK    3  A    between atoms: O_3  and  P_4
REMARK    4  A    between atoms: P_4  and  O_6
REMARK    5  A    between atoms: P_4  and  C_9
REMARK    6  A    between atoms: O_6  and  C_7
REMARK    7  A    between atoms: C_7  and  C_8
REMARK    8  A    between atoms: C_9  and  C_19
REMARK    9  A    between atoms: C_10  and  N_11
REMARK   10  A    between atoms: C_19  and  O_21
REMARK   11  A    between atoms: O_21  and  C_22
REMARK                            x       y       z     vdW  Elec       q    Type
REMARK                         _______ _______ _______ _____ _____    ______ ____
ROOT
ATOM      1  C   UNL     1       5.842   4.739  18.605  0.00  0.00    +0.000 C 
ATOM      2  C   UNL     1       5.009   4.410  19.618  0.00  0.00    +0.000 C 
ENDROOT
BRANCH   2   3
ATOM      3  N   UNL     1       3.755   3.806  19.497  0.00  0.00    +0.000 N 
ATOM      4  C   UNL     1       3.768   2.499  19.028  0.00  0.00    +0.000 A 
ATOM      5  C   UNL     1       2.658   1.869  18.634  0.00  0.00    +0.000 A 
ATOM      6  C   UNL     1       1.371   2.581  18.664  0.00  0.00    +0.000 A 
ATOM      7  O   UNL     1       0.347   2.065  18.238  0.00  0.00    +0.000 OA
ATOM      8  N   UNL     1       1.422   3.847  19.173  0.00  0.00    +0.000 N 
ATOM      9  C   UNL     1       2.554   4.533  19.557  0.00  0.00    +0.000 A 
ATOM     10  S   UNL     1       2.369   6.100  20.115  0.00  0.00    +0.000 S 
ATOM     11  H   UNL     1       0.542   4.347  19.200  0.00  0.00    +0.000 HD
ENDBRANCH   2   3
BRANCH   1  12
ATOM     12  P   UNL     1       5.421   4.225  16.900  0.00  0.00    +0.000 P 
ATOM     13  O   UNL     1       6.760   4.755  16.355  0.00  0.00    +0.000 OA
BRANCH  12  14
ATOM     14  O   UNL     1       5.023   3.738  15.289  0.00  0.00    +0.000 OA
BRANCH  14  16
ATOM     15  C   UNL     1       5.689   3.616  12.979  0.00  0.00    +0.000 C 
ATOM     16  C   UNL     1       6.118   3.930  14.395  0.00  0.00    +0.000 C 
ENDBRANCH  14  16
ENDBRANCH  12  14
BRANCH  12  17
ATOM     17  O   UNL     1       4.248   5.389  16.771  0.00  0.00    +0.000 OA
BRANCH  17  18
ATOM     18  C   UNL     1       4.644   6.717  16.451  0.00  0.00    +0.000 C 
ATOM     19  C   UNL     1       3.834   7.698  17.274  0.00  0.00    +0.000 C 
ENDBRANCH  17  18
ENDBRANCH  12  17
ENDBRANCH   1  12
BRANCH   1  20
ATOM     20  C   UNL     1       7.118   5.448  18.820  0.00  0.00    +0.000 C 
ATOM     21  O   UNL     1       8.193   4.939  19.078  0.00  0.00    +0.000 OA
BRANCH  20  22
ATOM     22  O   UNL     1       6.934   6.783  18.605  0.00  0.00    +0.000 OA
ATOM     23  C   UNL     1       8.115   7.463  18.171  0.00  0.00    +0.000 C 
ENDBRANCH  20  22
ENDBRANCH   1  20
TORSDOF 8
ENDMDL
