MODEL 1
REMARK VINA RESULT:      -6.9      0.000      0.000
REMARK  Name = 
REMARK  6 active torsions:
REMARK  status: ('A' for Active; 'I' for Inactive)
REMARK    1  A    between atoms: C_1  and  O_2
REMARK    2  A    between atoms: O_2  and  C_3
REMARK    3  A    between atoms: C_7  and  N_8
REMARK    4  A    between atoms: N_10  and  C_11
REMARK    5  A    between atoms: C_15  and  O_16
REMARK    6  A    between atoms: O_16  and  C_17
REMARK                            x       y       z     vdW  Elec       q    Type
REMARK                         _______ _______ _______ _____ _____    ______ ____
ROOT
ATOM      1  N   UNL     1       6.538   4.673  15.925  0.00  0.00    +0.000 NA
ATOM      2  C   UNL     1       5.353   4.594  16.434  0.00  0.00    +0.000 C 
ATOM      3  N   UNL     1       5.056   4.762  17.754  0.00  0.00    +0.000 N 
ATOM      4  H   UNL     1       5.816   5.060  18.350  0.00  0.00    +0.000 HD
ENDROOT
BRANCH   1   9
ATOM      5  C   UNL     1       6.066   3.444  12.416  0.00  0.00    +0.000 A 
ATOM      6  C   UNL     1       7.040   4.206  11.766  0.00  0.00    +0.000 A 
ATOM      7  C   UNL     1       7.836   5.095  12.487  0.00  0.00    +0.000 A 
ATOM      8  C   UNL     1       7.649   5.238  13.864  0.00  0.00    +0.000 A 
ATOM      9  C   UNL     1       6.672   4.496  14.532  0.00  0.00    +0.000 A 
ATOM     10  C   UNL     1       5.904   3.579  13.798  0.00  0.00    +0.000 A 
BRANCH   5  12
ATOM     11  C   UNL     1       4.069   3.064  11.187  0.00  0.00    +0.000 C 
ATOM     12  O   UNL     1       5.350   2.607  11.609  0.00  0.00    +0.000 OA
ENDBRANCH   5  12
ENDBRANCH   1   9
BRANCH   3  13
ATOM     13  C   UNL     1       3.811   4.528  18.359  0.00  0.00    +0.000 A 
ATOM     14  C   UNL     1       2.666   4.452  17.558  0.00  0.00    +0.000 A 
ATOM     15  C   UNL     1       1.429   4.112  18.112  0.00  0.00    +0.000 A 
ATOM     16  C   UNL     1       1.325   3.850  19.477  0.00  0.00    +0.000 A 
ATOM     17  C   UNL     1       2.450   3.927  20.297  0.00  0.00    +0.000 A 
ATOM     18  C   UNL     1       3.685   4.254  19.731  0.00  0.00    +0.000 A 
BRANCH  17  19
ATOM     19  O   UNL     1       2.221   3.663  21.620  0.00  0.00    +0.000 OA
ATOM     20  C   UNL     1       1.409   2.533  21.919  0.00  0.00    +0.000 C 
ENDBRANCH  17  19
ENDBRANCH   3  13
TORSDOF 4
ENDMDL
MODEL 2
REMARK VINA RESULT:      -6.8      4.710      8.834
REMARK  Name = 
REMARK  6 active torsions:
REMARK  status: ('A' for Active; 'I' for Inactive)
REMARK    1  A    between atoms: C_1  and  O_2
REMARK    2  A    between atoms: O_2  and  C_3
REMARK    3  A    between atoms: C_7  and  N_8
REMARK    4  A    between atoms: N_10  and  C_11
REMARK    5  A    between atoms: C_15  and  O_16
REMARK    6  A    between atoms: O_16  and  C_17
REMARK                            x       y       z     vdW  Elec       q    Type
REMARK                         _______ _______ _______ _____ _____    ______ ____
ROOT
ATOM      1  N   UNL     1       1.996   6.769  20.074  0.00  0.00    +0.000 NA
ATOM      2  C   UNL     1       2.859   6.630  19.122  0.00  0.00    +0.000 C 
ATOM      3  N   UNL     1       3.401   5.444  18.725  0.00  0.00    +0.000 N 
ATOM      4  H   UNL     1       3.020   4.611  19.153  0.00  0.00    +0.000 HD
ENDROOT
BRANCH   1   9
ATOM      5  C   UNL     1       0.619   9.773  21.842  0.00  0.00    +0.000 A 
ATOM      6  C   UNL     1       0.554  10.668  20.771  0.00  0.00    +0.000 A 
ATOM      7  C   UNL     1       0.950  10.269  19.494  0.00  0.00    +0.000 A 
ATOM      8  C   UNL     1       1.429   8.974  19.287  0.00  0.00    +0.000 A 
ATOM      9  C   UNL     1       1.516   8.067  20.346  0.00  0.00    +0.000 A 
ATOM     10  C   UNL     1       1.079   8.473  21.617  0.00  0.00    +0.000 A 
BRANCH   5  12
ATOM     11  C   UNL     1      -1.087  10.875  23.074  0.00  0.00    +0.000 C 
ATOM     12  O   UNL     1       0.203  10.273  23.042  0.00  0.00    +0.000 OA
ENDBRANCH   5  12
ENDBRANCH   1   9
BRANCH   3  13
ATOM     13  C   UNL     1       4.451   5.279  17.808  0.00  0.00    +0.000 A 
ATOM     14  C   UNL     1       4.379   4.248  16.865  0.00  0.00    +0.000 A 
ATOM     15  C   UNL     1       5.351   4.122  15.869  0.00  0.00    +0.000 A 
ATOM     16  C   UNL     1       6.412   5.026  15.813  0.00  0.00    +0.000 A 
ATOM     17  C   UNL     1       6.510   6.057  16.747  0.00  0.00    +0.000 A 
ATOM     18  C   UNL     1       5.525   6.182  17.729  0.00  0.00    +0.000 A 
BRANCH  17  19
ATOM     19  O   UNL     1       7.600   6.870  16.597  0.00  0.00    +0.000 OA
ATOM     20  C   UNL     1       7.759   7.916  17.548  0.00  0.00    +0.000 C 
ENDBRANCH  17  19
ENDBRANCH   3  13
TORSDOF 4
ENDMDL
MODEL 3
REMARK VINA RESULT:      -6.7      7.436      9.284
REMARK  Name = 
REMARK  6 active torsions:
REMARK  status: ('A' for Active; 'I' for Inactive)
REMARK    1  A    between atoms: C_1  and  O_2
REMARK    2  A    between atoms: O_2  and  C_3
REMARK    3  A    between atoms: C_7  and  N_8
REMARK    4  A    between atoms: N_10  and  C_11
REMARK    5  A    between atoms: C_15  and  O_16
REMARK    6  A    between atoms: O_16  and  C_17
REMARK                            x       y       z     vdW  Elec       q    Type
REMARK                         _______ _______ _______ _____ _____    ______ ____
ROOT
ATOM      1  N   UNL     1       7.541   8.735  17.381  0.00  0.00    +0.000 NA
ATOM      2  C   UNL     1       8.418   9.424  18.033  0.00  0.00    +0.000 C 
ATOM      3  N   UNL     1       8.536  10.781  17.990  0.00  0.00    +0.000 N 
ATOM      4  H   UNL     1       7.818  11.277  17.479  0.00  0.00    +0.000 HD
ENDROOT
BRANCH   1   9
ATOM      5  C   UNL     1       7.066   5.062  16.802  0.00  0.00    +0.000 A 
ATOM      6  C   UNL     1       7.561   4.567  18.011  0.00  0.00    +0.000 A 
ATOM      7  C   UNL     1       8.028   5.441  18.993  0.00  0.00    +0.000 A 
ATOM      8  C   UNL     1       8.017   6.818  18.760  0.00  0.00    +0.000 A 
ATOM      9  C   UNL     1       7.539   7.334  17.553  0.00  0.00    +0.000 A 
ATOM     10  C   UNL     1       7.039   6.443  16.591  0.00  0.00    +0.000 A 
BRANCH   5  12
ATOM     11  C   UNL     1       5.348   4.313  15.342  0.00  0.00    +0.000 C 
ATOM     12  O   UNL     1       6.634   4.114  15.919  0.00  0.00    +0.000 OA
ENDBRANCH   5  12
ENDBRANCH   1   9
BRANCH   3  13
ATOM     13  C   UNL     1       9.570  11.541  18.558  0.00  0.00    +0.000 A 
ATOM     14  C   UNL     1      10.088  11.168  19.804  0.00  0.00    +0.000 A 
ATOM     15  C   UNL     1      11.189  11.834  20.347  0.00  0.00    +0.000 A 
ATOM     16  C   UNL     1      11.780  12.887  19.650  0.00  0.00    +0.000 A 
ATOM     17  C   UNL     1      11.278  13.282  18.411  0.00  0.00    +0.000 A 
ATOM     18  C   UNL     1      10.185  12.601  17.870  0.00  0.00    +0.000 A 
BRANCH  17  19
ATOM     19  O   UNL     1      11.932  14.334  17.831  0.00  0.00    +0.000 OA
ATOM     20  C   UNL     1      11.178  15.154  16.945  0.00  0.00    +0.000 C 
ENDBRANCH  17  19
ENDBRANCH   3  13
TORSDOF 4
ENDMDL
MODEL 4
REMARK VINA RESULT:      -6.7      6.990      9.036
REMARK  Name = 
REMARK  6 active torsions:
REMARK  status: ('A' for Active; 'I' for Inactive)
REMARK    1  A    between atoms: C_1  and  O_2
REMARK    2  A    between atoms: O_2  and  C_3
REMARK    3  A    between atoms: C_7  and  N_8
REMARK    4  A    between atoms: N_10  and  C_11
REMARK    5  A    between atoms: C_15  and  O_16
REMARK    6  A    between atoms: O_16  and  C_17
REMARK                            x       y       z     vdW  Elec       q    Type
REMARK                         _______ _______ _______ _____ _____    ______ ____
ROOT
ATOM      1  N   UNL     1       7.646   8.024  17.106  0.00  0.00    +0.000 NA
ATOM      2  C   UNL     1       8.147   8.869  17.946  0.00  0.00    +0.000 C 
ATOM      3  N   UNL     1       8.847   9.988  17.605  0.00  0.00    +0.000 N 
ATOM      4  H   UNL     1       8.888  10.208  16.619  0.00  0.00    +0.000 HD
ENDROOT
BRANCH   1   9
ATOM      5  C   UNL     1       4.983   5.454  17.702  0.00  0.00    +0.000 A 
ATOM      6  C   UNL     1       5.577   4.736  18.743  0.00  0.00    +0.000 A 
ATOM      7  C   UNL     1       6.827   5.112  19.236  0.00  0.00    +0.000 A 
ATOM      8  C   UNL     1       7.497   6.201  18.675  0.00  0.00    +0.000 A 
ATOM      9  C   UNL     1       6.928   6.926  17.624  0.00  0.00    +0.000 A 
ATOM     10  C   UNL     1       5.654   6.557  17.165  0.00  0.00    +0.000 A 
BRANCH   5  12
ATOM     11  C   UNL     1       3.457   3.637  17.599  0.00  0.00    +0.000 C 
ATOM     12  O   UNL     1       3.759   4.997  17.305  0.00  0.00    +0.000 OA
ENDBRANCH   5  12
ENDBRANCH   1   9
BRANCH   3  13
ATOM     13  C   UNL     1       9.534  10.836  18.487  0.00  0.00    +0.000 A 
ATOM     14  C   UNL     1       9.301  10.724  19.863  0.00  0.00    +0.000 A 
ATOM     15  C   UNL     1      10.048  11.473  20.776  0.00  0.00    +0.000 A 
ATOM     16  C   UNL     1      11.032  12.349  20.320  0.00  0.00    +0.000 A 
ATOM     17  C   UNL     1      11.276  12.484  18.954  0.00  0.00    +0.000 A 
ATOM     18  C   UNL     1      10.535  11.720  18.050  0.00  0.00    +0.000 A 
BRANCH  17  19
ATOM     19  O   UNL     1      12.256  13.382  18.629  0.00  0.00    +0.000 OA
ATOM     20  C   UNL     1      12.303  13.822  17.276  0.00  0.00    +0.000 C 
ENDBRANCH  17  19
ENDBRANCH   3  13
TORSDOF 4
ENDMDL
MODEL 5
REMARK VINA RESULT:      -6.6      0.534      7.833
REMARK  Name = 
REMARK  6 active torsions:
REMARK  status: ('A' for Active; 'I' for Inactive)
REMARK    1  A    between atoms: C_1  and  O_2
REMARK    2  A    between atoms: O_2  and  C_3
REMARK    3  A    between atoms: C_7  and  N_8
REMARK    4  A    between atoms: N_10  and  C_11
REMARK    5  A    between atoms: C_15  and  O_16
REMARK    6  A    between atoms: O_16  and  C_17
REMARK                            x       y       z     vdW  Elec       q    Type
REMARK                         _______ _______ _______ _____ _____    ______ ____
ROOT
ATOM      1  N   UNL     1       4.528   5.140  17.698  0.00  0.00    +0.000 NA
ATOM      2  C   UNL     1       4.923   4.690  16.552  0.00  0.00    +0.000 C 
ATOM      3  N   UNL     1       5.924   5.232  15.802  0.00  0.00    +0.000 N 
ATOM      4  H   UNL     1       6.448   5.983  16.230  0.00  0.00    +0.000 HD
ENDROOT
BRANCH   1   9
ATOM      5  C   UNL     1       2.581   3.200  20.246  0.00  0.00    +0.000 A 
ATOM      6  C   UNL     1       1.367   3.070  19.567  0.00  0.00    +0.000 A 
ATOM      7  C   UNL     1       1.213   3.608  18.290  0.00  0.00    +0.000 A 
ATOM      8  C   UNL     1       2.272   4.295  17.692  0.00  0.00    +0.000 A 
ATOM      9  C   UNL     1       3.491   4.448  18.358  0.00  0.00    +0.000 A 
ATOM     10  C   UNL     1       3.641   3.869  19.627  0.00  0.00    +0.000 A 
BRANCH   5  12
ATOM     11  C   UNL     1       1.365   2.448  22.144  0.00  0.00    +0.000 C 
ATOM     12  O   UNL     1       2.616   2.632  21.488  0.00  0.00    +0.000 OA
ENDBRANCH   5  12
ENDBRANCH   1   9
BRANCH   3  13
ATOM     13  C   UNL     1       6.267   4.866  14.492  0.00  0.00    +0.000 A 
ATOM     14  C   UNL     1       7.447   5.368  13.929  0.00  0.00    +0.000 A 
ATOM     15  C   UNL     1       7.875   4.939  12.670  0.00  0.00    +0.000 A 
ATOM     16  C   UNL     1       7.122   4.008  11.957  0.00  0.00    +0.000 A 
ATOM     17  C   UNL     1       5.939   3.500  12.493  0.00  0.00    +0.000 A 
ATOM     18  C   UNL     1       5.527   3.924  13.758  0.00  0.00    +0.000 A 
BRANCH  17  19
ATOM     19  O   UNL     1       5.281   2.604  11.695  0.00  0.00    +0.000 OA
ATOM     20  C   UNL     1       4.037   3.023  11.145  0.00  0.00    +0.000 C 
ENDBRANCH  17  19
ENDBRANCH   3  13
TORSDOF 4
ENDMDL
MODEL 6
REMARK VINA RESULT:      -6.6      4.959      6.133
REMARK  Name = 
REMARK  6 active torsions:
REMARK  status: ('A' for Active; 'I' for Inactive)
REMARK    1  A    between atoms: C_1  and  O_2
REMARK    2  A    between atoms: O_2  and  C_3
REMARK    3  A    between atoms: C_7  and  N_8
REMARK    4  A    between atoms: N_10  and  C_11
REMARK    5  A    between atoms: C_15  and  O_16
REMARK    6  A    between atoms: O_16  and  C_17
REMARK                            x       y       z     vdW  Elec       q    Type
REMARK                         _______ _______ _______ _____ _____    ______ ____
ROOT
ATOM      1  N   UNL     1       3.346   5.647  19.429  0.00  0.00    +0.000 NA
ATOM      2  C   UNL     1       2.850   6.829  19.591  0.00  0.00    +0.000 C 
ATOM      3  N   UNL     1       2.037   7.201  20.620  0.00  0.00    +0.000 N 
ATOM      4  H   UNL     1       1.897   6.517  21.351  0.00  0.00    +0.000 HD
ENDROOT
BRANCH   1   9
ATOM      5  C   UNL     1       6.121   5.978  16.930  0.00  0.00    +0.000 A 
ATOM      6  C   UNL     1       5.788   4.929  16.069  0.00  0.00    +0.000 A 
ATOM      7  C   UNL     1       4.661   4.145  16.315  0.00  0.00    +0.000 A 
ATOM      8  C   UNL     1       3.870   4.397  17.437  0.00  0.00    +0.000 A 
ATOM      9  C   UNL     1       4.191   5.432  18.320  0.00  0.00    +0.000 A 
ATOM     10  C   UNL     1       5.307   6.234  18.037  0.00  0.00    +0.000 A 
BRANCH   5  12
ATOM     11  C   UNL     1       7.672   7.684  17.498  0.00  0.00    +0.000 C 
ATOM     12  O   UNL     1       7.242   6.678  16.588  0.00  0.00    +0.000 OA
ENDBRANCH   5  12
ENDBRANCH   1   9
BRANCH   3  13
ATOM     13  C   UNL     1       1.358   8.424  20.739  0.00  0.00    +0.000 A 
ATOM     14  C   UNL     1       1.037   9.142  19.581  0.00  0.00    +0.000 A 
ATOM     15  C   UNL     1       0.266  10.305  19.653  0.00  0.00    +0.000 A 
ATOM     16  C   UNL     1      -0.186  10.766  20.889  0.00  0.00    +0.000 A 
ATOM     17  C   UNL     1       0.129  10.073  22.057  0.00  0.00    +0.000 A 
ATOM     18  C   UNL     1       0.887   8.903  21.973  0.00  0.00    +0.000 A 
BRANCH  17  19
ATOM     19  O   UNL     1      -0.359  10.629  23.208  0.00  0.00    +0.000 OA
ATOM     20  C   UNL     1      -1.343  11.647  23.065  0.00  0.00    +0.000 C 
ENDBRANCH  17  19
ENDBRANCH   3  13
TORSDOF 4
ENDMDL
MODEL 7
REMARK VINA RESULT:      -6.5      4.506      5.495
REMARK  Name = 
REMARK  6 active torsions:
REMARK  status: ('A' for Active; 'I' for Inactive)
REMARK    1  A    between atoms: C_1  and  O_2
REMARK    2  A    between atoms: O_2  and  C_3
REMARK    3  A    between atoms: C_7  and  N_8
REMARK    4  A    between atoms: N_10  and  C_11
REMARK    5  A    between atoms: C_15  and  O_16
REMARK    6  A    between atoms: O_16  and  C_17
REMARK                            x       y       z     vdW  Elec       q    Type
REMARK                         _______ _______ _______ _____ _____    ______ ____
ROOT
ATOM      1  N   UNL     1       3.436   5.257  19.382  0.00  0.00    +0.000 NA
ATOM      2  C   UNL     1       3.052   6.473  19.591  0.00  0.00    +0.000 C 
ATOM      3  N   UNL     1       2.080   6.845  20.471  0.00  0.00    +0.000 N 
ATOM      4  H   UNL     1       1.707   6.115  21.062  0.00  0.00    +0.000 HD
ENDROOT
BRANCH   1   9
ATOM      5  C   UNL     1       5.305   4.596  16.201  0.00  0.00    +0.000 A 
ATOM      6  C   UNL     1       6.614   4.604  16.690  0.00  0.00    +0.000 A 
ATOM      7  C   UNL     1       6.858   4.814  18.047  0.00  0.00    +0.000 A 
ATOM      8  C   UNL     1       5.790   5.033  18.920  0.00  0.00    +0.000 A 
ATOM      9  C   UNL     1       4.474   5.043  18.451  0.00  0.00    +0.000 A 
ATOM     10  C   UNL     1       4.244   4.794  17.089  0.00  0.00    +0.000 A 
BRANCH   5  12
ATOM     11  C   UNL     1       6.372   3.992  14.166  0.00  0.00    +0.000 C 
ATOM     12  O   UNL     1       5.189   4.378  14.858  0.00  0.00    +0.000 OA
ENDBRANCH   5  12
ENDBRANCH   1   9
BRANCH   3  13
ATOM     13  C   UNL     1       1.534   8.131  20.606  0.00  0.00    +0.000 A 
ATOM     14  C   UNL     1       1.338   8.914  19.462  0.00  0.00    +0.000 A 
ATOM     15  C   UNL     1       0.696  10.152  19.546  0.00  0.00    +0.000 A 
ATOM     16  C   UNL     1       0.250  10.623  20.779  0.00  0.00    +0.000 A 
ATOM     17  C   UNL     1       0.441   9.866  21.935  0.00  0.00    +0.000 A 
ATOM     18  C   UNL     1       1.070   8.623  21.838  0.00  0.00    +0.000 A 
BRANCH  17  19
ATOM     19  O   UNL     1      -0.028  10.439  23.085  0.00  0.00    +0.000 OA
ATOM     20  C   UNL     1      -1.153  11.302  22.963  0.00  0.00    +0.000 C 
ENDBRANCH  17  19
ENDBRANCH   3  13
TORSDOF 4
ENDMDL
MODEL 8
REMARK VINA RESULT:      -6.5      1.066      1.129
REMARK  Name = 
REMARK  6 active torsions:
REMARK  status: ('A' for Active; 'I' for Inactive)
REMARK    1  A    between atoms: C_1  and  O_2
REMARK    2  A    between atoms: O_2  and  C_3
REMARK    3  A    between atoms: C_7  and  N_8
REMARK    4  A    between atoms: N_10  and  C_11
REMARK    5  A    between atoms: C_15  and  O_16
REMARK    6  A    between atoms: O_16  and  C_17
REMARK                            x       y       z     vdW  Elec       q    Type
REMARK                         _______ _______ _______ _____ _____    ______ ____
ROOT
ATOM      1  N   UNL     1       6.957   5.385  15.755  0.00  0.00    +0.000 NA
ATOM      2  C   UNL     1       5.867   5.252  16.437  0.00  0.00    +0.000 C 
ATOM      3  N   UNL     1       5.705   5.638  17.734  0.00  0.00    +0.000 N 
ATOM      4  H   UNL     1       6.472   6.148  18.150  0.00  0.00    +0.000 HD
ENDROOT
BRANCH   1   9
ATOM      5  C   UNL     1       6.130   3.552  12.592  0.00  0.00    +0.000 A 
ATOM      6  C   UNL     1       7.046   4.152  11.725  0.00  0.00    +0.000 A 
ATOM      7  C   UNL     1       7.920   5.133  12.192  0.00  0.00    +0.000 A 
ATOM      8  C   UNL     1       7.870   5.530  13.530  0.00  0.00    +0.000 A 
ATOM      9  C   UNL     1       6.952   4.952  14.412  0.00  0.00    +0.000 A 
ATOM     10  C   UNL     1       6.105   3.941  13.934  0.00  0.00    +0.000 A 
BRANCH   5  12
ATOM     11  C   UNL     1       4.213   3.074  11.272  0.00  0.00    +0.000 C 
ATOM     12  O   UNL     1       5.327   2.604  12.024  0.00  0.00    +0.000 OA
ENDBRANCH   5  12
ENDBRANCH   1   9
BRANCH   3  13
ATOM     13  C   UNL     1       4.593   5.366  18.546  0.00  0.00    +0.000 A 
ATOM     14  C   UNL     1       3.594   6.336  18.686  0.00  0.00    +0.000 A 
ATOM     15  C   UNL     1       2.423   6.059  19.395  0.00  0.00    +0.000 A 
ATOM     16  C   UNL     1       2.244   4.806  19.981  0.00  0.00    +0.000 A 
ATOM     17  C   UNL     1       3.228   3.825  19.863  0.00  0.00    +0.000 A 
ATOM     18  C   UNL     1       4.388   4.108  19.139  0.00  0.00    +0.000 A 
BRANCH  17  19
ATOM     19  O   UNL     1       2.944   2.643  20.491  0.00  0.00    +0.000 OA
ATOM     20  C   UNL     1       2.063   2.702  21.607  0.00  0.00    +0.000 C 
ENDBRANCH  17  19
ENDBRANCH   3  13
TORSDOF 4
ENDMDL
MODEL 9
REMARK VINA RESULT:      -6.5      1.005      7.781
REMARK  Name = 
REMARK  6 active torsions:
REMARK  status: ('A' for Active; 'I' for Inactive)
REMARK    1  A    between atoms: C_1  and  O_2
REMARK    2  A    between atoms: O_2  and  C_3
REMARK    3  A    between atoms: C_7  and  N_8
REMARK    4  A    between atoms: N_10  and  C_11
REMARK    5  A    between atoms: C_15  and  O_16
REMARK    6  A    between atoms: O_16  and  C_17
REMARK                            x       y       z     vdW  Elec       q    Type
REMARK                         _______ _______ _______ _____ _____    ______ ____
ROOT
ATOM      1  N   UNL     1       5.525   4.574  18.144  0.00  0.00    +0.000 NA
ATOM      2  C   UNL     1       5.506   4.527  16.852  0.00  0.00    +0.000 C 
ATOM      3  N   UNL     1       6.537   4.099  16.070  0.00  0.00    +0.000 N 
ATOM      4  H   UNL     1       7.333   3.705  16.554  0.00  0.00    +0.000 HD
ENDROOT
BRANCH   1   9
ATOM      5  C   UNL     1       2.575   4.775  20.448  0.00  0.00    +0.000 A 
ATOM      6  C   UNL     1       2.040   5.999  20.039  0.00  0.00    +0.000 A 
ATOM      7  C   UNL     1       2.645   6.727  19.014  0.00  0.00    +0.000 A 
ATOM      8  C   UNL     1       3.802   6.238  18.404  0.00  0.00    +0.000 A 
ATOM      9  C   UNL     1       4.363   5.023  18.806  0.00  0.00    +0.000 A 
ATOM     10  C   UNL     1       3.721   4.286  19.813  0.00  0.00    +0.000 A 
BRANCH   5  12
ATOM     11  C   UNL     1       2.086   2.747  21.583  0.00  0.00    +0.000 C 
ATOM     12  O   UNL     1       1.897   4.152  21.456  0.00  0.00    +0.000 OA
ENDBRANCH   5  12
ENDBRANCH   1   9
BRANCH   3  13
ATOM     13  C   UNL     1       6.606   4.185  14.671  0.00  0.00    +0.000 A 
ATOM     14  C   UNL     1       7.554   5.032  14.085  0.00  0.00    +0.000 A 
ATOM     15  C   UNL     1       7.725   5.059  12.698  0.00  0.00    +0.000 A 
ATOM     16  C   UNL     1       6.942   4.243  11.883  0.00  0.00    +0.000 A 
ATOM     17  C   UNL     1       5.985   3.398  12.443  0.00  0.00    +0.000 A 
ATOM     18  C   UNL     1       5.832   3.367  13.831  0.00  0.00    +0.000 A 
BRANCH  17  19
ATOM     19  O   UNL     1       5.270   2.657  11.542  0.00  0.00    +0.000 OA
ATOM     20  C   UNL     1       3.989   3.154  11.171  0.00  0.00    +0.000 C 
ENDBRANCH  17  19
ENDBRANCH   3  13
TORSDOF 4
ENDMDL
