MODEL 1
REMARK VINA RESULT:      -5.8      0.000      0.000
REMARK  Name = 
REMARK  6 active torsions:
REMARK  status: ('A' for Active; 'I' for Inactive)
REMARK    1  A    between atoms: C_2  and  C_3
REMARK    2  A    between atoms: C_3  and  C_4
REMARK    3  A    between atoms: N_6  and  C_7
REMARK    4  A    between atoms: C_7  and  C_8
REMARK    5  A    between atoms: C_8  and  O_9
REMARK    6  A    between atoms: O_9  and  C_10
REMARK                            x       y       z     vdW  Elec       q    Type
REMARK                         _______ _______ _______ _____ _____    ______ ____
ROOT
ATOM      1  C   UNL     1       5.080   5.274  19.021  0.00  0.00    +0.000 C 
ENDROOT
BRANCH   1   2
ATOM      2  C   UNL     1       4.755   3.777  19.105  0.00  0.00    +0.000 C 
BRANCH   2   5
ATOM      3  C   UNL     1       2.350   3.219  18.871  0.00  0.00    +0.000 C 
ATOM      4  O   UNL     1       2.425   3.186  17.646  0.00  0.00    +0.000 OA
ATOM      5  N   UNL     1       3.439   3.503  19.673  0.00  0.00    +0.000 N 
ATOM      6  H   UNL     1       3.322   3.623  20.672  0.00  0.00    +0.000 HD
BRANCH   3   7
ATOM      7  C   UNL     1       1.047   2.960  19.601  0.00  0.00    +0.000 C 
BRANCH   7   9
ATOM      8  N   UNL     1       1.616   2.529  22.290  0.00  0.00    +0.000 NA
ATOM      9  C   UNL     1       1.358   2.724  21.070  0.00  0.00    +0.000 C 
ENDBRANCH   7   9
ENDBRANCH   3   7
ENDBRANCH   2   5
ENDBRANCH   1   2
BRANCH   1  10
ATOM     10  O   UNL     1       4.633   5.778  17.757  0.00  0.00    +0.000 OA
BRANCH  10  11
ATOM     11  C   UNL     1       5.389   5.463  16.662  0.00  0.00    +0.000 A 
ATOM     12  C   UNL     1       6.690   5.969  16.642  0.00  0.00    +0.000 A 
ATOM     13  N   UNL     1       7.578   5.773  15.634  0.00  0.00    +0.000 NA
ATOM     14  C   UNL     1       7.145   5.029  14.590  0.00  0.00    +0.000 A 
ATOM     15  C   UNL     1       5.871   4.482  14.518  0.00  0.00    +0.000 A 
ATOM     16 CL   UNL     1       5.389   3.556  13.153  0.00  0.00    +0.000 Cl
ATOM     17  C   UNL     1       4.983   4.699  15.570  0.00  0.00    +0.000 A 
ENDBRANCH  10  11
ENDBRANCH   1  10
TORSDOF 6
ENDMDL
MODEL 2
REMARK VINA RESULT:      -5.8      1.009      1.099
REMARK  Name = 
REMARK  6 active torsions:
REMARK  status: ('A' for Active; 'I' for Inactive)
REMARK    1  A    between atoms: C_2  and  C_3
REMARK    2  A    between atoms: C_3  and  C_4
REMARK    3  A    between atoms: N_6  and  C_7
REMARK    4  A    between atoms: C_7  and  C_8
REMARK    5  A    between atoms: C_8  and  O_9
REMARK    6  A    between atoms: O_9  and  C_10
REMARK                            x       y       z     vdW  Elec       q    Type
REMARK                         _______ _______ _______ _____ _____    ______ ____
ROOT
ATOM      1  C   UNL     1       5.199   4.220  18.286  0.00  0.00    +0.000 C 
ENDROOT
BRANCH   1   2
ATOM      2  C   UNL     1       4.259   4.939  19.262  0.00  0.00    +0.000 C 
BRANCH   2   5
ATOM      3  C   UNL     1       1.910   4.157  19.126  0.00  0.00    +0.000 C 
ATOM      4  O   UNL     1       1.660   4.910  18.188  0.00  0.00    +0.000 OA
ATOM      5  N   UNL     1       3.155   4.103  19.722  0.00  0.00    +0.000 N 
ATOM      6  H   UNL     1       3.299   3.549  20.558  0.00  0.00    +0.000 HD
BRANCH   3   7
ATOM      7  C   UNL     1       0.860   3.235  19.713  0.00  0.00    +0.000 C 
BRANCH   7   9
ATOM      8  N   UNL     1       1.664   2.505  22.274  0.00  0.00    +0.000 NA
ATOM      9  C   UNL     1       1.299   2.837  21.113  0.00  0.00    +0.000 C 
ENDBRANCH   7   9
ENDBRANCH   3   7
ENDBRANCH   2   5
ENDBRANCH   1   2
BRANCH   1  10
ATOM     10  O   UNL     1       4.631   4.267  16.972  0.00  0.00    +0.000 OA
BRANCH  10  11
ATOM     11  C   UNL     1       5.499   4.425  15.928  0.00  0.00    +0.000 A 
ATOM     12  C   UNL     1       6.576   5.286  16.142  0.00  0.00    +0.000 A 
ATOM     13  N   UNL     1       7.528   5.576  15.219  0.00  0.00    +0.000 NA
ATOM     14  C   UNL     1       7.399   4.971  14.016  0.00  0.00    +0.000 A 
ATOM     15  C   UNL     1       6.364   4.099  13.705  0.00  0.00    +0.000 A 
ATOM     16 CL   UNL     1       6.261   3.378  12.149  0.00  0.00    +0.000 Cl
ATOM     17  C   UNL     1       5.404   3.820  14.676  0.00  0.00    +0.000 A 
ENDBRANCH  10  11
ENDBRANCH   1  10
TORSDOF 6
ENDMDL
MODEL 3
REMARK VINA RESULT:      -5.7      2.902      6.159
REMARK  Name = 
REMARK  6 active torsions:
REMARK  status: ('A' for Active; 'I' for Inactive)
REMARK    1  A    between atoms: C_2  and  C_3
REMARK    2  A    between atoms: C_3  and  C_4
REMARK    3  A    between atoms: N_6  and  C_7
REMARK    4  A    between atoms: C_7  and  C_8
REMARK    5  A    between atoms: C_8  and  O_9
REMARK    6  A    between atoms: O_9  and  C_10
REMARK                            x       y       z     vdW  Elec       q    Type
REMARK                         _______ _______ _______ _____ _____    ______ ____
ROOT
ATOM      1  C   UNL     1       6.828   5.425  18.732  0.00  0.00    +0.000 C 
ENDROOT
BRANCH   1   2
ATOM      2  C   UNL     1       7.572   4.648  17.638  0.00  0.00    +0.000 C 
BRANCH   2   5
ATOM      3  C   UNL     1       6.799   4.575  15.283  0.00  0.00    +0.000 C 
ATOM      4  O   UNL     1       7.627   5.411  14.932  0.00  0.00    +0.000 OA
ATOM      5  N   UNL     1       6.692   4.141  16.590  0.00  0.00    +0.000 N 
ATOM      6  H   UNL     1       5.933   3.529  16.866  0.00  0.00    +0.000 HD
BRANCH   3   7
ATOM      7  C   UNL     1       5.815   3.963  14.306  0.00  0.00    +0.000 C 
BRANCH   7   9
ATOM      8  N   UNL     1       7.045   3.786  11.817  0.00  0.00    +0.000 NA
ATOM      9  C   UNL     1       6.487   3.866  12.946  0.00  0.00    +0.000 C 
ENDBRANCH   7   9
ENDBRANCH   3   7
ENDBRANCH   2   5
ENDBRANCH   1   2
BRANCH   1  10
ATOM     10  O   UNL     1       6.101   4.500  19.548  0.00  0.00    +0.000 OA
BRANCH  10  11
ATOM     11  C   UNL     1       4.749   4.431  19.352  0.00  0.00    +0.000 A 
ATOM     12  C   UNL     1       4.093   5.643  19.129  0.00  0.00    +0.000 A 
ATOM     13  N   UNL     1       2.757   5.771  18.929  0.00  0.00    +0.000 NA
ATOM     14  C   UNL     1       2.035   4.626  18.950  0.00  0.00    +0.000 A 
ATOM     15  C   UNL     1       2.595   3.373  19.163  0.00  0.00    +0.000 A 
ATOM     16 CL   UNL     1       1.612   1.965  19.187  0.00  0.00    +0.000 Cl
ATOM     17  C   UNL     1       3.971   3.275  19.363  0.00  0.00    +0.000 A 
ENDBRANCH  10  11
ENDBRANCH   1  10
TORSDOF 6
ENDMDL
MODEL 4
REMARK VINA RESULT:      -5.7      3.217      5.965
REMARK  Name = 
REMARK  6 active torsions:
REMARK  status: ('A' for Active; 'I' for Inactive)
REMARK    1  A    between atoms: C_2  and  C_3
REMARK    2  A    between atoms: C_3  and  C_4
REMARK    3  A    between atoms: N_6  and  C_7
REMARK    4  A    between atoms: C_7  and  C_8
REMARK    5  A    between atoms: C_8  and  O_9
REMARK    6  A    between atoms: O_9  and  C_10
REMARK                            x       y       z     vdW  Elec       q    Type
REMARK                         _______ _______ _______ _____ _____    ______ ____
ROOT
ATOM      1  C   UNL     1       4.333   3.600  16.952  0.00  0.00    +0.000 C 
ENDROOT
BRANCH   1   2
ATOM      2  C   UNL     1       5.617   4.045  16.239  0.00  0.00    +0.000 C 
BRANCH   2   5
ATOM      3  C   UNL     1       6.658   6.187  16.927  0.00  0.00    +0.000 C 
ATOM      4  O   UNL     1       6.058   6.816  16.060  0.00  0.00    +0.000 OA
ATOM      5  N   UNL     1       6.510   4.823  17.090  0.00  0.00    +0.000 N 
ATOM      6  H   UNL     1       7.096   4.320  17.745  0.00  0.00    +0.000 HD
BRANCH   3   7
ATOM      7  C   UNL     1       7.624   6.862  17.881  0.00  0.00    +0.000 C 
BRANCH   7   9
ATOM      8  N   UNL     1       7.842   5.292  20.167  0.00  0.00    +0.000 NA
ATOM      9  C   UNL     1       7.744   6.004  19.130  0.00  0.00    +0.000 C 
ENDBRANCH   7   9
ENDBRANCH   3   7
ENDBRANCH   2   5
ENDBRANCH   1   2
BRANCH   1  10
ATOM     10  O   UNL     1       3.482   4.738  17.133  0.00  0.00    +0.000 OA
BRANCH  10  11
ATOM     11  C   UNL     1       2.867   4.864  18.348  0.00  0.00    +0.000 A 
ATOM     12  C   UNL     1       2.727   6.163  18.839  0.00  0.00    +0.000 A 
ATOM     13  N   UNL     1       2.156   6.479  20.030  0.00  0.00    +0.000 NA
ATOM     14  C   UNL     1       1.698   5.444  20.769  0.00  0.00    +0.000 A 
ATOM     15  C   UNL     1       1.789   4.117  20.367  0.00  0.00    +0.000 A 
ATOM     16 CL   UNL     1       1.194   2.854  21.366  0.00  0.00    +0.000 Cl
ATOM     17  C   UNL     1       2.379   3.825  19.138  0.00  0.00    +0.000 A 
ENDBRANCH  10  11
ENDBRANCH   1  10
TORSDOF 6
ENDMDL
MODEL 5
REMARK VINA RESULT:      -5.6      1.440      1.529
REMARK  Name = 
REMARK  6 active torsions:
REMARK  status: ('A' for Active; 'I' for Inactive)
REMARK    1  A    between atoms: C_2  and  C_3
REMARK    2  A    between atoms: C_3  and  C_4
REMARK    3  A    between atoms: N_6  and  C_7
REMARK    4  A    between atoms: C_7  and  C_8
REMARK    5  A    between atoms: C_8  and  O_9
REMARK    6  A    between atoms: O_9  and  C_10
REMARK                            x       y       z     vdW  Elec       q    Type
REMARK                         _______ _______ _______ _____ _____    ______ ____
ROOT
ATOM      1  C   UNL     1       4.831   5.648  18.133  0.00  0.00    +0.000 C 
ENDROOT
BRANCH   1   2
ATOM      2  C   UNL     1       3.351   6.045  18.051  0.00  0.00    +0.000 C 
BRANCH   2   5
ATOM      3  C   UNL     1       2.019   4.655  19.614  0.00  0.00    +0.000 C 
ATOM      4  O   UNL     1       2.390   5.305  20.588  0.00  0.00    +0.000 OA
ATOM      5  N   UNL     1       2.440   4.940  18.329  0.00  0.00    +0.000 N 
ATOM      6  H   UNL     1       2.198   4.323  17.563  0.00  0.00    +0.000 HD
BRANCH   3   7
ATOM      7  C   UNL     1       1.077   3.475  19.750  0.00  0.00    +0.000 C 
BRANCH   7   9
ATOM      8  N   UNL     1       1.410   2.372  22.282  0.00  0.00    +0.000 NA
ATOM      9  C   UNL     1       1.259   2.873  21.133  0.00  0.00    +0.000 C 
ENDBRANCH   7   9
ENDBRANCH   3   7
ENDBRANCH   2   5
ENDBRANCH   1   2
BRANCH   1  10
ATOM     10  O   UNL     1       5.030   4.438  17.392  0.00  0.00    +0.000 OA
BRANCH  10  11
ATOM     11  C   UNL     1       5.723   4.539  16.218  0.00  0.00    +0.000 A 
ATOM     12  C   UNL     1       6.827   5.393  16.221  0.00  0.00    +0.000 A 
ATOM     13  N   UNL     1       7.623   5.629  15.147  0.00  0.00    +0.000 NA
ATOM     14  C   UNL     1       7.301   4.974  14.007  0.00  0.00    +0.000 A 
ATOM     15  C   UNL     1       6.223   4.104  13.903  0.00  0.00    +0.000 A 
ATOM     16 CL   UNL     1       5.870   3.318  12.418  0.00  0.00    +0.000 Cl
ATOM     17  C   UNL     1       5.427   3.882  15.025  0.00  0.00    +0.000 A 
ENDBRANCH  10  11
ENDBRANCH   1  10
TORSDOF 6
ENDMDL
MODEL 6
REMARK VINA RESULT:      -5.5      2.881      5.672
REMARK  Name = 
REMARK  6 active torsions:
REMARK  status: ('A' for Active; 'I' for Inactive)
REMARK    1  A    between atoms: C_2  and  C_3
REMARK    2  A    between atoms: C_3  and  C_4
REMARK    3  A    between atoms: N_6  and  C_7
REMARK    4  A    between atoms: C_7  and  C_8
REMARK    5  A    between atoms: C_8  and  O_9
REMARK    6  A    between atoms: O_9  and  C_10
REMARK                            x       y       z     vdW  Elec       q    Type
REMARK                         _______ _______ _______ _____ _____    ______ ____
ROOT
ATOM      1  C   UNL     1       5.916   3.688  15.795  0.00  0.00    +0.000 C 
ENDROOT
BRANCH   1   2
ATOM      2  C   UNL     1       6.872   4.817  15.389  0.00  0.00    +0.000 C 
BRANCH   2   5
ATOM      3  C   UNL     1       7.159   6.633  17.053  0.00  0.00    +0.000 C 
ATOM      4  O   UNL     1       6.206   7.264  16.603  0.00  0.00    +0.000 OA
ATOM      5  N   UNL     1       7.564   5.424  16.521  0.00  0.00    +0.000 N 
ATOM      6  H   UNL     1       8.414   4.980  16.848  0.00  0.00    +0.000 HD
BRANCH   3   7
ATOM      7  C   UNL     1       7.976   7.142  18.224  0.00  0.00    +0.000 C 
BRANCH   7   9
ATOM      8  N   UNL     1       7.803   5.286  20.288  0.00  0.00    +0.000 NA
ATOM      9  C   UNL     1       7.882   6.128  19.352  0.00  0.00    +0.000 C 
ENDBRANCH   7   9
ENDBRANCH   3   7
ENDBRANCH   2   5
ENDBRANCH   1   2
BRANCH   1  10
ATOM     10  O   UNL     1       4.599   4.227  15.955  0.00  0.00    +0.000 OA
BRANCH  10  11
ATOM     11  C   UNL     1       4.114   4.310  17.230  0.00  0.00    +0.000 A 
ATOM     12  C   UNL     1       4.160   3.138  17.987  0.00  0.00    +0.000 A 
ATOM     13  N   UNL     1       3.712   3.026  19.264  0.00  0.00    +0.000 NA
ATOM     14  C   UNL     1       3.192   4.146  19.816  0.00  0.00    +0.000 A 
ATOM     15  C   UNL     1       3.102   5.359  19.146  0.00  0.00    +0.000 A 
ATOM     16 CL   UNL     1       2.417   6.736  19.911  0.00  0.00    +0.000 Cl
ATOM     17  C   UNL     1       3.573   5.441  17.837  0.00  0.00    +0.000 A 
ENDBRANCH  10  11
ENDBRANCH   1  10
TORSDOF 6
ENDMDL
MODEL 7
REMARK VINA RESULT:      -5.5      3.161      6.569
REMARK  Name = 
REMARK  6 active torsions:
REMARK  status: ('A' for Active; 'I' for Inactive)
REMARK    1  A    between atoms: C_2  and  C_3
REMARK    2  A    between atoms: C_3  and  C_4
REMARK    3  A    between atoms: N_6  and  C_7
REMARK    4  A    between atoms: C_7  and  C_8
REMARK    5  A    between atoms: C_8  and  O_9
REMARK    6  A    between atoms: O_9  and  C_10
REMARK                            x       y       z     vdW  Elec       q    Type
REMARK                         _______ _______ _______ _____ _____    ______ ____
ROOT
ATOM      1  C   UNL     1       4.909   4.001  16.474  0.00  0.00    +0.000 C 
ENDROOT
BRANCH   1   2
ATOM      2  C   UNL     1       6.368   4.289  16.097  0.00  0.00    +0.000 C 
BRANCH   2   5
ATOM      3  C   UNL     1       7.156   6.340  17.247  0.00  0.00    +0.000 C 
ATOM      4  O   UNL     1       6.575   7.072  16.449  0.00  0.00    +0.000 OA
ATOM      5  N   UNL     1       7.116   4.962  17.154  0.00  0.00    +0.000 N 
ATOM      6  H   UNL     1       7.688   4.391  17.764  0.00  0.00    +0.000 HD
BRANCH   3   7
ATOM      7  C   UNL     1       7.976   6.897  18.393  0.00  0.00    +0.000 C 
BRANCH   7   9
ATOM      8  N   UNL     1       8.355   9.619  17.963  0.00  0.00    +0.000 NA
ATOM      9  C   UNL     1       8.183   8.384  18.158  0.00  0.00    +0.000 C 
ENDBRANCH   7   9
ENDBRANCH   3   7
ENDBRANCH   2   5
ENDBRANCH   1   2
BRANCH   1  10
ATOM     10  O   UNL     1       4.832   3.748  17.881  0.00  0.00    +0.000 OA
BRANCH  10  11
ATOM     11  C   UNL     1       3.595   3.474  18.395  0.00  0.00    +0.000 A 
ATOM     12  C   UNL     1       2.533   3.484  17.490  0.00  0.00    +0.000 A 
ATOM     13  N   UNL     1       1.237   3.250  17.819  0.00  0.00    +0.000 NA
ATOM     14  C   UNL     1       0.988   2.988  19.122  0.00  0.00    +0.000 A 
ATOM     15  C   UNL     1       1.975   2.954  20.098  0.00  0.00    +0.000 A 
ATOM     16 CL   UNL     1       1.580   2.626  21.737  0.00  0.00    +0.000 Cl
ATOM     17  C   UNL     1       3.297   3.198  19.728  0.00  0.00    +0.000 A 
ENDBRANCH  10  11
ENDBRANCH   1  10
TORSDOF 6
ENDMDL
MODEL 8
REMARK VINA RESULT:      -5.5      3.221      6.138
REMARK  Name = 
REMARK  6 active torsions:
REMARK  status: ('A' for Active; 'I' for Inactive)
REMARK    1  A    between atoms: C_2  and  C_3
REMARK    2  A    between atoms: C_3  and  C_4
REMARK    3  A    between atoms: N_6  and  C_7
REMARK    4  A    between atoms: C_7  and  C_8
REMARK    5  A    between atoms: C_8  and  O_9
REMARK    6  A    between atoms: O_9  and  C_10
REMARK                            x       y       z     vdW  Elec       q    Type
REMARK                         _______ _______ _______ _____ _____    ______ ____
ROOT
ATOM      1  C   UNL     1       4.490   4.881  16.424  0.00  0.00    +0.000 C 
ENDROOT
BRANCH   1   2
ATOM      2  C   UNL     1       4.877   6.363  16.335  0.00  0.00    +0.000 C 
BRANCH   2   5
ATOM      3  C   UNL     1       7.187   6.764  17.143  0.00  0.00    +0.000 C 
ATOM      4  O   UNL     1       7.677   6.402  16.076  0.00  0.00    +0.000 OA
ATOM      5  N   UNL     1       5.824   6.775  17.366  0.00  0.00    +0.000 N 
ATOM      6  H   UNL     1       5.458   6.980  18.288  0.00  0.00    +0.000 HD
BRANCH   3   7
ATOM      7  C   UNL     1       8.048   7.214  18.307  0.00  0.00    +0.000 C 
BRANCH   7   9
ATOM      8  N   UNL     1       7.914   5.278  20.300  0.00  0.00    +0.000 NA
ATOM      9  C   UNL     1       7.975   6.156  19.395  0.00  0.00    +0.000 C 
ENDBRANCH   7   9
ENDBRANCH   3   7
ENDBRANCH   2   5
ENDBRANCH   1   2
BRANCH   1  10
ATOM     10  O   UNL     1       4.676   4.430  17.770  0.00  0.00    +0.000 OA
BRANCH  10  11
ATOM     11  C   UNL     1       3.649   3.726  18.335  0.00  0.00    +0.000 A 
ATOM     12  C   UNL     1       2.814   3.035  17.455  0.00  0.00    +0.000 A 
ATOM     13  N   UNL     1       1.739   2.297  17.831  0.00  0.00    +0.000 NA
ATOM     14  C   UNL     1       1.484   2.242  19.158  0.00  0.00    +0.000 A 
ATOM     15  C   UNL     1       2.256   2.894  20.113  0.00  0.00    +0.000 A 
ATOM     16 CL   UNL     1       1.862   2.786  21.781  0.00  0.00    +0.000 Cl
ATOM     17  C   UNL     1       3.354   3.642  19.694  0.00  0.00    +0.000 A 
ENDBRANCH  10  11
ENDBRANCH   1  10
TORSDOF 6
ENDMDL
MODEL 9
REMARK VINA RESULT:      -5.5      3.577      6.490
REMARK  Name = 
REMARK  6 active torsions:
REMARK  status: ('A' for Active; 'I' for Inactive)
REMARK    1  A    between atoms: C_2  and  C_3
REMARK    2  A    between atoms: C_3  and  C_4
REMARK    3  A    between atoms: N_6  and  C_7
REMARK    4  A    between atoms: C_7  and  C_8
REMARK    5  A    between atoms: C_8  and  O_9
REMARK    6  A    between atoms: O_9  and  C_10
REMARK                            x       y       z     vdW  Elec       q    Type
REMARK                         _______ _______ _______ _____ _____    ______ ____
ROOT
ATOM      1  C   UNL     1       5.966   5.398  15.521  0.00  0.00    +0.000 C 
ENDROOT
BRANCH   1   2
ATOM      2  C   UNL     1       6.873   4.466  14.706  0.00  0.00    +0.000 C 
BRANCH   2   5
ATOM      3  C   UNL     1       6.327   3.460  12.507  0.00  0.00    +0.000 C 
ATOM      4  O   UNL     1       7.122   4.189  11.919  0.00  0.00    +0.000 OA
ATOM      5  N   UNL     1       6.133   3.524  13.873  0.00  0.00    +0.000 N 
ATOM      6  H   UNL     1       5.399   2.982  14.312  0.00  0.00    +0.000 HD
BRANCH   3   7
ATOM      7  C   UNL     1       5.485   2.436  11.771  0.00  0.00    +0.000 C 
BRANCH   7   9
ATOM      8  N   UNL     1       3.356   3.755  10.562  0.00  0.00    +0.000 NA
ATOM      9  C   UNL     1       4.322   3.156  11.111  0.00  0.00    +0.000 C 
ENDBRANCH   7   9
ENDBRANCH   3   7
ENDBRANCH   2   5
ENDBRANCH   1   2
BRANCH   1  10
ATOM     10  O   UNL     1       4.708   4.750  15.740  0.00  0.00    +0.000 OA
BRANCH  10  11
ATOM     11  C   UNL     1       4.505   4.190  16.970  0.00  0.00    +0.000 A 
ATOM     12  C   UNL     1       5.496   4.420  17.927  0.00  0.00    +0.000 A 
ATOM     13  N   UNL     1       5.473   3.934  19.194  0.00  0.00    +0.000 NA
ATOM     14  C   UNL     1       4.400   3.180  19.526  0.00  0.00    +0.000 A 
ATOM     15  C   UNL     1       3.363   2.895  18.647  0.00  0.00    +0.000 A 
ATOM     16 CL   UNL     1       2.039   1.918  19.140  0.00  0.00    +0.000 Cl
ATOM     17  C   UNL     1       3.416   3.410  17.354  0.00  0.00    +0.000 A 
ENDBRANCH  10  11
ENDBRANCH   1  10
TORSDOF 6
ENDMDL
