MODEL 1
REMARK VINA RESULT:      -7.6      0.000      0.000
REMARK  Name = 
REMARK  11 active torsions:
REMARK  status: ('A' for Active; 'I' for Inactive)
REMARK    1  A    between atoms: C_1  and  C_2
REMARK    2  A    between atoms: C_2  and  C_3
REMARK    3  A    between atoms: C_2  and  C_4
REMARK    4  A    between atoms: C_4  and  O_5
REMARK    5  A    between atoms: O_5  and  C_6
REMARK    6  A    between atoms: C_9  and  C_10
REMARK    7  A    between atoms: C_16  and  S_17
REMARK    8  A    between atoms: S_17  and  N_20
REMARK    9  A    between atoms: N_20  and  C_21
REMARK   10  A    between atoms: N_20  and  C_22
REMARK   11  A    between atoms: C_22  and  C_23
REMARK                            x       y       z     vdW  Elec       q    Type
REMARK                         _______ _______ _______ _____ _____    ______ ____
ROOT
ATOM      1  C   UNL     1       0.961   8.622  20.530  0.00  0.00    +0.000 C 
ATOM      2  O   UNL     1       1.501   8.949  19.477  0.00  0.00    +0.000 OA
ATOM      3  N   UNL     1       1.055   7.373  21.107  0.00  0.00    +0.000 N 
ATOM      4  C   UNL     1       1.846   6.340  20.641  0.00  0.00    +0.000 A 
ATOM      5  N   UNL     1       1.757   5.107  21.103  0.00  0.00    +0.000 NA
ATOM      6  N   UNL     1       2.696   4.256  20.529  0.00  0.00    +0.000 NA
ATOM      7  C   UNL     1       3.466   4.906  19.683  0.00  0.00    +0.000 A 
ATOM      8  S   UNL     1       3.086   6.558  19.484  0.00  0.00    +0.000 S 
ATOM      9  H   UNL     1       0.454   7.108  21.870  0.00  0.00    +0.000 HD
ENDROOT
BRANCH   1  13
ATOM     10  C   UNL     1      -1.463  11.764  22.277  0.00  0.00    +0.000 A 
ATOM     11  C   UNL     1      -1.124  11.741  20.928  0.00  0.00    +0.000 A 
ATOM     12  C   UNL     1      -0.352  10.702  20.405  0.00  0.00    +0.000 A 
ATOM     13  C   UNL     1       0.107   9.652  21.213  0.00  0.00    +0.000 A 
ATOM     14  C   UNL     1      -0.233   9.668  22.572  0.00  0.00    +0.000 A 
ATOM     15  C   UNL     1      -1.017  10.721  23.096  0.00  0.00    +0.000 A 
BRANCH  10  16
ATOM     16  O   UNL     1      -2.208  12.755  22.878  0.00  0.00    +0.000 OA
BRANCH  16  17
ATOM     17  C   UNL     1      -3.318  12.279  23.651  0.00  0.00    +0.000 C 
BRANCH  17  19
ATOM     18  C   UNL     1      -4.984  12.878  21.894  0.00  0.00    +0.000 C 
ATOM     19  C   UNL     1      -4.607  13.059  23.368  0.00  0.00    +0.000 C 
ATOM     20  C   UNL     1      -5.753  12.605  24.268  0.00  0.00    +0.000 C 
ENDBRANCH  17  19
ENDBRANCH  16  17
ENDBRANCH  10  16
ENDBRANCH   1  13
BRANCH   7  21
ATOM     21  S   UNL     1       4.912   4.297  18.871  0.00  0.00    +0.000 S 
ATOM     22  O   UNL     1       5.891   5.364  18.931  0.00  0.00    +0.000 OA
ATOM     23  O   UNL     1       5.162   3.021  19.514  0.00  0.00    +0.000 OA
BRANCH  21  24
ATOM     24  N   UNL     1       4.583   3.983  17.204  0.00  0.00    +0.000 NA
ATOM     25  C   UNL     1       3.222   3.434  16.973  0.00  0.00    +0.000 C 
BRANCH  24  26
ATOM     26  C   UNL     1       4.895   5.176  16.366  0.00  0.00    +0.000 C 
BRANCH  26  27
ATOM     27  C   UNL     1       5.655   4.833  15.130  0.00  0.00    +0.000 A 
ATOM     28  C   UNL     1       5.416   4.005  14.051  0.00  0.00    +0.000 A 
ATOM     29  C   UNL     1       6.570   4.073  13.232  0.00  0.00    +0.000 A 
ATOM     30  C   UNL     1       7.438   4.933  13.860  0.00  0.00    +0.000 A 
ATOM     31  O   UNL     1       6.889   5.405  15.008  0.00  0.00    +0.000 OA
ENDBRANCH  26  27
ENDBRANCH  24  26
ENDBRANCH  21  24
ENDBRANCH   7  21
TORSDOF 8
ENDMDL
MODEL 2
REMARK VINA RESULT:      -7.4      3.291     10.783
REMARK  Name = 
REMARK  11 active torsions:
REMARK  status: ('A' for Active; 'I' for Inactive)
REMARK    1  A    between atoms: C_1  and  C_2
REMARK    2  A    between atoms: C_2  and  C_3
REMARK    3  A    between atoms: C_2  and  C_4
REMARK    4  A    between atoms: C_4  and  O_5
REMARK    5  A    between atoms: O_5  and  C_6
REMARK    6  A    between atoms: C_9  and  C_10
REMARK    7  A    between atoms: C_16  and  S_17
REMARK    8  A    between atoms: S_17  and  N_20
REMARK    9  A    between atoms: N_20  and  C_21
REMARK   10  A    between atoms: N_20  and  C_22
REMARK   11  A    between atoms: C_22  and  C_23
REMARK                            x       y       z     vdW  Elec       q    Type
REMARK                         _______ _______ _______ _____ _____    ______ ____
ROOT
ATOM      1  C   UNL     1       1.652   8.661  19.512  0.00  0.00    +0.000 C 
ATOM      2  O   UNL     1       1.320   9.555  18.739  0.00  0.00    +0.000 OA
ATOM      3  N   UNL     1       1.369   8.642  20.861  0.00  0.00    +0.000 N 
ATOM      4  C   UNL     1       0.587   9.572  21.522  0.00  0.00    +0.000 A 
ATOM      5  N   UNL     1       0.503   9.629  22.837  0.00  0.00    +0.000 NA
ATOM      6  N   UNL     1      -0.392  10.602  23.269  0.00  0.00    +0.000 NA
ATOM      7  C   UNL     1      -0.959  11.208  22.249  0.00  0.00    +0.000 A 
ATOM      8  S   UNL     1      -0.425  10.688  20.713  0.00  0.00    +0.000 S 
ATOM      9  H   UNL     1       1.813   7.980  21.475  0.00  0.00    +0.000 HD
ENDROOT
BRANCH   1  13
ATOM     10  C   UNL     1       3.960   5.260  18.128  0.00  0.00    +0.000 A 
ATOM     11  C   UNL     1       3.171   5.215  19.273  0.00  0.00    +0.000 A 
ATOM     12  C   UNL     1       2.434   6.330  19.674  0.00  0.00    +0.000 A 
ATOM     13  C   UNL     1       2.460   7.528  18.945  0.00  0.00    +0.000 A 
ATOM     14  C   UNL     1       3.250   7.579  17.789  0.00  0.00    +0.000 A 
ATOM     15  C   UNL     1       3.993   6.447  17.386  0.00  0.00    +0.000 A 
BRANCH  10  16
ATOM     16  O   UNL     1       4.728   4.213  17.666  0.00  0.00    +0.000 OA
BRANCH  16  17
ATOM     17  C   UNL     1       4.758   4.081  16.239  0.00  0.00    +0.000 C 
BRANCH  17  19
ATOM     18  C   UNL     1       6.188   4.058  14.196  0.00  0.00    +0.000 C 
ATOM     19  C   UNL     1       6.166   3.796  15.706  0.00  0.00    +0.000 C 
ATOM     20  C   UNL     1       7.221   4.647  16.408  0.00  0.00    +0.000 C 
ENDBRANCH  17  19
ENDBRANCH  16  17
ENDBRANCH  10  16
ENDBRANCH   1  13
BRANCH   7  21
ATOM     21  S   UNL     1      -2.295  12.363  22.300  0.00  0.00    +0.000 S 
ATOM     22  O   UNL     1      -2.861  12.390  20.967  0.00  0.00    +0.000 OA
ATOM     23  O   UNL     1      -3.087  11.930  23.436  0.00  0.00    +0.000 OA
BRANCH  21  24
ATOM     24  N   UNL     1      -1.708  13.950  22.652  0.00  0.00    +0.000 NA
ATOM     25  C   UNL     1      -2.003  14.385  24.041  0.00  0.00    +0.000 C 
BRANCH  24  26
ATOM     26  C   UNL     1      -0.270  14.081  22.279  0.00  0.00    +0.000 C 
BRANCH  26  27
ATOM     27  C   UNL     1      -0.074  14.702  20.938  0.00  0.00    +0.000 A 
ATOM     28  C   UNL     1      -0.928  15.136  19.944  0.00  0.00    +0.000 A 
ATOM     29  C   UNL     1      -0.107  15.578  18.876  0.00  0.00    +0.000 A 
ATOM     30  C   UNL     1       1.191  15.387  19.285  0.00  0.00    +0.000 A 
ATOM     31  O   UNL     1       1.222  14.863  20.536  0.00  0.00    +0.000 OA
ENDBRANCH  26  27
ENDBRANCH  24  26
ENDBRANCH  21  24
ENDBRANCH   7  21
TORSDOF 8
ENDMDL
MODEL 3
REMARK VINA RESULT:      -7.4      1.244      1.826
REMARK  Name = 
REMARK  11 active torsions:
REMARK  status: ('A' for Active; 'I' for Inactive)
REMARK    1  A    between atoms: C_1  and  C_2
REMARK    2  A    between atoms: C_2  and  C_3
REMARK    3  A    between atoms: C_2  and  C_4
REMARK    4  A    between atoms: C_4  and  O_5
REMARK    5  A    between atoms: O_5  and  C_6
REMARK    6  A    between atoms: C_9  and  C_10
REMARK    7  A    between atoms: C_16  and  S_17
REMARK    8  A    between atoms: S_17  and  N_20
REMARK    9  A    between atoms: N_20  and  C_21
REMARK   10  A    between atoms: N_20  and  C_22
REMARK   11  A    between atoms: C_22  and  C_23
REMARK                            x       y       z     vdW  Elec       q    Type
REMARK                         _______ _______ _______ _____ _____    ______ ____
ROOT
ATOM      1  C   UNL     1       1.236   8.488  20.407  0.00  0.00    +0.000 C 
ATOM      2  O   UNL     1       1.595   8.691  19.251  0.00  0.00    +0.000 OA
ATOM      3  N   UNL     1       1.364   7.287  21.070  0.00  0.00    +0.000 N 
ATOM      4  C   UNL     1       2.003   6.167  20.571  0.00  0.00    +0.000 A 
ATOM      5  N   UNL     1       1.932   4.985  21.152  0.00  0.00    +0.000 NA
ATOM      6  N   UNL     1       2.706   4.028  20.504  0.00  0.00    +0.000 NA
ATOM      7  C   UNL     1       3.345   4.552  19.481  0.00  0.00    +0.000 A 
ATOM      8  S   UNL     1       3.025   6.205  19.201  0.00  0.00    +0.000 S 
ATOM      9  H   UNL     1       0.897   7.126  21.947  0.00  0.00    +0.000 HD
ENDROOT
BRANCH   1  13
ATOM     10  C   UNL     1      -0.820  11.581  22.645  0.00  0.00    +0.000 A 
ATOM     11  C   UNL     1      -0.788  10.253  23.057  0.00  0.00    +0.000 A 
ATOM     12  C   UNL     1      -0.102   9.293  22.312  0.00  0.00    +0.000 A 
ATOM     13  C   UNL     1       0.574   9.626  21.130  0.00  0.00    +0.000 A 
ATOM     14  C   UNL     1       0.548  10.963  20.710  0.00  0.00    +0.000 A 
ATOM     15  C   UNL     1      -0.146  11.932  21.469  0.00  0.00    +0.000 A 
BRANCH  10  16
ATOM     16  O   UNL     1      -1.482  12.591  23.310  0.00  0.00    +0.000 OA
BRANCH  16  17
ATOM     17  C   UNL     1      -2.142  13.534  22.457  0.00  0.00    +0.000 C 
BRANCH  17  19
ATOM     18  C   UNL     1      -4.500  14.317  22.671  0.00  0.00    +0.000 C 
ATOM     19  C   UNL     1      -3.607  13.166  22.197  0.00  0.00    +0.000 C 
ATOM     20  C   UNL     1      -3.863  12.867  20.722  0.00  0.00    +0.000 C 
ENDBRANCH  17  19
ENDBRANCH  16  17
ENDBRANCH  10  16
ENDBRANCH   1  13
BRANCH   7  21
ATOM     21  S   UNL     1       4.588   3.782  18.489  0.00  0.00    +0.000 S 
ATOM     22  O   UNL     1       5.171   2.737  19.308  0.00  0.00    +0.000 OA
ATOM     23  O   UNL     1       3.899   3.460  17.254  0.00  0.00    +0.000 OA
BRANCH  21  24
ATOM     24  N   UNL     1       5.841   4.908  18.107  0.00  0.00    +0.000 NA
ATOM     25  C   UNL     1       6.309   5.680  19.285  0.00  0.00    +0.000 C 
BRANCH  24  26
ATOM     26  C   UNL     1       6.944   4.241  17.354  0.00  0.00    +0.000 C 
BRANCH  26  27
ATOM     27  C   UNL     1       6.803   4.382  15.877  0.00  0.00    +0.000 A 
ATOM     28  C   UNL     1       6.017   3.768  14.922  0.00  0.00    +0.000 A 
ATOM     29  C   UNL     1       6.408   4.312  13.673  0.00  0.00    +0.000 A 
ATOM     30  C   UNL     1       7.404   5.219  13.943  0.00  0.00    +0.000 A 
ATOM     31  O   UNL     1       7.646   5.274  15.277  0.00  0.00    +0.000 OA
ENDBRANCH  26  27
ENDBRANCH  24  26
ENDBRANCH  21  24
ENDBRANCH   7  21
TORSDOF 8
ENDMDL
MODEL 4
REMARK VINA RESULT:      -7.4      3.321     12.022
REMARK  Name = 
REMARK  11 active torsions:
REMARK  status: ('A' for Active; 'I' for Inactive)
REMARK    1  A    between atoms: C_1  and  C_2
REMARK    2  A    between atoms: C_2  and  C_3
REMARK    3  A    between atoms: C_2  and  C_4
REMARK    4  A    between atoms: C_4  and  O_5
REMARK    5  A    between atoms: O_5  and  C_6
REMARK    6  A    between atoms: C_9  and  C_10
REMARK    7  A    between atoms: C_16  and  S_17
REMARK    8  A    between atoms: S_17  and  N_20
REMARK    9  A    between atoms: N_20  and  C_21
REMARK   10  A    between atoms: N_20  and  C_22
REMARK   11  A    between atoms: C_22  and  C_23
REMARK                            x       y       z     vdW  Elec       q    Type
REMARK                         _______ _______ _______ _____ _____    ______ ____
ROOT
ATOM      1  C   UNL     1       1.511   8.726  19.668  0.00  0.00    +0.000 C 
ATOM      2  O   UNL     1       1.125   9.584  18.880  0.00  0.00    +0.000 OA
ATOM      3  N   UNL     1       1.276   8.743  21.026  0.00  0.00    +0.000 N 
ATOM      4  C   UNL     1       0.491   9.670  21.686  0.00  0.00    +0.000 A 
ATOM      5  N   UNL     1       0.452   9.768  23.001  0.00  0.00    +0.000 NA
ATOM      6  N   UNL     1      -0.456  10.727  23.435  0.00  0.00    +0.000 NA
ATOM      7  C   UNL     1      -1.078  11.283  22.417  0.00  0.00    +0.000 A 
ATOM      8  S   UNL     1      -0.583  10.729  20.880  0.00  0.00    +0.000 S 
ATOM      9  H   UNL     1       1.763   8.114  21.645  0.00  0.00    +0.000 HD
ENDROOT
BRANCH   1  13
ATOM     10  C   UNL     1       3.876   5.355  18.310  0.00  0.00    +0.000 A 
ATOM     11  C   UNL     1       3.152   5.333  19.497  0.00  0.00    +0.000 A 
ATOM     12  C   UNL     1       2.393   6.436  19.889  0.00  0.00    +0.000 A 
ATOM     13  C   UNL     1       2.333   7.599  19.108  0.00  0.00    +0.000 A 
ATOM     14  C   UNL     1       3.058   7.627  17.909  0.00  0.00    +0.000 A 
ATOM     15  C   UNL     1       3.823   6.506  17.516  0.00  0.00    +0.000 A 
BRANCH  10  16
ATOM     16  O   UNL     1       4.660   4.317  17.853  0.00  0.00    +0.000 OA
BRANCH  16  17
ATOM     17  C   UNL     1       4.682   4.170  16.428  0.00  0.00    +0.000 C 
BRANCH  17  19
ATOM     18  C   UNL     1       6.159   4.367  14.429  0.00  0.00    +0.000 C 
ATOM     19  C   UNL     1       6.090   3.900  15.886  0.00  0.00    +0.000 C 
ATOM     20  C   UNL     1       7.161   4.599  16.719  0.00  0.00    +0.000 C 
ENDBRANCH  17  19
ENDBRANCH  16  17
ENDBRANCH  10  16
ENDBRANCH   1  13
BRANCH   7  21
ATOM     21  S   UNL     1      -2.445  12.399  22.481  0.00  0.00    +0.000 S 
ATOM     22  O   UNL     1      -2.963  12.486  21.130  0.00  0.00    +0.000 OA
ATOM     23  O   UNL     1      -3.266  11.884  23.560  0.00  0.00    +0.000 OA
BRANCH  21  24
ATOM     24  N   UNL     1      -1.916  13.979  22.941  0.00  0.00    +0.000 NA
ATOM     25  C   UNL     1      -0.487  14.230  22.621  0.00  0.00    +0.000 C 
BRANCH  24  26
ATOM     26  C   UNL     1      -2.838  15.024  22.410  0.00  0.00    +0.000 C 
BRANCH  26  27
ATOM     27  C   UNL     1      -3.422  15.879  23.483  0.00  0.00    +0.000 A 
ATOM     28  C   UNL     1      -4.594  15.842  24.212  0.00  0.00    +0.000 A 
ATOM     29  C   UNL     1      -4.583  16.989  25.045  0.00  0.00    +0.000 A 
ATOM     30  C   UNL     1      -3.410  17.651  24.772  0.00  0.00    +0.000 A 
ATOM     31  O   UNL     1      -2.696  16.982  23.832  0.00  0.00    +0.000 OA
ENDBRANCH  26  27
ENDBRANCH  24  26
ENDBRANCH  21  24
ENDBRANCH   7  21
TORSDOF 8
ENDMDL
MODEL 5
REMARK VINA RESULT:      -7.4      6.812      9.617
REMARK  Name = 
REMARK  11 active torsions:
REMARK  status: ('A' for Active; 'I' for Inactive)
REMARK    1  A    between atoms: C_1  and  C_2
REMARK    2  A    between atoms: C_2  and  C_3
REMARK    3  A    between atoms: C_2  and  C_4
REMARK    4  A    between atoms: C_4  and  O_5
REMARK    5  A    between atoms: O_5  and  C_6
REMARK    6  A    between atoms: C_9  and  C_10
REMARK    7  A    between atoms: C_16  and  S_17
REMARK    8  A    between atoms: S_17  and  N_20
REMARK    9  A    between atoms: N_20  and  C_21
REMARK   10  A    between atoms: N_20  and  C_22
REMARK   11  A    between atoms: C_22  and  C_23
REMARK                            x       y       z     vdW  Elec       q    Type
REMARK                         _______ _______ _______ _____ _____    ______ ____
ROOT
ATOM      1  C   UNL     1       8.379   9.327  18.213  0.00  0.00    +0.000 C 
ATOM      2  O   UNL     1       7.402   9.633  17.535  0.00  0.00    +0.000 OA
ATOM      3  N   UNL     1       8.618   8.069  18.724  0.00  0.00    +0.000 N 
ATOM      4  C   UNL     1       7.852   6.947  18.467  0.00  0.00    +0.000 A 
ATOM      5  N   UNL     1       7.999   5.815  19.128  0.00  0.00    +0.000 NA
ATOM      6  N   UNL     1       7.162   4.811  18.652  0.00  0.00    +0.000 NA
ATOM      7  C   UNL     1       6.448   5.237  17.632  0.00  0.00    +0.000 A 
ATOM      8  S   UNL     1       6.695   6.872  17.211  0.00  0.00    +0.000 S 
ATOM      9  H   UNL     1       9.335   7.918  19.414  0.00  0.00    +0.000 HD
ENDROOT
BRANCH   1  13
ATOM     10  C   UNL     1      11.112  12.471  19.417  0.00  0.00    +0.000 A 
ATOM     11  C   UNL     1      10.466  11.647  20.333  0.00  0.00    +0.000 A 
ATOM     12  C   UNL     1       9.604  10.638  19.900  0.00  0.00    +0.000 A 
ATOM     13  C   UNL     1       9.359  10.419  18.538  0.00  0.00    +0.000 A 
ATOM     14  C   UNL     1      10.008  11.243  17.609  0.00  0.00    +0.000 A 
ATOM     15  C   UNL     1      10.882  12.262  18.052  0.00  0.00    +0.000 A 
BRANCH  10  16
ATOM     16  O   UNL     1      11.967  13.497  19.755  0.00  0.00    +0.000 OA
BRANCH  16  17
ATOM     17  C   UNL     1      11.321  14.748  20.021  0.00  0.00    +0.000 C 
BRANCH  17  19
ATOM     18  C   UNL     1       9.858  16.275  18.700  0.00  0.00    +0.000 C 
ATOM     19  C   UNL     1      11.253  15.648  18.783  0.00  0.00    +0.000 C 
ATOM     20  C   UNL     1      12.323  16.737  18.815  0.00  0.00    +0.000 C 
ENDBRANCH  17  19
ENDBRANCH  16  17
ENDBRANCH  10  16
ENDBRANCH   1  13
BRANCH   7  21
ATOM     21  S   UNL     1       5.402   4.272  16.584  0.00  0.00    +0.000 S 
ATOM     22  O   UNL     1       4.593   5.215  15.839  0.00  0.00    +0.000 OA
ATOM     23  O   UNL     1       6.320   3.379  15.903  0.00  0.00    +0.000 OA
BRANCH  21  24
ATOM     24  N   UNL     1       4.334   3.296  17.528  0.00  0.00    +0.000 NA
ATOM     25  C   UNL     1       4.687   3.274  18.971  0.00  0.00    +0.000 C 
BRANCH  24  26
ATOM     26  C   UNL     1       2.911   3.662  17.269  0.00  0.00    +0.000 C 
BRANCH  26  27
ATOM     27  C   UNL     1       2.079   3.662  18.506  0.00  0.00    +0.000 A 
ATOM     28  C   UNL     1       1.819   4.593  19.491  0.00  0.00    +0.000 A 
ATOM     29  C   UNL     1       0.985   3.950  20.439  0.00  0.00    +0.000 A 
ATOM     30  C   UNL     1       0.789   2.672  19.975  0.00  0.00    +0.000 A 
ATOM     31  O   UNL     1       1.442   2.490  18.799  0.00  0.00    +0.000 OA
ENDBRANCH  26  27
ENDBRANCH  24  26
ENDBRANCH  21  24
ENDBRANCH   7  21
TORSDOF 8
ENDMDL
MODEL 6
REMARK VINA RESULT:      -7.3      6.827      9.546
REMARK  Name = 
REMARK  11 active torsions:
REMARK  status: ('A' for Active; 'I' for Inactive)
REMARK    1  A    between atoms: C_1  and  C_2
REMARK    2  A    between atoms: C_2  and  C_3
REMARK    3  A    between atoms: C_2  and  C_4
REMARK    4  A    between atoms: C_4  and  O_5
REMARK    5  A    between atoms: O_5  and  C_6
REMARK    6  A    between atoms: C_9  and  C_10
REMARK    7  A    between atoms: C_16  and  S_17
REMARK    8  A    between atoms: S_17  and  N_20
REMARK    9  A    between atoms: N_20  and  C_21
REMARK   10  A    between atoms: N_20  and  C_22
REMARK   11  A    between atoms: C_22  and  C_23
REMARK                            x       y       z     vdW  Elec       q    Type
REMARK                         _______ _______ _______ _____ _____    ______ ____
ROOT
ATOM      1  C   UNL     1       8.510   9.471  18.345  0.00  0.00    +0.000 C 
ATOM      2  O   UNL     1       7.504   9.818  17.733  0.00  0.00    +0.000 OA
ATOM      3  N   UNL     1       8.765   8.187  18.776  0.00  0.00    +0.000 N 
ATOM      4  C   UNL     1       7.978   7.085  18.498  0.00  0.00    +0.000 A 
ATOM      5  N   UNL     1       8.149   5.918  19.090  0.00  0.00    +0.000 NA
ATOM      6  N   UNL     1       7.282   4.945  18.604  0.00  0.00    +0.000 NA
ATOM      7  C   UNL     1       6.522   5.428  17.644  0.00  0.00    +0.000 A 
ATOM      8  S   UNL     1       6.761   7.082  17.298  0.00  0.00    +0.000 S 
ATOM      9  H   UNL     1       9.514   7.995  19.421  0.00  0.00    +0.000 HD
ENDROOT
BRANCH   1  13
ATOM     10  C   UNL     1      11.293  12.564  19.567  0.00  0.00    +0.000 A 
ATOM     11  C   UNL     1      10.556  11.817  20.478  0.00  0.00    +0.000 A 
ATOM     12  C   UNL     1       9.681  10.821  20.041  0.00  0.00    +0.000 A 
ATOM     13  C   UNL     1       9.514  10.539  18.678  0.00  0.00    +0.000 A 
ATOM     14  C   UNL     1      10.255  11.287  17.754  0.00  0.00    +0.000 A 
ATOM     15  C   UNL     1      11.142  12.293  18.202  0.00  0.00    +0.000 A 
BRANCH  10  16
ATOM     16  O   UNL     1      12.168  13.572  19.908  0.00  0.00    +0.000 OA
BRANCH  16  17
ATOM     17  C   UNL     1      11.686  14.896  19.642  0.00  0.00    +0.000 C 
BRANCH  17  19
ATOM     18  C   UNL     1      11.644  16.900  21.125  0.00  0.00    +0.000 C 
ATOM     19  C   UNL     1      11.010  15.531  20.862  0.00  0.00    +0.000 C 
ATOM     20  C   UNL     1       9.503  15.673  20.664  0.00  0.00    +0.000 C 
ENDBRANCH  17  19
ENDBRANCH  16  17
ENDBRANCH  10  16
ENDBRANCH   1  13
BRANCH   7  21
ATOM     21  S   UNL     1       5.419   4.526  16.599  0.00  0.00    +0.000 S 
ATOM     22  O   UNL     1       4.790   5.502  15.733  0.00  0.00    +0.000 OA
ATOM     23  O   UNL     1       6.246   3.468  16.050  0.00  0.00    +0.000 OA
BRANCH  21  24
ATOM     24  N   UNL     1       4.175   3.778  17.536  0.00  0.00    +0.000 NA
ATOM     25  C   UNL     1       3.976   2.344  17.202  0.00  0.00    +0.000 C 
BRANCH  24  26
ATOM     26  C   UNL     1       4.382   4.027  18.992  0.00  0.00    +0.000 C 
BRANCH  26  27
ATOM     27  C   UNL     1       3.131   3.877  19.789  0.00  0.00    +0.000 A 
ATOM     28  C   UNL     1       2.473   2.803  20.355  0.00  0.00    +0.000 A 
ATOM     29  C   UNL     1       1.288   3.321  20.935  0.00  0.00    +0.000 A 
ATOM     30  C   UNL     1       1.298   4.673  20.687  0.00  0.00    +0.000 A 
ATOM     31  O   UNL     1       2.414   5.021  19.999  0.00  0.00    +0.000 OA
ENDBRANCH  26  27
ENDBRANCH  24  26
ENDBRANCH  21  24
ENDBRANCH   7  21
TORSDOF 8
ENDMDL
MODEL 7
REMARK VINA RESULT:      -7.3      0.933      1.101
REMARK  Name = 
REMARK  11 active torsions:
REMARK  status: ('A' for Active; 'I' for Inactive)
REMARK    1  A    between atoms: C_1  and  C_2
REMARK    2  A    between atoms: C_2  and  C_3
REMARK    3  A    between atoms: C_2  and  C_4
REMARK    4  A    between atoms: C_4  and  O_5
REMARK    5  A    between atoms: O_5  and  C_6
REMARK    6  A    between atoms: C_9  and  C_10
REMARK    7  A    between atoms: C_16  and  S_17
REMARK    8  A    between atoms: S_17  and  N_20
REMARK    9  A    between atoms: N_20  and  C_21
REMARK   10  A    between atoms: N_20  and  C_22
REMARK   11  A    between atoms: C_22  and  C_23
REMARK                            x       y       z     vdW  Elec       q    Type
REMARK                         _______ _______ _______ _____ _____    ______ ____
ROOT
ATOM      1  C   UNL     1       1.241   8.220  20.702  0.00  0.00    +0.000 C 
ATOM      2  O   UNL     1       1.863   8.498  19.680  0.00  0.00    +0.000 OA
ATOM      3  N   UNL     1       1.163   6.961  21.257  0.00  0.00    +0.000 N 
ATOM      4  C   UNL     1       1.850   5.849  20.805  0.00  0.00    +0.000 A 
ATOM      5  N   UNL     1       1.597   4.629  21.238  0.00  0.00    +0.000 NA
ATOM      6  N   UNL     1       2.456   3.683  20.690  0.00  0.00    +0.000 NA
ATOM      7  C   UNL     1       3.334   4.251  19.891  0.00  0.00    +0.000 A 
ATOM      8  S   UNL     1       3.158   5.938  19.709  0.00  0.00    +0.000 S 
ATOM      9  H   UNL     1       0.501   6.757  21.987  0.00  0.00    +0.000 HD
ENDROOT
BRANCH   1  13
ATOM     10  C   UNL     1      -0.809  11.614  22.457  0.00  0.00    +0.000 A 
ATOM     11  C   UNL     1      -0.108  11.699  21.259  0.00  0.00    +0.000 A 
ATOM     12  C   UNL     1       0.526  10.577  20.723  0.00  0.00    +0.000 A 
ATOM     13  C   UNL     1       0.481   9.333  21.367  0.00  0.00    +0.000 A 
ATOM     14  C   UNL     1      -0.226   9.239  22.573  0.00  0.00    +0.000 A 
ATOM     15  C   UNL     1      -0.868  10.378  23.110  0.00  0.00    +0.000 A 
BRANCH  10  16
ATOM     16  O   UNL     1      -1.453  12.671  23.063  0.00  0.00    +0.000 OA
BRANCH  16  17
ATOM     17  C   UNL     1      -2.880  12.656  22.928  0.00  0.00    +0.000 C 
BRANCH  17  19
ATOM     18  C   UNL     1      -4.971  13.630  23.874  0.00  0.00    +0.000 C 
ATOM     19  C   UNL     1      -3.532  13.941  23.450  0.00  0.00    +0.000 C 
ATOM     20  C   UNL     1      -2.752  14.539  24.617  0.00  0.00    +0.000 C 
ENDBRANCH  17  19
ENDBRANCH  16  17
ENDBRANCH  10  16
ENDBRANCH   1  13
BRANCH   7  21
ATOM     21  S   UNL     1       4.736   3.489  19.131  0.00  0.00    +0.000 S 
ATOM     22  O   UNL     1       5.790   4.483  19.134  0.00  0.00    +0.000 OA
ATOM     23  O   UNL     1       4.890   2.241  19.854  0.00  0.00    +0.000 OA
BRANCH  21  24
ATOM     24  N   UNL     1       4.392   3.096  17.484  0.00  0.00    +0.000 NA
ATOM     25  C   UNL     1       3.250   2.157  17.336  0.00  0.00    +0.000 C 
BRANCH  24  26
ATOM     26  C   UNL     1       4.259   4.331  16.659  0.00  0.00    +0.000 C 
BRANCH  26  27
ATOM     27  C   UNL     1       5.307   4.438  15.604  0.00  0.00    +0.000 A 
ATOM     28  C   UNL     1       5.371   4.088  14.270  0.00  0.00    +0.000 A 
ATOM     29  C   UNL     1       6.684   4.400  13.837  0.00  0.00    +0.000 A 
ATOM     30  C   UNL     1       7.336   4.917  14.930  0.00  0.00    +0.000 A 
ATOM     31  O   UNL     1       6.508   4.952  16.004  0.00  0.00    +0.000 OA
ENDBRANCH  26  27
ENDBRANCH  24  26
ENDBRANCH  21  24
ENDBRANCH   7  21
TORSDOF 8
ENDMDL
MODEL 8
REMARK VINA RESULT:      -7.3      3.463     12.093
REMARK  Name = 
REMARK  11 active torsions:
REMARK  status: ('A' for Active; 'I' for Inactive)
REMARK    1  A    between atoms: C_1  and  C_2
REMARK    2  A    between atoms: C_2  and  C_3
REMARK    3  A    between atoms: C_2  and  C_4
REMARK    4  A    between atoms: C_4  and  O_5
REMARK    5  A    between atoms: O_5  and  C_6
REMARK    6  A    between atoms: C_9  and  C_10
REMARK    7  A    between atoms: C_16  and  S_17
REMARK    8  A    between atoms: S_17  and  N_20
REMARK    9  A    between atoms: N_20  and  C_21
REMARK   10  A    between atoms: N_20  and  C_22
REMARK   11  A    between atoms: C_22  and  C_23
REMARK                            x       y       z     vdW  Elec       q    Type
REMARK                         _______ _______ _______ _____ _____    ______ ____
ROOT
ATOM      1  C   UNL     1       1.217   9.304  19.566  0.00  0.00    +0.000 C 
ATOM      2  O   UNL     1       0.831  10.107  18.722  0.00  0.00    +0.000 OA
ATOM      3  N   UNL     1       0.972   9.406  20.919  0.00  0.00    +0.000 N 
ATOM      4  C   UNL     1       0.175  10.367  21.512  0.00  0.00    +0.000 A 
ATOM      5  N   UNL     1       0.125  10.548  22.818  0.00  0.00    +0.000 NA
ATOM      6  N   UNL     1      -0.792  11.527  23.184  0.00  0.00    +0.000 NA
ATOM      7  C   UNL     1      -1.410  12.012  22.128  0.00  0.00    +0.000 A 
ATOM      8  S   UNL     1      -0.900  11.365  20.633  0.00  0.00    +0.000 S 
ATOM      9  H   UNL     1       1.458   8.822  21.580  0.00  0.00    +0.000 HD
ENDROOT
BRANCH   1  13
ATOM     10  C   UNL     1       3.620   5.874  18.444  0.00  0.00    +0.000 A 
ATOM     11  C   UNL     1       2.901   5.929  19.633  0.00  0.00    +0.000 A 
ATOM     12  C   UNL     1       2.130   7.048  19.948  0.00  0.00    +0.000 A 
ATOM     13  C   UNL     1       2.051   8.150  19.085  0.00  0.00    +0.000 A 
ATOM     14  C   UNL     1       2.770   8.101  17.884  0.00  0.00    +0.000 A 
ATOM     15  C   UNL     1       3.548   6.963  17.569  0.00  0.00    +0.000 A 
BRANCH  10  16
ATOM     16  O   UNL     1       4.415   4.816  18.059  0.00  0.00    +0.000 OA
BRANCH  16  17
ATOM     17  C   UNL     1       5.625   4.675  18.815  0.00  0.00    +0.000 C 
BRANCH  17  19
ATOM     18  C   UNL     1       7.816   5.776  19.270  0.00  0.00    +0.000 C 
ATOM     19  C   UNL     1       6.806   5.413  18.176  0.00  0.00    +0.000 C 
ATOM     20  C   UNL     1       7.477   4.576  17.090  0.00  0.00    +0.000 C 
ENDBRANCH  17  19
ENDBRANCH  16  17
ENDBRANCH  10  16
ENDBRANCH   1  13
BRANCH   7  21
ATOM     21  S   UNL     1      -2.786  13.120  22.111  0.00  0.00    +0.000 S 
ATOM     22  O   UNL     1      -2.418  14.238  22.956  0.00  0.00    +0.000 OA
ATOM     23  O   UNL     1      -3.062  13.313  20.700  0.00  0.00    +0.000 OA
BRANCH  21  24
ATOM     24  N   UNL     1      -4.176  12.370  22.813  0.00  0.00    +0.000 NA
ATOM     25  C   UNL     1      -4.277  12.588  24.279  0.00  0.00    +0.000 C 
BRANCH  24  26
ATOM     26  C   UNL     1      -5.414  12.740  22.068  0.00  0.00    +0.000 C 
BRANCH  26  27
ATOM     27  C   UNL     1      -6.148  13.877  22.695  0.00  0.00    +0.000 A 
ATOM     28  C   UNL     1      -5.910  15.232  22.807  0.00  0.00    +0.000 A 
ATOM     29  C   UNL     1      -6.970  15.761  23.584  0.00  0.00    +0.000 A 
ATOM     30  C   UNL     1      -7.785  14.700  23.897  0.00  0.00    +0.000 A 
ATOM     31  O   UNL     1      -7.299  13.554  23.356  0.00  0.00    +0.000 OA
ENDBRANCH  26  27
ENDBRANCH  24  26
ENDBRANCH  21  24
ENDBRANCH   7  21
TORSDOF 8
ENDMDL
MODEL 9
REMARK VINA RESULT:      -7.2      3.242     12.083
REMARK  Name = 
REMARK  11 active torsions:
REMARK  status: ('A' for Active; 'I' for Inactive)
REMARK    1  A    between atoms: C_1  and  C_2
REMARK    2  A    between atoms: C_2  and  C_3
REMARK    3  A    between atoms: C_2  and  C_4
REMARK    4  A    between atoms: C_4  and  O_5
REMARK    5  A    between atoms: O_5  and  C_6
REMARK    6  A    between atoms: C_9  and  C_10
REMARK    7  A    between atoms: C_16  and  S_17
REMARK    8  A    between atoms: S_17  and  N_20
REMARK    9  A    between atoms: N_20  and  C_21
REMARK   10  A    between atoms: N_20  and  C_22
REMARK   11  A    between atoms: C_22  and  C_23
REMARK                            x       y       z     vdW  Elec       q    Type
REMARK                         _______ _______ _______ _____ _____    ______ ____
ROOT
ATOM      1  C   UNL     1       1.516   8.600  19.842  0.00  0.00    +0.000 C 
ATOM      2  O   UNL     1       1.176   9.422  18.996  0.00  0.00    +0.000 OA
ATOM      3  N   UNL     1       1.238   8.698  21.189  0.00  0.00    +0.000 N 
ATOM      4  C   UNL     1       0.456   9.679  21.770  0.00  0.00    +0.000 A 
ATOM      5  N   UNL     1       0.378   9.850  23.076  0.00  0.00    +0.000 NA
ATOM      6  N   UNL     1      -0.518  10.854  23.427  0.00  0.00    +0.000 NA
ATOM      7  C   UNL     1      -1.093  11.366  22.360  0.00  0.00    +0.000 A 
ATOM      8  S   UNL     1      -0.564  10.716  20.873  0.00  0.00    +0.000 S 
ATOM      9  H   UNL     1       1.689   8.094  21.857  0.00  0.00    +0.000 HD
ENDROOT
BRANCH   1  13
ATOM     10  C   UNL     1       3.874   5.336  18.234  0.00  0.00    +0.000 A 
ATOM     11  C   UNL     1       3.804   6.583  17.622  0.00  0.00    +0.000 A 
ATOM     12  C   UNL     1       3.043   7.610  18.183  0.00  0.00    +0.000 A 
ATOM     13  C   UNL     1       2.325   7.425  19.373  0.00  0.00    +0.000 A 
ATOM     14  C   UNL     1       2.393   6.171  19.996  0.00  0.00    +0.000 A 
ATOM     15  C   UNL     1       3.167   5.136  19.425  0.00  0.00    +0.000 A 
BRANCH  10  16
ATOM     16  O   UNL     1       4.589   4.264  17.745  0.00  0.00    +0.000 OA
BRANCH  16  17
ATOM     17  C   UNL     1       4.676   4.209  16.315  0.00  0.00    +0.000 C 
BRANCH  17  19
ATOM     18  C   UNL     1       6.266   4.638  14.442  0.00  0.00    +0.000 C 
ATOM     19  C   UNL     1       6.111   3.991  15.822  0.00  0.00    +0.000 C 
ATOM     20  C   UNL     1       7.138   4.564  16.796  0.00  0.00    +0.000 C 
ENDBRANCH  17  19
ENDBRANCH  16  17
ENDBRANCH  10  16
ENDBRANCH   1  13
BRANCH   7  21
ATOM     21  S   UNL     1      -2.434  12.516  22.318  0.00  0.00    +0.000 S 
ATOM     22  O   UNL     1      -2.724  12.752  20.917  0.00  0.00    +0.000 OA
ATOM     23  O   UNL     1      -3.428  11.927  23.194  0.00  0.00    +0.000 OA
BRANCH  21  24
ATOM     24  N   UNL     1      -1.958  14.025  23.014  0.00  0.00    +0.000 NA
ATOM     25  C   UNL     1      -2.186  15.181  22.110  0.00  0.00    +0.000 C 
BRANCH  24  26
ATOM     26  C   UNL     1      -2.561  14.199  24.368  0.00  0.00    +0.000 C 
BRANCH  26  27
ATOM     27  C   UNL     1      -3.621  15.246  24.398  0.00  0.00    +0.000 A 
ATOM     28  C   UNL     1      -3.690  16.533  24.893  0.00  0.00    +0.000 A 
ATOM     29  C   UNL     1      -5.013  16.983  24.656  0.00  0.00    +0.000 A 
ATOM     30  C   UNL     1      -5.666  15.946  24.035  0.00  0.00    +0.000 A 
ATOM     31  O   UNL     1      -4.829  14.891  23.867  0.00  0.00    +0.000 OA
ENDBRANCH  26  27
ENDBRANCH  24  26
ENDBRANCH  21  24
ENDBRANCH   7  21
TORSDOF 8
ENDMDL
