MODEL 1
REMARK VINA RESULT:      -7.1      0.000      0.000
REMARK  Name = 
REMARK  6 active torsions:
REMARK  status: ('A' for Active; 'I' for Inactive)
REMARK    1  A    between atoms: C_1  and  C_2
REMARK    2  A    between atoms: C_4  and  N_5
REMARK    3  A    between atoms: C_6  and  C_7
REMARK    4  A    between atoms: C_12  and  O_13
REMARK    5  A    between atoms: C_14  and  C_15
REMARK    6  A    between atoms: C_17  and  C_18
REMARK                            x       y       z     vdW  Elec       q    Type
REMARK                         _______ _______ _______ _____ _____    ______ ____
ROOT
ATOM      1  N   UNL     1       4.743   4.506  17.306  0.00  0.00    +0.000 NA
ATOM      2  C   UNL     1       3.805   3.614  17.417  0.00  0.00    +0.000 C 
ENDROOT
BRANCH   1   6
ATOM      3  C   UNL     1       5.599   3.302  12.734  0.00  0.00    +0.000 C 
ATOM      4  C   UNL     1       5.850   4.048  13.986  0.00  0.00    +0.000 A 
ATOM      5  O   UNL     1       5.010   3.797  15.021  0.00  0.00    +0.000 OA
ATOM      6  C   UNL     1       5.393   4.556  16.107  0.00  0.00    +0.000 A 
ATOM      7  C   UNL     1       6.497   5.300  15.711  0.00  0.00    +0.000 A 
ATOM      8  C   UNL     1       6.799   4.980  14.349  0.00  0.00    +0.000 A 
ATOM      9  C   UNL     1       7.888   5.505  13.486  0.00  0.00    +0.000 C 
BRANCH   7  10
ATOM     10  C   UNL     1       7.208   6.218  16.544  0.00  0.00    +0.000 C 
ATOM     11  N   UNL     1       7.747   7.023  17.183  0.00  0.00    +0.000 NA
ENDBRANCH   7  10
ENDBRANCH   1   6
BRANCH   2  12
ATOM     12  C   UNL     1       3.021   3.426  18.664  0.00  0.00    +0.000 A 
ATOM     13  C   UNL     1       1.685   3.833  18.734  0.00  0.00    +0.000 A 
ATOM     14  C   UNL     1       0.959   3.658  19.918  0.00  0.00    +0.000 A 
ATOM     15  C   UNL     1       1.564   3.075  21.032  0.00  0.00    +0.000 A 
ATOM     16  C   UNL     1       2.897   2.665  20.969  0.00  0.00    +0.000 A 
ATOM     17  C   UNL     1       3.622   2.843  19.789  0.00  0.00    +0.000 A 
BRANCH  17  18
ATOM     18  O   UNL     1       4.931   2.447  19.741  0.00  0.00    +0.000 OA
ATOM     19  H   UNL     1       5.080   1.938  18.927  0.00  0.00    +0.000 HD
ENDBRANCH  17  18
ENDBRANCH   2  12
TORSDOF 4
ENDMDL
MODEL 2
REMARK VINA RESULT:      -7.0      1.698      6.367
REMARK  Name = 
REMARK  6 active torsions:
REMARK  status: ('A' for Active; 'I' for Inactive)
REMARK    1  A    between atoms: C_1  and  C_2
REMARK    2  A    between atoms: C_4  and  N_5
REMARK    3  A    between atoms: C_6  and  C_7
REMARK    4  A    between atoms: C_12  and  O_13
REMARK    5  A    between atoms: C_14  and  C_15
REMARK    6  A    between atoms: C_17  and  C_18
REMARK                            x       y       z     vdW  Elec       q    Type
REMARK                         _______ _______ _______ _____ _____    ______ ____
ROOT
ATOM      1  N   UNL     1       4.523   4.574  16.251  0.00  0.00    +0.000 NA
ATOM      2  C   UNL     1       5.306   3.726  15.654  0.00  0.00    +0.000 C 
ENDROOT
BRANCH   1   6
ATOM      3  C   UNL     1       0.929   2.472  18.649  0.00  0.00    +0.000 C 
ATOM      4  C   UNL     1       2.235   3.156  18.534  0.00  0.00    +0.000 A 
ATOM      5  O   UNL     1       2.645   3.474  17.280  0.00  0.00    +0.000 OA
ATOM      6  C   UNL     1       3.863   4.117  17.355  0.00  0.00    +0.000 A 
ATOM      7  C   UNL     1       4.206   4.180  18.700  0.00  0.00    +0.000 A 
ATOM      8  C   UNL     1       3.165   3.566  19.465  0.00  0.00    +0.000 A 
ATOM      9  C   UNL     1       3.066   3.395  20.937  0.00  0.00    +0.000 C 
BRANCH   7  10
ATOM     10  C   UNL     1       5.399   4.776  19.214  0.00  0.00    +0.000 C 
ATOM     11  N   UNL     1       6.401   5.187  19.631  0.00  0.00    +0.000 NA
ENDBRANCH   7  10
ENDBRANCH   1   6
BRANCH   2  12
ATOM     12  C   UNL     1       6.076   4.069  14.432  0.00  0.00    +0.000 A 
ATOM     13  C   UNL     1       5.791   3.449  13.213  0.00  0.00    +0.000 A 
ATOM     14  C   UNL     1       6.530   3.774  12.070  0.00  0.00    +0.000 A 
ATOM     15  C   UNL     1       7.554   4.720  12.142  0.00  0.00    +0.000 A 
ATOM     16  C   UNL     1       7.843   5.345  13.355  0.00  0.00    +0.000 A 
ATOM     17  C   UNL     1       7.107   5.018  14.497  0.00  0.00    +0.000 A 
BRANCH  17  18
ATOM     18  O   UNL     1       7.406   5.629  15.683  0.00  0.00    +0.000 OA
ATOM     19  H   UNL     1       7.906   6.444  15.505  0.00  0.00    +0.000 HD
ENDBRANCH  17  18
ENDBRANCH   2  12
TORSDOF 4
ENDMDL
MODEL 3
REMARK VINA RESULT:      -7.0      1.995      6.482
REMARK  Name = 
REMARK  6 active torsions:
REMARK  status: ('A' for Active; 'I' for Inactive)
REMARK    1  A    between atoms: C_1  and  C_2
REMARK    2  A    between atoms: C_4  and  N_5
REMARK    3  A    between atoms: C_6  and  C_7
REMARK    4  A    between atoms: C_12  and  O_13
REMARK    5  A    between atoms: C_14  and  C_15
REMARK    6  A    between atoms: C_17  and  C_18
REMARK                            x       y       z     vdW  Elec       q    Type
REMARK                         _______ _______ _______ _____ _____    ______ ____
ROOT
ATOM      1  N   UNL     1       4.760   5.216  16.441  0.00  0.00    +0.000 NA
ATOM      2  C   UNL     1       5.184   4.162  15.812  0.00  0.00    +0.000 C 
ENDROOT
BRANCH   1   6
ATOM      3  C   UNL     1       3.286   2.653  20.229  0.00  0.00    +0.000 C 
ATOM      4  C   UNL     1       3.366   3.869  19.391  0.00  0.00    +0.000 A 
ATOM      5  O   UNL     1       4.141   3.791  18.280  0.00  0.00    +0.000 OA
ATOM      6  C   UNL     1       4.090   4.995  17.610  0.00  0.00    +0.000 A 
ATOM      7  C   UNL     1       3.264   5.834  18.347  0.00  0.00    +0.000 A 
ATOM      8  C   UNL     1       2.793   5.119  19.494  0.00  0.00    +0.000 A 
ATOM      9  C   UNL     1       1.882   5.580  20.573  0.00  0.00    +0.000 C 
BRANCH   7  10
ATOM     10  C   UNL     1       2.940   7.181  17.996  0.00  0.00    +0.000 C 
ATOM     11  N   UNL     1       2.620   8.273  17.766  0.00  0.00    +0.000 NA
ENDBRANCH   7  10
ENDBRANCH   1   6
BRANCH   2  12
ATOM     12  C   UNL     1       5.913   4.239  14.520  0.00  0.00    +0.000 A 
ATOM     13  C   UNL     1       5.466   3.524  13.406  0.00  0.00    +0.000 A 
ATOM     14  C   UNL     1       6.166   3.598  12.197  0.00  0.00    +0.000 A 
ATOM     15  C   UNL     1       7.314   4.387  12.097  0.00  0.00    +0.000 A 
ATOM     16  C   UNL     1       7.765   5.104  13.205  0.00  0.00    +0.000 A 
ATOM     17  C   UNL     1       7.067   5.028  14.413  0.00  0.00    +0.000 A 
BRANCH  17  18
ATOM     18  O   UNL     1       7.525   5.729  15.495  0.00  0.00    +0.000 OA
ATOM     19  H   UNL     1       7.562   5.137  16.265  0.00  0.00    +0.000 HD
ENDBRANCH  17  18
ENDBRANCH   2  12
TORSDOF 4
ENDMDL
MODEL 4
REMARK VINA RESULT:      -7.0      1.181      1.259
REMARK  Name = 
REMARK  6 active torsions:
REMARK  status: ('A' for Active; 'I' for Inactive)
REMARK    1  A    between atoms: C_1  and  C_2
REMARK    2  A    between atoms: C_4  and  N_5
REMARK    3  A    between atoms: C_6  and  C_7
REMARK    4  A    between atoms: C_12  and  O_13
REMARK    5  A    between atoms: C_14  and  C_15
REMARK    6  A    between atoms: C_17  and  C_18
REMARK                            x       y       z     vdW  Elec       q    Type
REMARK                         _______ _______ _______ _____ _____    ______ ____
ROOT
ATOM      1  N   UNL     1       4.788   3.770  17.006  0.00  0.00    +0.000 NA
ATOM      2  C   UNL     1       3.622   4.328  17.133  0.00  0.00    +0.000 C 
ENDROOT
BRANCH   1   6
ATOM      3  C   UNL     1       5.859   3.315  12.345  0.00  0.00    +0.000 C 
ATOM      4  C   UNL     1       6.021   3.882  13.701  0.00  0.00    +0.000 A 
ATOM      5  O   UNL     1       5.170   3.426  14.655  0.00  0.00    +0.000 OA
ATOM      6  C   UNL     1       5.468   4.039  15.853  0.00  0.00    +0.000 A 
ATOM      7  C   UNL     1       6.529   4.903  15.614  0.00  0.00    +0.000 A 
ATOM      8  C   UNL     1       6.891   4.808  14.233  0.00  0.00    +0.000 A 
ATOM      9  C   UNL     1       7.966   5.525  13.499  0.00  0.00    +0.000 C 
BRANCH   7  10
ATOM     10  C   UNL     1       7.149   5.732  16.599  0.00  0.00    +0.000 C 
ATOM     11  N   UNL     1       7.581   6.417  17.431  0.00  0.00    +0.000 NA
ENDBRANCH   7  10
ENDBRANCH   1   6
BRANCH   2  12
ATOM     12  C   UNL     1       2.757   4.117  18.321  0.00  0.00    +0.000 A 
ATOM     13  C   UNL     1       2.525   5.155  19.227  0.00  0.00    +0.000 A 
ATOM     14  C   UNL     1       1.714   4.941  20.347  0.00  0.00    +0.000 A 
ATOM     15  C   UNL     1       1.132   3.691  20.565  0.00  0.00    +0.000 A 
ATOM     16  C   UNL     1       1.358   2.650  19.663  0.00  0.00    +0.000 A 
ATOM     17  C   UNL     1       2.169   2.863  18.546  0.00  0.00    +0.000 A 
BRANCH  17  18
ATOM     18  O   UNL     1       2.392   1.832  17.675  0.00  0.00    +0.000 OA
ATOM     19  H   UNL     1       2.144   0.995  18.102  0.00  0.00    +0.000 HD
ENDBRANCH  17  18
ENDBRANCH   2  12
TORSDOF 4
ENDMDL
MODEL 5
REMARK VINA RESULT:      -6.9      1.100      1.100
REMARK  Name = 
REMARK  6 active torsions:
REMARK  status: ('A' for Active; 'I' for Inactive)
REMARK    1  A    between atoms: C_1  and  C_2
REMARK    2  A    between atoms: C_4  and  N_5
REMARK    3  A    between atoms: C_6  and  C_7
REMARK    4  A    between atoms: C_12  and  O_13
REMARK    5  A    between atoms: C_14  and  C_15
REMARK    6  A    between atoms: C_17  and  C_18
REMARK                            x       y       z     vdW  Elec       q    Type
REMARK                         _______ _______ _______ _____ _____    ______ ____
ROOT
ATOM      1  N   UNL     1       4.866   4.038  17.264  0.00  0.00    +0.000 NA
ATOM      2  C   UNL     1       3.586   4.256  17.270  0.00  0.00    +0.000 C 
ENDROOT
BRANCH   1   6
ATOM      3  C   UNL     1       5.791   3.334  12.602  0.00  0.00    +0.000 C 
ATOM      4  C   UNL     1       5.996   3.971  13.921  0.00  0.00    +0.000 A 
ATOM      5  O   UNL     1       5.174   3.570  14.923  0.00  0.00    +0.000 OA
ATOM      6  C   UNL     1       5.511   4.244  16.078  0.00  0.00    +0.000 A 
ATOM      7  C   UNL     1       6.566   5.089  15.761  0.00  0.00    +0.000 A 
ATOM      8  C   UNL     1       6.885   4.920  14.376  0.00  0.00    +0.000 A 
ATOM      9  C   UNL     1       7.938   5.592  13.573  0.00  0.00    +0.000 C 
BRANCH   7  10
ATOM     10  C   UNL     1       7.219   5.966  16.681  0.00  0.00    +0.000 C 
ATOM     11  N   UNL     1       7.733   6.738  17.379  0.00  0.00    +0.000 NA
ENDBRANCH   7  10
ENDBRANCH   1   6
BRANCH   2  12
ATOM     12  C   UNL     1       2.745   4.060  18.479  0.00  0.00    +0.000 A 
ATOM     13  C   UNL     1       1.635   3.212  18.445  0.00  0.00    +0.000 A 
ATOM     14  C   UNL     1       0.846   3.042  19.587  0.00  0.00    +0.000 A 
ATOM     15  C   UNL     1       1.164   3.717  20.767  0.00  0.00    +0.000 A 
ATOM     16  C   UNL     1       2.272   4.565  20.809  0.00  0.00    +0.000 A 
ATOM     17  C   UNL     1       3.058   4.736  19.667  0.00  0.00    +0.000 A 
BRANCH  17  18
ATOM     18  O   UNL     1       4.135   5.578  19.718  0.00  0.00    +0.000 OA
ATOM     19  H   UNL     1       4.826   5.246  19.120  0.00  0.00    +0.000 HD
ENDBRANCH  17  18
ENDBRANCH   2  12
TORSDOF 4
ENDMDL
MODEL 6
REMARK VINA RESULT:      -6.9      1.141      1.610
REMARK  Name = 
REMARK  6 active torsions:
REMARK  status: ('A' for Active; 'I' for Inactive)
REMARK    1  A    between atoms: C_1  and  C_2
REMARK    2  A    between atoms: C_4  and  N_5
REMARK    3  A    between atoms: C_6  and  C_7
REMARK    4  A    between atoms: C_12  and  O_13
REMARK    5  A    between atoms: C_14  and  C_15
REMARK    6  A    between atoms: C_17  and  C_18
REMARK                            x       y       z     vdW  Elec       q    Type
REMARK                         _______ _______ _______ _____ _____    ______ ____
ROOT
ATOM      1  N   UNL     1       4.401   4.598  16.858  0.00  0.00    +0.000 NA
ATOM      2  C   UNL     1       4.044   3.443  17.331  0.00  0.00    +0.000 C 
ENDROOT
BRANCH   1   6
ATOM      3  C   UNL     1       5.691   3.255  12.429  0.00  0.00    +0.000 C 
ATOM      4  C   UNL     1       5.851   4.002  13.695  0.00  0.00    +0.000 A 
ATOM      5  O   UNL     1       4.878   3.832  14.626  0.00  0.00    +0.000 OA
ATOM      6  C   UNL     1       5.189   4.579  15.743  0.00  0.00    +0.000 A 
ATOM      7  C   UNL     1       6.386   5.231  15.474  0.00  0.00    +0.000 A 
ATOM      8  C   UNL     1       6.819   4.865  14.160  0.00  0.00    +0.000 A 
ATOM      9  C   UNL     1       8.038   5.292  13.427  0.00  0.00    +0.000 C 
BRANCH   7  10
ATOM     10  C   UNL     1       7.063   6.108  16.377  0.00  0.00    +0.000 C 
ATOM     11  N   UNL     1       7.575   6.880  17.075  0.00  0.00    +0.000 NA
ENDBRANCH   7  10
ENDBRANCH   1   6
BRANCH   2  12
ATOM     12  C   UNL     1       3.203   3.300  18.547  0.00  0.00    +0.000 A 
ATOM     13  C   UNL     1       3.752   2.828  19.742  0.00  0.00    +0.000 A 
ATOM     14  C   UNL     1       2.948   2.690  20.878  0.00  0.00    +0.000 A 
ATOM     15  C   UNL     1       1.594   3.024  20.825  0.00  0.00    +0.000 A 
ATOM     16  C   UNL     1       1.038   3.498  19.636  0.00  0.00    +0.000 A 
ATOM     17  C   UNL     1       1.841   3.633  18.501  0.00  0.00    +0.000 A 
BRANCH  17  18
ATOM     18  O   UNL     1       1.284   4.090  17.337  0.00  0.00    +0.000 OA
ATOM     19  H   UNL     1       0.330   3.901  17.346  0.00  0.00    +0.000 HD
ENDBRANCH  17  18
ENDBRANCH   2  12
TORSDOF 4
ENDMDL
MODEL 7
REMARK VINA RESULT:      -6.6      1.951      6.706
REMARK  Name = 
REMARK  6 active torsions:
REMARK  status: ('A' for Active; 'I' for Inactive)
REMARK    1  A    between atoms: C_1  and  C_2
REMARK    2  A    between atoms: C_4  and  N_5
REMARK    3  A    between atoms: C_6  and  C_7
REMARK    4  A    between atoms: C_12  and  O_13
REMARK    5  A    between atoms: C_14  and  C_15
REMARK    6  A    between atoms: C_17  and  C_18
REMARK                            x       y       z     vdW  Elec       q    Type
REMARK                         _______ _______ _______ _____ _____    ______ ____
ROOT
ATOM      1  N   UNL     1       5.130   4.178  16.769  0.00  0.00    +0.000 NA
ATOM      2  C   UNL     1       4.807   4.622  15.592  0.00  0.00    +0.000 C 
ENDROOT
BRANCH   1   6
ATOM      3  C   UNL     1       2.466   6.953  19.648  0.00  0.00    +0.000 C 
ATOM      4  C   UNL     1       2.989   5.662  19.150  0.00  0.00    +0.000 A 
ATOM      5  O   UNL     1       3.848   5.719  18.101  0.00  0.00    +0.000 OA
ATOM      6  C   UNL     1       4.250   4.440  17.779  0.00  0.00    +0.000 A 
ATOM      7  C   UNL     1       3.604   3.579  18.657  0.00  0.00    +0.000 A 
ATOM      8  C   UNL     1       2.791   4.355  19.543  0.00  0.00    +0.000 A 
ATOM      9  C   UNL     1       1.921   3.896  20.655  0.00  0.00    +0.000 C 
BRANCH   7  10
ATOM     10  C   UNL     1       3.749   2.157  18.665  0.00  0.00    +0.000 C 
ATOM     11  N   UNL     1       3.788   0.997  18.657  0.00  0.00    +0.000 NA
ENDBRANCH   7  10
ENDBRANCH   1   6
BRANCH   2  12
ATOM     12  C   UNL     1       5.670   4.432  14.399  0.00  0.00    +0.000 A 
ATOM     13  C   UNL     1       5.239   3.649  13.324  0.00  0.00    +0.000 A 
ATOM     14  C   UNL     1       6.065   3.471  12.209  0.00  0.00    +0.000 A 
ATOM     15  C   UNL     1       7.322   4.075  12.163  0.00  0.00    +0.000 A 
ATOM     16  C   UNL     1       7.759   4.860  13.231  0.00  0.00    +0.000 A 
ATOM     17  C   UNL     1       6.936   5.035  14.345  0.00  0.00    +0.000 A 
BRANCH  17  18
ATOM     18  O   UNL     1       7.379   5.798  15.391  0.00  0.00    +0.000 OA
ATOM     19  H   UNL     1       6.989   6.687  15.325  0.00  0.00    +0.000 HD
ENDBRANCH  17  18
ENDBRANCH   2  12
TORSDOF 4
ENDMDL
MODEL 8
REMARK VINA RESULT:      -6.5      5.066      8.063
REMARK  Name = 
REMARK  6 active torsions:
REMARK  status: ('A' for Active; 'I' for Inactive)
REMARK    1  A    between atoms: C_1  and  C_2
REMARK    2  A    between atoms: C_4  and  N_5
REMARK    3  A    between atoms: C_6  and  C_7
REMARK    4  A    between atoms: C_12  and  O_13
REMARK    5  A    between atoms: C_14  and  C_15
REMARK    6  A    between atoms: C_17  and  C_18
REMARK                            x       y       z     vdW  Elec       q    Type
REMARK                         _______ _______ _______ _____ _____    ______ ____
ROOT
ATOM      1  N   UNL     1       8.735   8.334  18.580  0.00  0.00    +0.000 NA
ATOM      2  C   UNL     1       8.547   9.590  18.306  0.00  0.00    +0.000 C 
ENDROOT
BRANCH   1   6
ATOM      3  C   UNL     1       5.143   6.818  15.772  0.00  0.00    +0.000 C 
ATOM      4  C   UNL     1       6.099   6.701  16.895  0.00  0.00    +0.000 A 
ATOM      5  O   UNL     1       6.969   7.729  17.061  0.00  0.00    +0.000 OA
ATOM      6  C   UNL     1       7.769   7.469  18.153  0.00  0.00    +0.000 A 
ATOM      7  C   UNL     1       7.377   6.236  18.659  0.00  0.00    +0.000 A 
ATOM      8  C   UNL     1       6.303   5.735  17.856  0.00  0.00    +0.000 A 
ATOM      9  C   UNL     1       5.545   4.466  17.999  0.00  0.00    +0.000 C 
BRANCH   7  10
ATOM     10  C   UNL     1       7.953   5.597  19.800  0.00  0.00    +0.000 C 
ATOM     11  N   UNL     1       8.422   5.149  20.762  0.00  0.00    +0.000 NA
ENDBRANCH   7  10
ENDBRANCH   1   6
BRANCH   2  12
ATOM     12  C   UNL     1       9.499  10.652  18.718  0.00  0.00    +0.000 A 
ATOM     13  C   UNL     1      10.197  11.394  17.762  0.00  0.00    +0.000 A 
ATOM     14  C   UNL     1      11.098  12.387  18.164  0.00  0.00    +0.000 A 
ATOM     15  C   UNL     1      11.302  12.642  19.521  0.00  0.00    +0.000 A 
ATOM     16  C   UNL     1      10.608  11.905  20.482  0.00  0.00    +0.000 A 
ATOM     17  C   UNL     1       9.711  10.913  20.080  0.00  0.00    +0.000 A 
BRANCH  17  18
ATOM     18  O   UNL     1       9.043  10.190  21.031  0.00  0.00    +0.000 OA
ATOM     19  H   UNL     1       8.826  10.772  21.779  0.00  0.00    +0.000 HD
ENDBRANCH  17  18
ENDBRANCH   2  12
TORSDOF 4
ENDMDL
MODEL 9
REMARK VINA RESULT:      -6.3      4.967      8.079
REMARK  Name = 
REMARK  6 active torsions:
REMARK  status: ('A' for Active; 'I' for Inactive)
REMARK    1  A    between atoms: C_1  and  C_2
REMARK    2  A    between atoms: C_4  and  N_5
REMARK    3  A    between atoms: C_6  and  C_7
REMARK    4  A    between atoms: C_12  and  O_13
REMARK    5  A    between atoms: C_14  and  C_15
REMARK    6  A    between atoms: C_17  and  C_18
REMARK                            x       y       z     vdW  Elec       q    Type
REMARK                         _______ _______ _______ _____ _____    ______ ____
ROOT
ATOM      1  N   UNL     1       8.498   8.443  18.281  0.00  0.00    +0.000 NA
ATOM      2  C   UNL     1       8.182   9.674  18.014  0.00  0.00    +0.000 C 
ENDROOT
BRANCH   1   6
ATOM      3  C   UNL     1       5.131   6.508  15.452  0.00  0.00    +0.000 C 
ATOM      4  C   UNL     1       6.047   6.528  16.613  0.00  0.00    +0.000 A 
ATOM      5  O   UNL     1       6.838   7.623  16.743  0.00  0.00    +0.000 OA
ATOM      6  C   UNL     1       7.610   7.487  17.878  0.00  0.00    +0.000 A 
ATOM      7  C   UNL     1       7.282   6.264  18.448  0.00  0.00    +0.000 A 
ATOM      8  C   UNL     1       6.277   5.640  17.642  0.00  0.00    +0.000 A 
ATOM      9  C   UNL     1       5.602   4.332  17.840  0.00  0.00    +0.000 C 
BRANCH   7  10
ATOM     10  C   UNL     1       7.855   5.738  19.647  0.00  0.00    +0.000 C 
ATOM     11  N   UNL     1       8.260   5.259  20.623  0.00  0.00    +0.000 NA
ENDBRANCH   7  10
ENDBRANCH   1   6
BRANCH   2  12
ATOM     12  C   UNL     1       9.036  10.824  18.404  0.00  0.00    +0.000 A 
ATOM     13  C   UNL     1      10.092  10.655  19.305  0.00  0.00    +0.000 A 
ATOM     14  C   UNL     1      10.884  11.748  19.671  0.00  0.00    +0.000 A 
ATOM     15  C   UNL     1      10.626  13.012  19.139  0.00  0.00    +0.000 A 
ATOM     16  C   UNL     1       9.575  13.189  18.238  0.00  0.00    +0.000 A 
ATOM     17  C   UNL     1       8.782  12.098  17.874  0.00  0.00    +0.000 A 
BRANCH  17  18
ATOM     18  O   UNL     1       7.748  12.285  16.998  0.00  0.00    +0.000 OA
ATOM     19  H   UNL     1       8.090  12.688  16.183  0.00  0.00    +0.000 HD
ENDBRANCH  17  18
ENDBRANCH   2  12
TORSDOF 4
ENDMDL
