MODEL 1
REMARK VINA RESULT:      -8.4      0.000      0.000
REMARK  Name = 
REMARK  7 active torsions:
REMARK  status: ('A' for Active; 'I' for Inactive)
REMARK    1  A    between atoms: C_1  and  C_2
REMARK    2  A    between atoms: C_2  and  O_3
REMARK    3  A    between atoms: O_3  and  C_4
REMARK    4  A    between atoms: C_4  and  C_6
REMARK    5  A    between atoms: C_15  and  N_16
REMARK    6  A    between atoms: N_19  and  C_20
REMARK    7  A    between atoms: C_20  and  C_21
REMARK                            x       y       z     vdW  Elec       q    Type
REMARK                         _______ _______ _______ _____ _____    ______ ____
ROOT
ATOM      1  N   UNL     1      -0.036   9.654  19.521  0.00  0.00    +0.000 N 
ATOM      2  C   UNL     1       0.788   9.212  18.386  0.00  0.00    +0.000 C 
ATOM      3  C   UNL     1       2.212   8.803  18.833  0.00  0.00    +0.000 C 
ATOM      4  N   UNL     1       2.281   7.830  19.955  0.00  0.00    +0.000 NA
ATOM      5  C   UNL     1       1.414   8.353  21.050  0.00  0.00    +0.000 C 
ATOM      6  C   UNL     1      -0.043   8.701  20.647  0.00  0.00    +0.000 C 
ENDROOT
BRANCH   1  16
ATOM      7  C   UNL     1      -1.041  11.750  20.328  0.00  0.00    +0.000 A 
ATOM      8  C   UNL     1      -2.011  12.732  20.181  0.00  0.00    +0.000 A 
ATOM      9  N   UNL     1      -2.958  12.734  19.226  0.00  0.00    +0.000 NA
ATOM     10  C   UNL     1      -2.965  11.718  18.357  0.00  0.00    +0.000 A 
ATOM     11  C   UNL     1      -3.941  11.778  17.364  0.00  0.00    +0.000 A 
ATOM     12  C   UNL     1      -4.072  10.794  16.389  0.00  0.00    +0.000 A 
ATOM     13  C   UNL     1      -3.234   9.699  16.428  0.00  0.00    +0.000 A 
ATOM     14  C   UNL     1      -2.273   9.610  17.435  0.00  0.00    +0.000 A 
ATOM     15  C   UNL     1      -2.058  10.635  18.407  0.00  0.00    +0.000 A 
ATOM     16  C   UNL     1      -1.026  10.647  19.429  0.00  0.00    +0.000 A 
BRANCH   7  17
ATOM     17  C   UNL     1      -0.000  12.019  21.358  0.00  0.00    +0.000 C 
ATOM     18  O   UNL     1       1.204  11.933  21.175  0.00  0.00    +0.000 OA
BRANCH  17  19
ATOM     19  O   UNL     1      -0.589  12.353  22.538  0.00  0.00    +0.000 OA
BRANCH  19  21
ATOM     20  C   UNL     1      -2.762  11.918  23.580  0.00  0.00    +0.000 C 
ATOM     21  C   UNL     1      -1.434  11.342  23.120  0.00  0.00    +0.000 C 
ENDBRANCH  19  21
ENDBRANCH  17  19
ENDBRANCH   7  17
ENDBRANCH   1  16
BRANCH   4  22
ATOM     22  C   UNL     1       1.859   6.487  19.500  0.00  0.00    +0.000 C 
BRANCH  22  23
ATOM     23  C   UNL     1       2.958   5.787  18.703  0.00  0.00    +0.000 C 
ATOM     24  O   UNL     1       2.681   5.029  17.774  0.00  0.00    +0.000 OA
ATOM     25  N   UNL     1       4.230   6.094  19.149  0.00  0.00    +0.000 N 
ATOM     26  C   UNL     1       5.326   5.483  18.582  0.00  0.00    +0.000 A 
ATOM     27  N   UNL     1       6.256   4.924  19.364  0.00  0.00    +0.000 NA
ATOM     28  N   UNL     1       7.081   4.323  18.479  0.00  0.00    +0.000 N 
ATOM     29  C   UNL     1       6.802   4.610  17.176  0.00  0.00    +0.000 A 
ATOM     30  N   UNL     1       7.509   4.216  16.100  0.00  0.00    +0.000 NA
ATOM     31  C   UNL     1       7.004   4.705  14.942  0.00  0.00    +0.000 A 
ATOM     32  C   UNL     1       5.885   5.522  14.822  0.00  0.00    +0.000 A 
ATOM     33  C   UNL     1       5.177   5.874  15.973  0.00  0.00    +0.000 A 
ATOM     34  C   UNL     1       5.658   5.390  17.201  0.00  0.00    +0.000 A 
ATOM     35  H   UNL     1       4.297   6.257  20.148  0.00  0.00    +0.000 HD
ATOM     36  H   UNL     1       7.836   3.743  18.820  0.00  0.00    +0.000 HD
ENDBRANCH  22  23
ENDBRANCH   4  22
TORSDOF 6
ENDMDL
MODEL 2
REMARK VINA RESULT:      -8.3      0.764      1.409
REMARK  Name = 
REMARK  7 active torsions:
REMARK  status: ('A' for Active; 'I' for Inactive)
REMARK    1  A    between atoms: C_1  and  C_2
REMARK    2  A    between atoms: C_2  and  O_3
REMARK    3  A    between atoms: O_3  and  C_4
REMARK    4  A    between atoms: C_4  and  C_6
REMARK    5  A    between atoms: C_15  and  N_16
REMARK    6  A    between atoms: N_19  and  C_20
REMARK    7  A    between atoms: C_20  and  C_21
REMARK                            x       y       z     vdW  Elec       q    Type
REMARK                         _______ _______ _______ _____ _____    ______ ____
ROOT
ATOM      1  N   UNL     1      -0.078   9.657  19.748  0.00  0.00    +0.000 N 
ATOM      2  C   UNL     1       0.728   9.243  18.588  0.00  0.00    +0.000 C 
ATOM      3  C   UNL     1       2.164   8.839  19.001  0.00  0.00    +0.000 C 
ATOM      4  N   UNL     1       2.262   7.846  20.103  0.00  0.00    +0.000 NA
ATOM      5  C   UNL     1       1.411   8.340  21.224  0.00  0.00    +0.000 C 
ATOM      6  C   UNL     1      -0.056   8.683  20.855  0.00  0.00    +0.000 C 
ENDROOT
BRANCH   1  16
ATOM      7  C   UNL     1      -1.105  11.710  20.633  0.00  0.00    +0.000 A 
ATOM      8  C   UNL     1      -2.085  12.687  20.524  0.00  0.00    +0.000 A 
ATOM      9  N   UNL     1      -3.031  12.716  19.569  0.00  0.00    +0.000 NA
ATOM     10  C   UNL     1      -3.028  11.734  18.661  0.00  0.00    +0.000 A 
ATOM     11  C   UNL     1      -4.005  11.821  17.671  0.00  0.00    +0.000 A 
ATOM     12  C   UNL     1      -4.125  10.874  16.659  0.00  0.00    +0.000 A 
ATOM     13  C   UNL     1      -3.276   9.788  16.656  0.00  0.00    +0.000 A 
ATOM     14  C   UNL     1      -2.314   9.670  17.660  0.00  0.00    +0.000 A 
ATOM     15  C   UNL     1      -2.110  10.659  18.671  0.00  0.00    +0.000 A 
ATOM     16  C   UNL     1      -1.078  10.642  19.693  0.00  0.00    +0.000 A 
BRANCH   7  17
ATOM     17  C   UNL     1      -0.067  11.950  21.673  0.00  0.00    +0.000 C 
ATOM     18  O   UNL     1      -0.178  11.656  22.853  0.00  0.00    +0.000 OA
BRANCH  17  19
ATOM     19  O   UNL     1       1.014  12.564  21.119  0.00  0.00    +0.000 OA
BRANCH  19  21
ATOM     20  C   UNL     1       1.979  14.704  20.422  0.00  0.00    +0.000 C 
ATOM     21  C   UNL     1       1.197  13.947  21.481  0.00  0.00    +0.000 C 
ENDBRANCH  19  21
ENDBRANCH  17  19
ENDBRANCH   7  17
ENDBRANCH   1  16
BRANCH   4  22
ATOM     22  C   UNL     1       1.844   6.507  19.631  0.00  0.00    +0.000 C 
BRANCH  22  23
ATOM     23  C   UNL     1       2.951   5.812  18.841  0.00  0.00    +0.000 C 
ATOM     24  O   UNL     1       2.683   5.031  17.930  0.00  0.00    +0.000 OA
ATOM     25  N   UNL     1       4.219   6.153  19.272  0.00  0.00    +0.000 N 
ATOM     26  C   UNL     1       5.323   5.552  18.710  0.00  0.00    +0.000 A 
ATOM     27  N   UNL     1       6.268   5.028  19.498  0.00  0.00    +0.000 NA
ATOM     28  N   UNL     1       7.100   4.425  18.620  0.00  0.00    +0.000 N 
ATOM     29  C   UNL     1       6.807   4.679  17.313  0.00  0.00    +0.000 A 
ATOM     30  N   UNL     1       7.515   4.276  16.240  0.00  0.00    +0.000 NA
ATOM     31  C   UNL     1       6.993   4.731  15.076  0.00  0.00    +0.000 A 
ATOM     32  C   UNL     1       5.858   5.523  14.947  0.00  0.00    +0.000 A 
ATOM     33  C   UNL     1       5.150   5.886  16.095  0.00  0.00    +0.000 A 
ATOM     34  C   UNL     1       5.648   5.437  17.329  0.00  0.00    +0.000 A 
ATOM     35  H   UNL     1       4.289   6.339  20.266  0.00  0.00    +0.000 HD
ATOM     36  H   UNL     1       7.868   3.867  18.968  0.00  0.00    +0.000 HD
ENDBRANCH  22  23
ENDBRANCH   4  22
TORSDOF 6
ENDMDL
MODEL 3
REMARK VINA RESULT:      -8.2      2.527      4.567
REMARK  Name = 
REMARK  7 active torsions:
REMARK  status: ('A' for Active; 'I' for Inactive)
REMARK    1  A    between atoms: C_1  and  C_2
REMARK    2  A    between atoms: C_2  and  O_3
REMARK    3  A    between atoms: O_3  and  C_4
REMARK    4  A    between atoms: C_4  and  C_6
REMARK    5  A    between atoms: C_15  and  N_16
REMARK    6  A    between atoms: N_19  and  C_20
REMARK    7  A    between atoms: C_20  and  C_21
REMARK                            x       y       z     vdW  Elec       q    Type
REMARK                         _______ _______ _______ _____ _____    ______ ____
ROOT
ATOM      1  N   UNL     1      -1.371  11.577  19.361  0.00  0.00    +0.000 N 
ATOM      2  C   UNL     1      -0.444  12.131  18.362  0.00  0.00    +0.000 C 
ATOM      3  C   UNL     1       1.033  11.985  18.804  0.00  0.00    +0.000 C 
ATOM      4  N   UNL     1       1.449  10.620  19.221  0.00  0.00    +0.000 NA
ATOM      5  C   UNL     1       0.452  10.137  20.220  0.00  0.00    +0.000 C 
ATOM      6  C   UNL     1      -1.033  10.202  19.775  0.00  0.00    +0.000 C 
ENDROOT
BRANCH   1  16
ATOM      7  C   UNL     1      -3.757  11.741  18.786  0.00  0.00    +0.000 A 
ATOM      8  C   UNL     1      -5.016  12.242  19.087  0.00  0.00    +0.000 A 
ATOM      9  N   UNL     1      -5.290  13.046  20.129  0.00  0.00    +0.000 NA
ATOM     10  C   UNL     1      -4.277  13.389  20.932  0.00  0.00    +0.000 A 
ATOM     11  C   UNL     1      -4.611  14.196  22.018  0.00  0.00    +0.000 A 
ATOM     12  C   UNL     1      -3.664  14.632  22.940  0.00  0.00    +0.000 A 
ATOM     13  C   UNL     1      -2.342  14.289  22.752  0.00  0.00    +0.000 A 
ATOM     14  C   UNL     1      -1.988  13.509  21.651  0.00  0.00    +0.000 A 
ATOM     15  C   UNL     1      -2.939  12.979  20.726  0.00  0.00    +0.000 A 
ATOM     16  C   UNL     1      -2.652  12.095  19.611  0.00  0.00    +0.000 A 
BRANCH   7  17
ATOM     17  C   UNL     1      -3.704  10.750  17.677  0.00  0.00    +0.000 C 
ATOM     18  O   UNL     1      -3.647   9.539  17.822  0.00  0.00    +0.000 OA
BRANCH  17  19
ATOM     19  O   UNL     1      -3.706  11.393  16.477  0.00  0.00    +0.000 OA
BRANCH  19  21
ATOM     20  C   UNL     1      -3.526  10.140  14.381  0.00  0.00    +0.000 C 
ATOM     21  C   UNL     1      -2.794  10.873  15.491  0.00  0.00    +0.000 C 
ENDBRANCH  19  21
ENDBRANCH  17  19
ENDBRANCH   7  17
ENDBRANCH   1  16
BRANCH   4  22
ATOM     22  C   UNL     1       1.540   9.727  18.045  0.00  0.00    +0.000 C 
BRANCH  22  23
ATOM     23  C   UNL     1       2.185   8.388  18.398  0.00  0.00    +0.000 C 
ATOM     24  O   UNL     1       1.909   7.811  19.448  0.00  0.00    +0.000 OA
ATOM     25  N   UNL     1       3.076   7.947  17.438  0.00  0.00    +0.000 N 
ATOM     26  C   UNL     1       3.797   6.792  17.645  0.00  0.00    +0.000 A 
ATOM     27  N   UNL     1       5.121   6.791  17.458  0.00  0.00    +0.000 NA
ATOM     28  N   UNL     1       5.490   5.560  17.876  0.00  0.00    +0.000 N 
ATOM     29  C   UNL     1       4.444   4.737  18.167  0.00  0.00    +0.000 A 
ATOM     30  N   UNL     1       4.520   3.440  18.523  0.00  0.00    +0.000 NA
ATOM     31  C   UNL     1       3.299   2.879  18.698  0.00  0.00    +0.000 A 
ATOM     32  C   UNL     1       2.077   3.524  18.543  0.00  0.00    +0.000 A 
ATOM     33  C   UNL     1       2.063   4.877  18.200  0.00  0.00    +0.000 A 
ATOM     34  C   UNL     1       3.304   5.508  18.009  0.00  0.00    +0.000 A 
ATOM     35  H   UNL     1       3.577   8.687  16.958  0.00  0.00    +0.000 HD
ATOM     36  H   UNL     1       6.472   5.326  17.923  0.00  0.00    +0.000 HD
ENDBRANCH  22  23
ENDBRANCH   4  22
TORSDOF 6
ENDMDL
MODEL 4
REMARK VINA RESULT:      -8.2      3.176      4.822
REMARK  Name = 
REMARK  7 active torsions:
REMARK  status: ('A' for Active; 'I' for Inactive)
REMARK    1  A    between atoms: C_1  and  C_2
REMARK    2  A    between atoms: C_2  and  O_3
REMARK    3  A    between atoms: O_3  and  C_4
REMARK    4  A    between atoms: C_4  and  C_6
REMARK    5  A    between atoms: C_15  and  N_16
REMARK    6  A    between atoms: N_19  and  C_20
REMARK    7  A    between atoms: C_20  and  C_21
REMARK                            x       y       z     vdW  Elec       q    Type
REMARK                         _______ _______ _______ _____ _____    ______ ____
ROOT
ATOM      1  N   UNL     1       0.243  12.653  19.649  0.00  0.00    +0.000 N 
ATOM      2  C   UNL     1       1.274  12.023  20.489  0.00  0.00    +0.000 C 
ATOM      3  C   UNL     1       0.800  10.662  21.056  0.00  0.00    +0.000 C 
ATOM      4  N   UNL     1       0.261   9.700  20.059  0.00  0.00    +0.000 NA
ATOM      5  C   UNL     1      -0.763  10.425  19.252  0.00  0.00    +0.000 C 
ATOM      6  C   UNL     1      -0.293  11.756  18.608  0.00  0.00    +0.000 C 
ENDROOT
BRANCH   1  16
ATOM      7  C   UNL     1      -1.098  14.665  20.099  0.00  0.00    +0.000 A 
ATOM      8  C   UNL     1      -1.228  16.045  20.017  0.00  0.00    +0.000 A 
ATOM      9  N   UNL     1      -0.323  16.866  19.457  0.00  0.00    +0.000 NA
ATOM     10  C   UNL     1       0.781  16.314  18.941  0.00  0.00    +0.000 A 
ATOM     11  C   UNL     1       1.707  17.204  18.401  0.00  0.00    +0.000 A 
ATOM     12  C   UNL     1       2.902  16.779  17.829  0.00  0.00    +0.000 A 
ATOM     13  C   UNL     1       3.163  15.426  17.757  0.00  0.00    +0.000 A 
ATOM     14  C   UNL     1       2.231  14.522  18.265  0.00  0.00    +0.000 A 
ATOM     15  C   UNL     1       1.029  14.922  18.926  0.00  0.00    +0.000 A 
ATOM     16  C   UNL     1       0.057  14.042  19.550  0.00  0.00    +0.000 A 
BRANCH   7  17
ATOM     17  C   UNL     1      -2.144  13.964  20.892  0.00  0.00    +0.000 C 
ATOM     18  O   UNL     1      -3.096  13.364  20.419  0.00  0.00    +0.000 OA
BRANCH  17  19
ATOM     19  O   UNL     1      -1.895  14.107  22.222  0.00  0.00    +0.000 OA
BRANCH  19  21
ATOM     20  C   UNL     1      -1.837  11.842  23.152  0.00  0.00    +0.000 C 
ATOM     21  C   UNL     1      -2.568  13.171  23.086  0.00  0.00    +0.000 C 
ENDBRANCH  19  21
ENDBRANCH  17  19
ENDBRANCH   7  17
ENDBRANCH   1  16
BRANCH   4  22
ATOM     22  C   UNL     1       1.354   9.158  19.222  0.00  0.00    +0.000 C 
BRANCH  22  23
ATOM     23  C   UNL     1       1.854   7.812  19.743  0.00  0.00    +0.000 C 
ATOM     24  O   UNL     1       1.690   7.489  20.918  0.00  0.00    +0.000 OA
ATOM     25  N   UNL     1       2.488   7.058  18.774  0.00  0.00    +0.000 N 
ATOM     26  C   UNL     1       3.061   5.851  19.105  0.00  0.00    +0.000 A 
ATOM     27  N   UNL     1       4.318   5.586  18.731  0.00  0.00    +0.000 NA
ATOM     28  N   UNL     1       4.576   4.405  19.334  0.00  0.00    +0.000 N 
ATOM     29  C   UNL     1       3.491   3.841  19.937  0.00  0.00    +0.000 A 
ATOM     30  N   UNL     1       3.444   2.636  20.536  0.00  0.00    +0.000 NA
ATOM     31  C   UNL     1       2.207   2.337  21.000  0.00  0.00    +0.000 A 
ATOM     32  C   UNL     1       1.081   3.147  20.898  0.00  0.00    +0.000 A 
ATOM     33  C   UNL     1       1.200   4.398  20.290  0.00  0.00    +0.000 A 
ATOM     34  C   UNL     1       2.464   4.759  19.793  0.00  0.00    +0.000 A 
ATOM     35  H   UNL     1       2.995   7.602  18.084  0.00  0.00    +0.000 HD
ATOM     36  H   UNL     1       5.507   4.015  19.283  0.00  0.00    +0.000 HD
ENDBRANCH  22  23
ENDBRANCH   4  22
TORSDOF 6
ENDMDL
MODEL 5
REMARK VINA RESULT:      -8.1      5.951      9.527
REMARK  Name = 
REMARK  7 active torsions:
REMARK  status: ('A' for Active; 'I' for Inactive)
REMARK    1  A    between atoms: C_1  and  C_2
REMARK    2  A    between atoms: C_2  and  O_3
REMARK    3  A    between atoms: O_3  and  C_4
REMARK    4  A    between atoms: C_4  and  C_6
REMARK    5  A    between atoms: C_15  and  N_16
REMARK    6  A    between atoms: N_19  and  C_20
REMARK    7  A    between atoms: C_20  and  C_21
REMARK                            x       y       z     vdW  Elec       q    Type
REMARK                         _______ _______ _______ _____ _____    ______ ____
ROOT
ATOM      1  N   UNL     1       5.724   5.839  17.926  0.00  0.00    +0.000 N 
ATOM      2  C   UNL     1       6.556   5.772  19.138  0.00  0.00    +0.000 C 
ATOM      3  C   UNL     1       8.033   6.131  18.842  0.00  0.00    +0.000 C 
ATOM      4  N   UNL     1       8.253   7.407  18.113  0.00  0.00    +0.000 NA
ATOM      5  C   UNL     1       7.368   7.391  16.912  0.00  0.00    +0.000 C 
ATOM      6  C   UNL     1       5.867   7.108  17.187  0.00  0.00    +0.000 C 
ENDROOT
BRANCH   1  16
ATOM      7  C   UNL     1       4.589   4.143  16.552  0.00  0.00    +0.000 A 
ATOM      8  C   UNL     1       3.501   3.301  16.370  0.00  0.00    +0.000 A 
ATOM      9  N   UNL     1       2.451   3.217  17.206  0.00  0.00    +0.000 NA
ATOM     10  C   UNL     1       2.455   4.002  18.289  0.00  0.00    +0.000 A 
ATOM     11  C   UNL     1       1.365   3.859  19.145  0.00  0.00    +0.000 A 
ATOM     12  C   UNL     1       1.231   4.606  20.311  0.00  0.00    +0.000 A 
ATOM     13  C   UNL     1       2.189   5.551  20.612  0.00  0.00    +0.000 A 
ATOM     14  C   UNL     1       3.269   5.728  19.748  0.00  0.00    +0.000 A 
ATOM     15  C   UNL     1       3.481   4.929  18.582  0.00  0.00    +0.000 A 
ATOM     16  C   UNL     1       4.622   5.002  17.687  0.00  0.00    +0.000 A 
BRANCH   7  17
ATOM     17  C   UNL     1       5.709   3.969  15.588  0.00  0.00    +0.000 C 
ATOM     18  O   UNL     1       6.851   3.660  15.889  0.00  0.00    +0.000 OA
BRANCH  17  19
ATOM     19  O   UNL     1       5.279   4.227  14.323  0.00  0.00    +0.000 OA
BRANCH  19  21
ATOM     20  C   UNL     1       5.469   3.145  12.134  0.00  0.00    +0.000 C 
ATOM     21  C   UNL     1       6.187   3.854  13.268  0.00  0.00    +0.000 C 
ENDBRANCH  19  21
ENDBRANCH  17  19
ENDBRANCH   7  17
ENDBRANCH   1  16
BRANCH   4  22
ATOM     22  C   UNL     1       7.977   8.561  18.996  0.00  0.00    +0.000 C 
BRANCH  22  23
ATOM     23  C   UNL     1       8.633   9.840  18.481  0.00  0.00    +0.000 C 
ATOM     24  O   UNL     1       8.211  10.405  17.472  0.00  0.00    +0.000 OA
ATOM     25  N   UNL     1       9.707  10.246  19.250  0.00  0.00    +0.000 N 
ATOM     26  C   UNL     1      10.451  11.342  18.871  0.00  0.00    +0.000 A 
ATOM     27  N   UNL     1      11.785  11.255  18.821  0.00  0.00    +0.000 NA
ATOM     28  N   UNL     1      12.150  12.444  18.295  0.00  0.00    +0.000 N 
ATOM     29  C   UNL     1      11.124  13.330  18.159  0.00  0.00    +0.000 A 
ATOM     30  N   UNL     1      11.218  14.608  17.742  0.00  0.00    +0.000 NA
ATOM     31  C   UNL     1      10.024  15.247  17.760  0.00  0.00    +0.000 A 
ATOM     32  C   UNL     1       8.810  14.694  18.154  0.00  0.00    +0.000 A 
ATOM     33  C   UNL     1       8.772  13.356  18.551  0.00  0.00    +0.000 A 
ATOM     34  C   UNL     1       9.984  12.646  18.547  0.00  0.00    +0.000 A 
ATOM     35  H   UNL     1      10.237   9.488  19.664  0.00  0.00    +0.000 HD
ATOM     36  H   UNL     1      13.122  12.607  18.066  0.00  0.00    +0.000 HD
ENDBRANCH  22  23
ENDBRANCH   4  22
TORSDOF 6
ENDMDL
MODEL 6
REMARK VINA RESULT:      -8.0      2.045      2.892
REMARK  Name = 
REMARK  7 active torsions:
REMARK  status: ('A' for Active; 'I' for Inactive)
REMARK    1  A    between atoms: C_1  and  C_2
REMARK    2  A    between atoms: C_2  and  O_3
REMARK    3  A    between atoms: O_3  and  C_4
REMARK    4  A    between atoms: C_4  and  C_6
REMARK    5  A    between atoms: C_15  and  N_16
REMARK    6  A    between atoms: N_19  and  C_20
REMARK    7  A    between atoms: C_20  and  C_21
REMARK                            x       y       z     vdW  Elec       q    Type
REMARK                         _______ _______ _______ _____ _____    ______ ____
ROOT
ATOM      1  N   UNL     1      -1.107  11.470  19.732  0.00  0.00    +0.000 N 
ATOM      2  C   UNL     1      -0.227  12.081  18.723  0.00  0.00    +0.000 C 
ATOM      3  C   UNL     1       1.269  11.895  19.075  0.00  0.00    +0.000 C 
ATOM      4  N   UNL     1       1.691  10.503  19.379  0.00  0.00    +0.000 NA
ATOM      5  C   UNL     1       0.743   9.963  20.397  0.00  0.00    +0.000 C 
ATOM      6  C   UNL     1      -0.762  10.068  20.037  0.00  0.00    +0.000 C 
ENDROOT
BRANCH   1  16
ATOM      7  C   UNL     1      -2.592  12.555  21.365  0.00  0.00    +0.000 A 
ATOM      8  C   UNL     1      -3.840  13.085  21.662  0.00  0.00    +0.000 A 
ATOM      9  N   UNL     1      -4.881  13.114  20.810  0.00  0.00    +0.000 NA
ATOM     10  C   UNL     1      -4.700  12.594  19.592  0.00  0.00    +0.000 A 
ATOM     11  C   UNL     1      -5.793  12.674  18.731  0.00  0.00    +0.000 A 
ATOM     12  C   UNL     1      -5.755  12.177  17.432  0.00  0.00    +0.000 A 
ATOM     13  C   UNL     1      -4.611  11.546  16.991  0.00  0.00    +0.000 A 
ATOM     14  C   UNL     1      -3.521  11.429  17.853  0.00  0.00    +0.000 A 
ATOM     15  C   UNL     1      -3.493  11.992  19.166  0.00  0.00    +0.000 A 
ATOM     16  C   UNL     1      -2.367  11.980  20.082  0.00  0.00    +0.000 A 
BRANCH   7  17
ATOM     17  C   UNL     1      -1.541  12.760  22.398  0.00  0.00    +0.000 C 
ATOM     18  O   UNL     1      -1.018  11.871  23.051  0.00  0.00    +0.000 OA
BRANCH  17  19
ATOM     19  O   UNL     1      -1.263  14.087  22.523  0.00  0.00    +0.000 OA
BRANCH  19  21
ATOM     20  C   UNL     1      -2.439  15.121  24.406  0.00  0.00    +0.000 C 
ATOM     21  C   UNL     1      -1.128  14.570  23.873  0.00  0.00    +0.000 C 
ENDBRANCH  19  21
ENDBRANCH  17  19
ENDBRANCH   7  17
ENDBRANCH   1  16
BRANCH   4  22
ATOM     22  C   UNL     1       1.710   9.688  18.145  0.00  0.00    +0.000 C 
BRANCH  22  23
ATOM     23  C   UNL     1       2.280   8.293  18.394  0.00  0.00    +0.000 C 
ATOM     24  O   UNL     1       1.938   7.637  19.377  0.00  0.00    +0.000 OA
ATOM     25  N   UNL     1       3.185   7.897  17.428  0.00  0.00    +0.000 N 
ATOM     26  C   UNL     1       3.843   6.694  17.552  0.00  0.00    +0.000 A 
ATOM     27  N   UNL     1       5.172   6.645  17.410  0.00  0.00    +0.000 NA
ATOM     28  N   UNL     1       5.468   5.365  17.725  0.00  0.00    +0.000 N 
ATOM     29  C   UNL     1       4.375   4.570  17.904  0.00  0.00    +0.000 A 
ATOM     30  N   UNL     1       4.378   3.244  18.142  0.00  0.00    +0.000 NA
ATOM     31  C   UNL     1       3.128   2.731  18.225  0.00  0.00    +0.000 A 
ATOM     32  C   UNL     1       1.943   3.446  18.089  0.00  0.00    +0.000 A 
ATOM     33  C   UNL     1       2.004   4.824  17.871  0.00  0.00    +0.000 A 
ATOM     34  C   UNL     1       3.279   5.408  17.780  0.00  0.00    +0.000 A 
ATOM     35  H   UNL     1       3.737   8.651  17.035  0.00  0.00    +0.000 HD
ATOM     36  H   UNL     1       6.436   5.079  17.783  0.00  0.00    +0.000 HD
ENDBRANCH  22  23
ENDBRANCH   4  22
TORSDOF 6
ENDMDL
MODEL 7
REMARK VINA RESULT:      -8.0      3.237      4.919
REMARK  Name = 
REMARK  7 active torsions:
REMARK  status: ('A' for Active; 'I' for Inactive)
REMARK    1  A    between atoms: C_1  and  C_2
REMARK    2  A    between atoms: C_2  and  O_3
REMARK    3  A    between atoms: O_3  and  C_4
REMARK    4  A    between atoms: C_4  and  C_6
REMARK    5  A    between atoms: C_15  and  N_16
REMARK    6  A    between atoms: N_19  and  C_20
REMARK    7  A    between atoms: C_20  and  C_21
REMARK                            x       y       z     vdW  Elec       q    Type
REMARK                         _______ _______ _______ _____ _____    ______ ____
ROOT
ATOM      1  N   UNL     1       0.239  12.647  19.698  0.00  0.00    +0.000 N 
ATOM      2  C   UNL     1       1.240  12.014  20.571  0.00  0.00    +0.000 C 
ATOM      3  C   UNL     1       0.752  10.646  21.107  0.00  0.00    +0.000 C 
ATOM      4  N   UNL     1       0.257   9.691  20.080  0.00  0.00    +0.000 NA
ATOM      5  C   UNL     1      -0.739  10.418  19.241  0.00  0.00    +0.000 C 
ATOM      6  C   UNL     1      -0.252  11.758  18.628  0.00  0.00    +0.000 C 
ENDROOT
BRANCH   1  16
ATOM      7  C   UNL     1      -1.088  14.659  20.190  0.00  0.00    +0.000 A 
ATOM      8  C   UNL     1      -1.221  16.038  20.112  0.00  0.00    +0.000 A 
ATOM      9  N   UNL     1      -0.333  16.860  19.525  0.00  0.00    +0.000 NA
ATOM     10  C   UNL     1       0.754  16.309  18.976  0.00  0.00    +0.000 A 
ATOM     11  C   UNL     1       1.664  17.199  18.408  0.00  0.00    +0.000 A 
ATOM     12  C   UNL     1       2.841  16.774  17.801  0.00  0.00    +0.000 A 
ATOM     13  C   UNL     1       3.101  15.422  17.721  0.00  0.00    +0.000 A 
ATOM     14  C   UNL     1       2.184  14.517  18.256  0.00  0.00    +0.000 A 
ATOM     15  C   UNL     1       1.002  14.917  18.953  0.00  0.00    +0.000 A 
ATOM     16  C   UNL     1       0.050  14.036  19.605  0.00  0.00    +0.000 A 
BRANCH   7  17
ATOM     17  C   UNL     1      -2.110  13.957  21.013  0.00  0.00    +0.000 C 
ATOM     18  O   UNL     1      -2.131  13.935  22.233  0.00  0.00    +0.000 OA
BRANCH  17  19
ATOM     19  O   UNL     1      -3.004  13.324  20.205  0.00  0.00    +0.000 OA
BRANCH  19  21
ATOM     20  C   UNL     1      -5.411  12.906  20.036  0.00  0.00    +0.000 C 
ATOM     21  C   UNL     1      -4.150  12.758  20.869  0.00  0.00    +0.000 C 
ENDBRANCH  19  21
ENDBRANCH  17  19
ENDBRANCH   7  17
ENDBRANCH   1  16
BRANCH   4  22
ATOM     22  C   UNL     1       1.384   9.162  19.281  0.00  0.00    +0.000 C 
BRANCH  22  23
ATOM     23  C   UNL     1       1.861   7.807  19.799  0.00  0.00    +0.000 C 
ATOM     24  O   UNL     1       1.666   7.472  20.967  0.00  0.00    +0.000 OA
ATOM     25  N   UNL     1       2.512   7.058  18.838  0.00  0.00    +0.000 N 
ATOM     26  C   UNL     1       3.068   5.843  19.170  0.00  0.00    +0.000 A 
ATOM     27  N   UNL     1       4.331   5.572  18.823  0.00  0.00    +0.000 NA
ATOM     28  N   UNL     1       4.565   4.383  19.419  0.00  0.00    +0.000 N 
ATOM     29  C   UNL     1       3.463   3.821  19.990  0.00  0.00    +0.000 A 
ATOM     30  N   UNL     1       3.392   2.610  20.575  0.00  0.00    +0.000 NA
ATOM     31  C   UNL     1       2.142   2.316  21.006  0.00  0.00    +0.000 A 
ATOM     32  C   UNL     1       1.025   3.136  20.885  0.00  0.00    +0.000 A 
ATOM     33  C   UNL     1       1.168   4.393  20.293  0.00  0.00    +0.000 A 
ATOM     34  C   UNL     1       2.446   4.748  19.832  0.00  0.00    +0.000 A 
ATOM     35  H   UNL     1       3.040   7.605  18.166  0.00  0.00    +0.000 HD
ATOM     36  H   UNL     1       5.495   3.986  19.386  0.00  0.00    +0.000 HD
ENDBRANCH  22  23
ENDBRANCH   4  22
TORSDOF 6
ENDMDL
MODEL 8
REMARK VINA RESULT:      -8.0      2.796      5.020
REMARK  Name = 
REMARK  7 active torsions:
REMARK  status: ('A' for Active; 'I' for Inactive)
REMARK    1  A    between atoms: C_1  and  C_2
REMARK    2  A    between atoms: C_2  and  O_3
REMARK    3  A    between atoms: O_3  and  C_4
REMARK    4  A    between atoms: C_4  and  C_6
REMARK    5  A    between atoms: C_15  and  N_16
REMARK    6  A    between atoms: N_19  and  C_20
REMARK    7  A    between atoms: C_20  and  C_21
REMARK                            x       y       z     vdW  Elec       q    Type
REMARK                         _______ _______ _______ _____ _____    ______ ____
ROOT
ATOM      1  N   UNL     1      -1.759  11.089  18.746  0.00  0.00    +0.000 N 
ATOM      2  C   UNL     1      -0.546  11.695  18.175  0.00  0.00    +0.000 C 
ATOM      3  C   UNL     1       0.652  11.615  19.152  0.00  0.00    +0.000 C 
ATOM      4  N   UNL     1       0.940  10.268  19.710  0.00  0.00    +0.000 NA
ATOM      5  C   UNL     1      -0.340   9.730  20.255  0.00  0.00    +0.000 C 
ATOM      6  C   UNL     1      -1.541   9.728  19.272  0.00  0.00    +0.000 C 
ENDROOT
BRANCH   1  16
ATOM      7  C   UNL     1      -3.696  11.253  17.239  0.00  0.00    +0.000 A 
ATOM      8  C   UNL     1      -4.997  11.685  17.025  0.00  0.00    +0.000 A 
ATOM      9  N   UNL     1      -5.734  12.365  17.922  0.00  0.00    +0.000 NA
ATOM     10  C   UNL     1      -5.172  12.645  19.103  0.00  0.00    +0.000 A 
ATOM     11  C   UNL     1      -5.981  13.320  20.014  0.00  0.00    +0.000 A 
ATOM     12  C   UNL     1      -5.535  13.679  21.283  0.00  0.00    +0.000 A 
ATOM     13  C   UNL     1      -4.234  13.392  21.638  0.00  0.00    +0.000 A 
ATOM     14  C   UNL     1      -3.402  12.745  20.725  0.00  0.00    +0.000 A 
ATOM     15  C   UNL     1      -3.845  12.294  19.443  0.00  0.00    +0.000 A 
ATOM     16  C   UNL     1      -3.060  11.544  18.479  0.00  0.00    +0.000 A 
BRANCH   7  17
ATOM     17  C   UNL     1      -3.119  10.390  16.172  0.00  0.00    +0.000 C 
ATOM     18  O   UNL     1      -2.586   9.308  16.360  0.00  0.00    +0.000 OA
BRANCH  17  19
ATOM     19  O   UNL     1      -3.254  10.994  14.960  0.00  0.00    +0.000 OA
BRANCH  19  21
ATOM     20  C   UNL     1      -4.440   9.871  13.135  0.00  0.00    +0.000 C 
ATOM     21  C   UNL     1      -3.108  10.132  13.815  0.00  0.00    +0.000 C 
ENDBRANCH  19  21
ENDBRANCH  17  19
ENDBRANCH   7  17
ENDBRANCH   1  16
BRANCH   4  22
ATOM     22  C   UNL     1       1.518   9.390  18.669  0.00  0.00    +0.000 C 
BRANCH  22  23
ATOM     23  C   UNL     1       2.034   8.078  19.255  0.00  0.00    +0.000 C 
ATOM     24  O   UNL     1       2.002   7.871  20.467  0.00  0.00    +0.000 OA
ATOM     25  N   UNL     1       2.521   7.211  18.295  0.00  0.00    +0.000 N 
ATOM     26  C   UNL     1       3.092   6.015  18.672  0.00  0.00    +0.000 A 
ATOM     27  N   UNL     1       4.285   5.663  18.180  0.00  0.00    +0.000 NA
ATOM     28  N   UNL     1       4.575   4.532  18.860  0.00  0.00    +0.000 N 
ATOM     29  C   UNL     1       3.554   4.074  19.638  0.00  0.00    +0.000 A 
ATOM     30  N   UNL     1       3.541   2.932  20.352  0.00  0.00    +0.000 NA
ATOM     31  C   UNL     1       2.360   2.731  20.984  0.00  0.00    +0.000 A 
ATOM     32  C   UNL     1       1.257   3.576  20.937  0.00  0.00    +0.000 A 
ATOM     33  C   UNL     1       1.341   4.760  20.201  0.00  0.00    +0.000 A 
ATOM     34  C   UNL     1       2.547   5.018  19.528  0.00  0.00    +0.000 A 
ATOM     35  H   UNL     1       2.959   7.666  17.502  0.00  0.00    +0.000 HD
ATOM     36  H   UNL     1       5.481   4.099  18.738  0.00  0.00    +0.000 HD
ENDBRANCH  22  23
ENDBRANCH   4  22
TORSDOF 6
ENDMDL
MODEL 9
REMARK VINA RESULT:      -8.0      2.806      4.268
REMARK  Name = 
REMARK  7 active torsions:
REMARK  status: ('A' for Active; 'I' for Inactive)
REMARK    1  A    between atoms: C_1  and  C_2
REMARK    2  A    between atoms: C_2  and  O_3
REMARK    3  A    between atoms: O_3  and  C_4
REMARK    4  A    between atoms: C_4  and  C_6
REMARK    5  A    between atoms: C_15  and  N_16
REMARK    6  A    between atoms: N_19  and  C_20
REMARK    7  A    between atoms: C_20  and  C_21
REMARK                            x       y       z     vdW  Elec       q    Type
REMARK                         _______ _______ _______ _____ _____    ______ ____
ROOT
ATOM      1  N   UNL     1      -0.280  12.590  19.809  0.00  0.00    +0.000 N 
ATOM      2  C   UNL     1       0.864  12.037  20.551  0.00  0.00    +0.000 C 
ATOM      3  C   UNL     1       0.702  10.519  20.811  0.00  0.00    +0.000 C 
ATOM      4  N   UNL     1       0.389   9.691  19.617  0.00  0.00    +0.000 NA
ATOM      5  C   UNL     1      -0.770  10.328  18.926  0.00  0.00    +0.000 C 
ATOM      6  C   UNL     1      -0.605  11.833  18.585  0.00  0.00    +0.000 C 
ENDROOT
BRANCH   1  16
ATOM      7  C   UNL     1      -2.007  14.131  20.643  0.00  0.00    +0.000 A 
ATOM      8  C   UNL     1      -2.438  15.436  20.832  0.00  0.00    +0.000 A 
ATOM      9  N   UNL     1      -1.757  16.530  20.444  0.00  0.00    +0.000 NA
ATOM     10  C   UNL     1      -0.583  16.345  19.832  0.00  0.00    +0.000 A 
ATOM     11  C   UNL     1       0.104  17.504  19.478  0.00  0.00    +0.000 A 
ATOM     12  C   UNL     1       1.338  17.472  18.835  0.00  0.00    +0.000 A 
ATOM     13  C   UNL     1       1.884  16.250  18.501  0.00  0.00    +0.000 A 
ATOM     14  C   UNL     1       1.193  15.082  18.820  0.00  0.00    +0.000 A 
ATOM     15  C   UNL     1      -0.038  15.072  19.546  0.00  0.00    +0.000 A 
ATOM     16  C   UNL     1      -0.768  13.895  19.983  0.00  0.00    +0.000 A 
BRANCH   7  17
ATOM     17  C   UNL     1      -2.841  13.076  21.282  0.00  0.00    +0.000 C 
ATOM     18  O   UNL     1      -3.797  12.527  20.758  0.00  0.00    +0.000 OA
BRANCH  17  19
ATOM     19  O   UNL     1      -2.395  12.830  22.544  0.00  0.00    +0.000 OA
BRANCH  19  21
ATOM     20  C   UNL     1      -3.444  13.954  24.450  0.00  0.00    +0.000 C 
ATOM     21  C   UNL     1      -3.415  12.727  23.556  0.00  0.00    +0.000 C 
ENDBRANCH  19  21
ENDBRANCH  17  19
ENDBRANCH   7  17
ENDBRANCH   1  16
BRANCH   4  22
ATOM     22  C   UNL     1       1.574   9.582  18.739  0.00  0.00    +0.000 C 
BRANCH  22  23
ATOM     23  C   UNL     1       2.181   8.181  18.776  0.00  0.00    +0.000 C 
ATOM     24  O   UNL     1       1.961   7.421  19.717  0.00  0.00    +0.000 OA
ATOM     25  N   UNL     1       2.974   7.906  17.678  0.00  0.00    +0.000 N 
ATOM     26  C   UNL     1       3.653   6.710  17.600  0.00  0.00    +0.000 A 
ATOM     27  N   UNL     1       4.958   6.704  17.306  0.00  0.00    +0.000 NA
ATOM     28  N   UNL     1       5.300   5.405  17.451  0.00  0.00    +0.000 N 
ATOM     29  C   UNL     1       4.242   4.574  17.667  0.00  0.00    +0.000 A 
ATOM     30  N   UNL     1       4.285   3.231  17.764  0.00  0.00    +0.000 NA
ATOM     31  C   UNL     1       3.057   2.685  17.933  0.00  0.00    +0.000 A 
ATOM     32  C   UNL     1       1.858   3.385  18.008  0.00  0.00    +0.000 A 
ATOM     33  C   UNL     1       1.881   4.779  17.928  0.00  0.00    +0.000 A 
ATOM     34  C   UNL     1       3.131   5.396  17.756  0.00  0.00    +0.000 A 
ATOM     35  H   UNL     1       3.470   8.708  17.306  0.00  0.00    +0.000 HD
ATOM     36  H   UNL     1       6.271   5.136  17.369  0.00  0.00    +0.000 HD
ENDBRANCH  22  23
ENDBRANCH   4  22
TORSDOF 6
ENDMDL
