MODEL 1
REMARK VINA RESULT:      -8.0      0.000      0.000
REMARK  Name = 
REMARK  11 active torsions:
REMARK  status: ('A' for Active; 'I' for Inactive)
REMARK    1  A    between atoms: C_1  and  O_2
REMARK    2  A    between atoms: O_2  and  C_3
REMARK    3  A    between atoms: C_8  and  C_9
REMARK    4  A    between atoms: C_12  and  C_13
REMARK    5  A    between atoms: C_21  and  C_22
REMARK    6  A    between atoms: C_21  and  C_28
REMARK    7  A    between atoms: C_22  and  C_23
REMARK    8  A    between atoms: C_23  and  C_24
REMARK    9  A    between atoms: C_24  and  N_25
REMARK   10  A    between atoms: N_25  and  C_26
REMARK   11  A    between atoms: N_25  and  C_27
REMARK                            x       y       z     vdW  Elec       q    Type
REMARK                         _______ _______ _______ _____ _____    ______ ____
ROOT
ATOM      1  C   UNL     1       1.190   8.371  21.157  0.00  0.00    +0.000 A 
ATOM      2  C   UNL     1       1.058   6.995  21.432  0.00  0.00    +0.000 A 
ATOM      3  C   UNL     1       1.646   6.019  20.594  0.00  0.00    +0.000 A 
ATOM      4  C   UNL     1       2.319   6.430  19.449  0.00  0.00    +0.000 A 
ATOM      5  C   UNL     1       2.503   7.794  19.233  0.00  0.00    +0.000 A 
ATOM      6  C   UNL     1       1.993   8.766  20.083  0.00  0.00    +0.000 A 
ATOM      7  C   UNL     1       3.021   7.991  17.861  0.00  0.00    +0.000 C 
ATOM      8  O   UNL     1       2.426   6.841  17.211  0.00  0.00    +0.000 OA
ATOM      9  C   UNL     1       2.564   5.709  18.135  0.00  0.00    +0.000 C 
ENDROOT
BRANCH   9  10
ATOM     10  C   UNL     1       3.921   5.086  17.775  0.00  0.00    +0.000 A 
ATOM     11  C   UNL     1       4.314   4.744  16.479  0.00  0.00    +0.000 A 
ATOM     12  C   UNL     1       5.672   4.518  16.205  0.00  0.00    +0.000 A 
ATOM     13  C   UNL     1       6.627   4.627  17.216  0.00  0.00    +0.000 A 
ATOM     14  F   UNL     1       7.929   4.518  16.917  0.00  0.00    +0.000 F 
ATOM     15  C   UNL     1       6.255   4.874  18.521  0.00  0.00    +0.000 A 
ATOM     16  C   UNL     1       4.908   5.082  18.800  0.00  0.00    +0.000 A 
ENDBRANCH   9  10
BRANCH   1  20
ATOM     17  C   UNL     1      -0.945  11.127  22.210  0.00  0.00    +0.000 A 
ATOM     18  N   UNL     1      -0.477  10.693  23.367  0.00  0.00    +0.000 NA
ATOM     19  N   UNL     1       0.343   9.620  23.126  0.00  0.00    +0.000 NA
ATOM     20  C   UNL     1       0.393   9.407  21.822  0.00  0.00    +0.000 A 
ATOM     21  N   UNL     1      -0.400  10.348  21.226  0.00  0.00    +0.000 N 
ATOM     22  H   UNL     1      -0.599  10.450  20.238  0.00  0.00    +0.000 HD
BRANCH  17  28
ATOM     23  C   UNL     1      -1.856  13.150  20.977  0.00  0.00    +0.000 A 
ATOM     24  C   UNL     1      -2.912  14.053  20.787  0.00  0.00    +0.000 A 
ATOM     25  C   UNL     1      -3.997  14.072  21.664  0.00  0.00    +0.000 A 
ATOM     26  C   UNL     1      -4.042  13.189  22.733  0.00  0.00    +0.000 A 
ATOM     27  C   UNL     1      -3.019  12.256  22.898  0.00  0.00    +0.000 A 
ATOM     28  C   UNL     1      -1.927  12.200  22.014  0.00  0.00    +0.000 A 
BRANCH  23  30
ATOM     29  C   UNL     1      -0.592  14.293  19.339  0.00  0.00    +0.000 C 
ATOM     30  O   UNL     1      -0.751  13.129  20.150  0.00  0.00    +0.000 OA
ENDBRANCH  23  30
ENDBRANCH  17  28
ENDBRANCH   1  20
BRANCH   9  31
ATOM     31  C   UNL     1       1.532   4.592  17.823  0.00  0.00    +0.000 C 
BRANCH  31  32
ATOM     32  C   UNL     1       1.905   3.153  18.183  0.00  0.00    +0.000 C 
BRANCH  32  33
ATOM     33  C   UNL     1       1.095   2.652  19.395  0.00  0.00    +0.000 C 
BRANCH  33  34
ATOM     34  N   UNL     1       1.891   2.162  20.537  0.00  0.00    +0.000 NA
ATOM     35  C   UNL     1       3.300   2.540  20.441  0.00  0.00    +0.000 C 
ATOM     36  C   UNL     1       1.328   2.671  21.792  0.00  0.00    +0.000 C 
ENDBRANCH  33  34
ENDBRANCH  32  33
ENDBRANCH  31  32
ENDBRANCH   9  31
TORSDOF 8
ENDMDL
MODEL 2
REMARK VINA RESULT:      -7.9      1.638      2.181
REMARK  Name = 
REMARK  11 active torsions:
REMARK  status: ('A' for Active; 'I' for Inactive)
REMARK    1  A    between atoms: C_1  and  O_2
REMARK    2  A    between atoms: O_2  and  C_3
REMARK    3  A    between atoms: C_8  and  C_9
REMARK    4  A    between atoms: C_12  and  C_13
REMARK    5  A    between atoms: C_21  and  C_22
REMARK    6  A    between atoms: C_21  and  C_28
REMARK    7  A    between atoms: C_22  and  C_23
REMARK    8  A    between atoms: C_23  and  C_24
REMARK    9  A    between atoms: C_24  and  N_25
REMARK   10  A    between atoms: N_25  and  C_26
REMARK   11  A    between atoms: N_25  and  C_27
REMARK                            x       y       z     vdW  Elec       q    Type
REMARK                         _______ _______ _______ _____ _____    ______ ____
ROOT
ATOM      1  C   UNL     1       0.705   9.677  20.645  0.00  0.00    +0.000 A 
ATOM      2  C   UNL     1       0.963   8.526  21.417  0.00  0.00    +0.000 A 
ATOM      3  C   UNL     1       1.765   7.472  20.921  0.00  0.00    +0.000 A 
ATOM      4  C   UNL     1       2.260   7.555  19.624  0.00  0.00    +0.000 A 
ATOM      5  C   UNL     1       2.058   8.730  18.903  0.00  0.00    +0.000 A 
ATOM      6  C   UNL     1       1.333   9.804  19.401  0.00  0.00    +0.000 A 
ATOM      7  C   UNL     1       2.455   8.498  17.496  0.00  0.00    +0.000 C 
ATOM      8  O   UNL     1       2.174   7.079  17.398  0.00  0.00    +0.000 OA
ATOM      9  C   UNL     1       2.647   6.463  18.643  0.00  0.00    +0.000 C 
ENDROOT
BRANCH   9  10
ATOM     10  C   UNL     1       4.108   6.091  18.353  0.00  0.00    +0.000 A 
ATOM     11  C   UNL     1       4.939   5.401  19.238  0.00  0.00    +0.000 A 
ATOM     12  C   UNL     1       6.117   4.806  18.760  0.00  0.00    +0.000 A 
ATOM     13  C   UNL     1       6.466   4.905  17.413  0.00  0.00    +0.000 A 
ATOM     14  F   UNL     1       7.533   4.240  16.950  0.00  0.00    +0.000 F 
ATOM     15  C   UNL     1       5.710   5.656  16.537  0.00  0.00    +0.000 A 
ATOM     16  C   UNL     1       4.551   6.262  17.010  0.00  0.00    +0.000 A 
ENDBRANCH   9  10
BRANCH   1  20
ATOM     17  C   UNL     1      -1.605  12.089  22.096  0.00  0.00    +0.000 A 
ATOM     18  N   UNL     1      -2.035  12.022  20.848  0.00  0.00    +0.000 NA
ATOM     19  N   UNL     1      -1.230  11.150  20.160  0.00  0.00    +0.000 NA
ATOM     20  C   UNL     1      -0.319  10.667  20.988  0.00  0.00    +0.000 A 
ATOM     21  N   UNL     1      -0.542  11.235  22.212  0.00  0.00    +0.000 N 
ATOM     22  H   UNL     1      -0.008  11.097  23.062  0.00  0.00    +0.000 HD
BRANCH  17  28
ATOM     23  C   UNL     1      -1.448  14.113  23.619  0.00  0.00    +0.000 A 
ATOM     24  C   UNL     1      -2.081  14.969  24.532  0.00  0.00    +0.000 A 
ATOM     25  C   UNL     1      -3.342  14.656  25.042  0.00  0.00    +0.000 A 
ATOM     26  C   UNL     1      -3.984  13.492  24.643  0.00  0.00    +0.000 A 
ATOM     27  C   UNL     1      -3.380  12.663  23.698  0.00  0.00    +0.000 A 
ATOM     28  C   UNL     1      -2.121  12.969  23.150  0.00  0.00    +0.000 A 
BRANCH  23  30
ATOM     29  C   UNL     1       0.061  15.747  22.818  0.00  0.00    +0.000 C 
ATOM     30  O   UNL     1      -0.187  14.374  23.122  0.00  0.00    +0.000 OA
ENDBRANCH  23  30
ENDBRANCH  17  28
ENDBRANCH   1  20
BRANCH   9  31
ATOM     31  C   UNL     1       1.948   5.101  18.903  0.00  0.00    +0.000 C 
BRANCH  31  32
ATOM     32  C   UNL     1       1.474   4.297  17.692  0.00  0.00    +0.000 C 
BRANCH  32  33
ATOM     33  C   UNL     1       2.521   3.244  17.274  0.00  0.00    +0.000 C 
BRANCH  33  34
ATOM     34  N   UNL     1       2.500   1.983  18.043  0.00  0.00    +0.000 NA
ATOM     35  C   UNL     1       3.666   1.837  18.912  0.00  0.00    +0.000 C 
ATOM     36  C   UNL     1       1.274   1.911  18.845  0.00  0.00    +0.000 C 
ENDBRANCH  33  34
ENDBRANCH  32  33
ENDBRANCH  31  32
ENDBRANCH   9  31
TORSDOF 8
ENDMDL
MODEL 3
REMARK VINA RESULT:      -7.9      1.680      2.486
REMARK  Name = 
REMARK  11 active torsions:
REMARK  status: ('A' for Active; 'I' for Inactive)
REMARK    1  A    between atoms: C_1  and  O_2
REMARK    2  A    between atoms: O_2  and  C_3
REMARK    3  A    between atoms: C_8  and  C_9
REMARK    4  A    between atoms: C_12  and  C_13
REMARK    5  A    between atoms: C_21  and  C_22
REMARK    6  A    between atoms: C_21  and  C_28
REMARK    7  A    between atoms: C_22  and  C_23
REMARK    8  A    between atoms: C_23  and  C_24
REMARK    9  A    between atoms: C_24  and  N_25
REMARK   10  A    between atoms: N_25  and  C_26
REMARK   11  A    between atoms: N_25  and  C_27
REMARK                            x       y       z     vdW  Elec       q    Type
REMARK                         _______ _______ _______ _____ _____    ______ ____
ROOT
ATOM      1  C   UNL     1       0.652   9.762  20.613  0.00  0.00    +0.000 A 
ATOM      2  C   UNL     1       0.878   8.613  21.400  0.00  0.00    +0.000 A 
ATOM      3  C   UNL     1       1.679   7.547  20.931  0.00  0.00    +0.000 A 
ATOM      4  C   UNL     1       2.205   7.614  19.645  0.00  0.00    +0.000 A 
ATOM      5  C   UNL     1       2.034   8.786  18.911  0.00  0.00    +0.000 A 
ATOM      6  C   UNL     1       1.310   9.871  19.384  0.00  0.00    +0.000 A 
ATOM      7  C   UNL     1       2.461   8.538  17.516  0.00  0.00    +0.000 C 
ATOM      8  O   UNL     1       2.166   7.122  17.421  0.00  0.00    +0.000 OA
ATOM      9  C   UNL     1       2.602   6.509  18.681  0.00  0.00    +0.000 C 
ENDROOT
BRANCH   9  10
ATOM     10  C   UNL     1       4.065   6.119  18.428  0.00  0.00    +0.000 A 
ATOM     11  C   UNL     1       4.863   5.412  19.332  0.00  0.00    +0.000 A 
ATOM     12  C   UNL     1       6.044   4.803  18.882  0.00  0.00    +0.000 A 
ATOM     13  C   UNL     1       6.430   4.903  17.545  0.00  0.00    +0.000 A 
ATOM     14  F   UNL     1       7.500   4.226  17.108  0.00  0.00    +0.000 F 
ATOM     15  C   UNL     1       5.709   5.670  16.654  0.00  0.00    +0.000 A 
ATOM     16  C   UNL     1       4.546   6.289  17.099  0.00  0.00    +0.000 A 
ENDBRANCH   9  10
BRANCH   1  20
ATOM     17  C   UNL     1      -1.657  12.218  21.990  0.00  0.00    +0.000 A 
ATOM     18  N   UNL     1      -2.070  12.133  20.738  0.00  0.00    +0.000 NA
ATOM     19  N   UNL     1      -1.263  11.242  20.076  0.00  0.00    +0.000 NA
ATOM     20  C   UNL     1      -0.368  10.766  20.925  0.00  0.00    +0.000 A 
ATOM     21  N   UNL     1      -0.603  11.357  22.135  0.00  0.00    +0.000 N 
ATOM     22  H   UNL     1      -0.082  11.229  22.995  0.00  0.00    +0.000 HD
BRANCH  17  28
ATOM     23  C   UNL     1      -3.508  13.093  23.491  0.00  0.00    +0.000 A 
ATOM     24  C   UNL     1      -3.880  13.901  24.575  0.00  0.00    +0.000 A 
ATOM     25  C   UNL     1      -2.968  14.791  25.144  0.00  0.00    +0.000 A 
ATOM     26  C   UNL     1      -1.677  14.880  24.641  0.00  0.00    +0.000 A 
ATOM     27  C   UNL     1      -1.287  14.043  23.596  0.00  0.00    +0.000 A 
ATOM     28  C   UNL     1      -2.180  13.120  23.022  0.00  0.00    +0.000 A 
BRANCH  23  30
ATOM     29  C   UNL     1      -5.348  12.859  22.026  0.00  0.00    +0.000 C 
ATOM     30  O   UNL     1      -4.395  12.228  22.882  0.00  0.00    +0.000 OA
ENDBRANCH  23  30
ENDBRANCH  17  28
ENDBRANCH   1  20
BRANCH   9  31
ATOM     31  C   UNL     1       1.881   5.158  18.935  0.00  0.00    +0.000 C 
BRANCH  31  32
ATOM     32  C   UNL     1       1.415   4.357  17.719  0.00  0.00    +0.000 C 
BRANCH  32  33
ATOM     33  C   UNL     1       2.480   3.329  17.284  0.00  0.00    +0.000 C 
BRANCH  33  34
ATOM     34  N   UNL     1       2.458   2.042  18.007  0.00  0.00    +0.000 NA
ATOM     35  C   UNL     1       3.623   1.866  18.872  0.00  0.00    +0.000 C 
ATOM     36  C   UNL     1       1.231   1.941  18.805  0.00  0.00    +0.000 C 
ENDBRANCH  33  34
ENDBRANCH  32  33
ENDBRANCH  31  32
ENDBRANCH   9  31
TORSDOF 8
ENDMDL
MODEL 4
REMARK VINA RESULT:      -7.9      1.702      2.163
REMARK  Name = 
REMARK  11 active torsions:
REMARK  status: ('A' for Active; 'I' for Inactive)
REMARK    1  A    between atoms: C_1  and  O_2
REMARK    2  A    between atoms: O_2  and  C_3
REMARK    3  A    between atoms: C_8  and  C_9
REMARK    4  A    between atoms: C_12  and  C_13
REMARK    5  A    between atoms: C_21  and  C_22
REMARK    6  A    between atoms: C_21  and  C_28
REMARK    7  A    between atoms: C_22  and  C_23
REMARK    8  A    between atoms: C_23  and  C_24
REMARK    9  A    between atoms: C_24  and  N_25
REMARK   10  A    between atoms: N_25  and  C_26
REMARK   11  A    between atoms: N_25  and  C_27
REMARK                            x       y       z     vdW  Elec       q    Type
REMARK                         _______ _______ _______ _____ _____    ______ ____
ROOT
ATOM      1  C   UNL     1       0.675   9.695  20.630  0.00  0.00    +0.000 A 
ATOM      2  C   UNL     1       0.913   8.532  21.391  0.00  0.00    +0.000 A 
ATOM      3  C   UNL     1       1.687   7.465  20.880  0.00  0.00    +0.000 A 
ATOM      4  C   UNL     1       2.174   7.548  19.580  0.00  0.00    +0.000 A 
ATOM      5  C   UNL     1       1.993   8.733  18.870  0.00  0.00    +0.000 A 
ATOM      6  C   UNL     1       1.295   9.818  19.383  0.00  0.00    +0.000 A 
ATOM      7  C   UNL     1       2.374   8.504  17.459  0.00  0.00    +0.000 C 
ATOM      8  O   UNL     1       2.061   7.093  17.350  0.00  0.00    +0.000 OA
ATOM      9  C   UNL     1       2.529   6.455  18.587  0.00  0.00    +0.000 C 
ENDROOT
BRANCH   9  10
ATOM     10  C   UNL     1       3.980   6.054  18.282  0.00  0.00    +0.000 A 
ATOM     11  C   UNL     1       4.700   6.482  17.164  0.00  0.00    +0.000 A 
ATOM     12  C   UNL     1       6.098   6.358  17.153  0.00  0.00    +0.000 A 
ATOM     13  C   UNL     1       6.770   5.806  18.244  0.00  0.00    +0.000 A 
ATOM     14  F   UNL     1       8.110   5.795  18.265  0.00  0.00    +0.000 F 
ATOM     15  C   UNL     1       6.077   5.294  19.320  0.00  0.00    +0.000 A 
ATOM     16  C   UNL     1       4.689   5.399  19.328  0.00  0.00    +0.000 A 
ENDBRANCH   9  10
BRANCH   1  20
ATOM     17  C   UNL     1      -1.593  12.121  22.125  0.00  0.00    +0.000 A 
ATOM     18  N   UNL     1      -1.990  12.123  20.865  0.00  0.00    +0.000 NA
ATOM     19  N   UNL     1      -1.196  11.253  20.160  0.00  0.00    +0.000 NA
ATOM     20  C   UNL     1      -0.325  10.704  20.990  0.00  0.00    +0.000 A 
ATOM     21  N   UNL     1      -0.562  11.227  22.231  0.00  0.00    +0.000 N 
ATOM     22  H   UNL     1      -0.057  11.034  23.088  0.00  0.00    +0.000 HD
BRANCH  17  28
ATOM     23  C   UNL     1      -1.444  14.117  23.686  0.00  0.00    +0.000 A 
ATOM     24  C   UNL     1      -2.078  14.945  24.624  0.00  0.00    +0.000 A 
ATOM     25  C   UNL     1      -3.328  14.604  25.144  0.00  0.00    +0.000 A 
ATOM     26  C   UNL     1      -3.958  13.439  24.730  0.00  0.00    +0.000 A 
ATOM     27  C   UNL     1      -3.355  12.637  23.760  0.00  0.00    +0.000 A 
ATOM     28  C   UNL     1      -2.108  12.972  23.203  0.00  0.00    +0.000 A 
BRANCH  23  30
ATOM     29  C   UNL     1      -0.055  15.727  22.656  0.00  0.00    +0.000 C 
ATOM     30  O   UNL     1      -0.194  14.406  23.179  0.00  0.00    +0.000 OA
ENDBRANCH  23  30
ENDBRANCH  17  28
ENDBRANCH   1  20
BRANCH   9  31
ATOM     31  C   UNL     1       1.803   5.107  18.841  0.00  0.00    +0.000 C 
BRANCH  31  32
ATOM     32  C   UNL     1       1.424   4.259  17.627  0.00  0.00    +0.000 C 
BRANCH  32  33
ATOM     33  C   UNL     1       2.318   3.007  17.517  0.00  0.00    +0.000 C 
BRANCH  33  34
ATOM     34  N   UNL     1       2.732   2.404  18.800  0.00  0.00    +0.000 NA
ATOM     35  C   UNL     1       1.608   1.827  19.536  0.00  0.00    +0.000 C 
ATOM     36  C   UNL     1       3.746   1.372  18.560  0.00  0.00    +0.000 C 
ENDBRANCH  33  34
ENDBRANCH  32  33
ENDBRANCH  31  32
ENDBRANCH   9  31
TORSDOF 8
ENDMDL
MODEL 5
REMARK VINA RESULT:      -7.9      1.779      2.487
REMARK  Name = 
REMARK  11 active torsions:
REMARK  status: ('A' for Active; 'I' for Inactive)
REMARK    1  A    between atoms: C_1  and  O_2
REMARK    2  A    between atoms: O_2  and  C_3
REMARK    3  A    between atoms: C_8  and  C_9
REMARK    4  A    between atoms: C_12  and  C_13
REMARK    5  A    between atoms: C_21  and  C_22
REMARK    6  A    between atoms: C_21  and  C_28
REMARK    7  A    between atoms: C_22  and  C_23
REMARK    8  A    between atoms: C_23  and  C_24
REMARK    9  A    between atoms: C_24  and  N_25
REMARK   10  A    between atoms: N_25  and  C_26
REMARK   11  A    between atoms: N_25  and  C_27
REMARK                            x       y       z     vdW  Elec       q    Type
REMARK                         _______ _______ _______ _____ _____    ______ ____
ROOT
ATOM      1  C   UNL     1       0.608   9.851  20.614  0.00  0.00    +0.000 A 
ATOM      2  C   UNL     1       0.863   8.706  21.397  0.00  0.00    +0.000 A 
ATOM      3  C   UNL     1       1.642   7.635  20.900  0.00  0.00    +0.000 A 
ATOM      4  C   UNL     1       2.117   7.695  19.595  0.00  0.00    +0.000 A 
ATOM      5  C   UNL     1       1.919   8.864  18.862  0.00  0.00    +0.000 A 
ATOM      6  C   UNL     1       1.216   9.953  19.359  0.00  0.00    +0.000 A 
ATOM      7  C   UNL     1       2.290   8.609  17.453  0.00  0.00    +0.000 C 
ATOM      8  O   UNL     1       1.989   7.193  17.376  0.00  0.00    +0.000 OA
ATOM      9  C   UNL     1       2.473   6.586  18.621  0.00  0.00    +0.000 C 
ENDROOT
BRANCH   9  10
ATOM     10  C   UNL     1       3.925   6.191  18.312  0.00  0.00    +0.000 A 
ATOM     11  C   UNL     1       4.670   6.692  17.241  0.00  0.00    +0.000 A 
ATOM     12  C   UNL     1       6.066   6.552  17.244  0.00  0.00    +0.000 A 
ATOM     13  C   UNL     1       6.713   5.914  18.303  0.00  0.00    +0.000 A 
ATOM     14  F   UNL     1       8.052   5.886  18.346  0.00  0.00    +0.000 F 
ATOM     15  C   UNL     1       5.995   5.332  19.326  0.00  0.00    +0.000 A 
ATOM     16  C   UNL     1       4.609   5.453  19.319  0.00  0.00    +0.000 A 
ENDBRANCH   9  10
BRANCH   1  20
ATOM     17  C   UNL     1      -1.649  12.308  22.072  0.00  0.00    +0.000 A 
ATOM     18  N   UNL     1      -2.096  12.237  20.831  0.00  0.00    +0.000 NA
ATOM     19  N   UNL     1      -1.312  11.347  20.140  0.00  0.00    +0.000 NA
ATOM     20  C   UNL     1      -0.398  10.858  20.961  0.00  0.00    +0.000 A 
ATOM     21  N   UNL     1      -0.597  11.440  22.182  0.00  0.00    +0.000 N 
ATOM     22  H   UNL     1      -0.055  11.301  23.027  0.00  0.00    +0.000 HD
BRANCH  17  28
ATOM     23  C   UNL     1      -3.446  13.162  23.649  0.00  0.00    +0.000 A 
ATOM     24  C   UNL     1      -3.782  13.966  24.748  0.00  0.00    +0.000 A 
ATOM     25  C   UNL     1      -2.857  14.867  25.279  0.00  0.00    +0.000 A 
ATOM     26  C   UNL     1      -1.590  14.970  24.723  0.00  0.00    +0.000 A 
ATOM     27  C   UNL     1      -1.234  14.138  23.662  0.00  0.00    +0.000 A 
ATOM     28  C   UNL     1      -2.139  13.205  23.125  0.00  0.00    +0.000 A 
BRANCH  23  30
ATOM     29  C   UNL     1      -5.465  12.912  22.446  0.00  0.00    +0.000 C 
ATOM     30  O   UNL     1      -4.347  12.287  23.078  0.00  0.00    +0.000 OA
ENDBRANCH  23  30
ENDBRANCH  17  28
ENDBRANCH   1  20
BRANCH   9  31
ATOM     31  C   UNL     1       1.762   5.237  18.910  0.00  0.00    +0.000 C 
BRANCH  31  32
ATOM     32  C   UNL     1       1.492   4.304  17.729  0.00  0.00    +0.000 C 
BRANCH  32  33
ATOM     33  C   UNL     1       1.701   2.827  18.123  0.00  0.00    +0.000 C 
BRANCH  33  34
ATOM     34  N   UNL     1       2.658   2.589  19.222  0.00  0.00    +0.000 NA
ATOM     35  C   UNL     1       2.000   2.150  20.452  0.00  0.00    +0.000 C 
ATOM     36  C   UNL     1       3.651   1.591  18.810  0.00  0.00    +0.000 C 
ENDBRANCH  33  34
ENDBRANCH  32  33
ENDBRANCH  31  32
ENDBRANCH   9  31
TORSDOF 8
ENDMDL
MODEL 6
REMARK VINA RESULT:      -7.8      3.877     10.572
REMARK  Name = 
REMARK  11 active torsions:
REMARK  status: ('A' for Active; 'I' for Inactive)
REMARK    1  A    between atoms: C_1  and  O_2
REMARK    2  A    between atoms: O_2  and  C_3
REMARK    3  A    between atoms: C_8  and  C_9
REMARK    4  A    between atoms: C_12  and  C_13
REMARK    5  A    between atoms: C_21  and  C_22
REMARK    6  A    between atoms: C_21  and  C_28
REMARK    7  A    between atoms: C_22  and  C_23
REMARK    8  A    between atoms: C_23  and  C_24
REMARK    9  A    between atoms: C_24  and  N_25
REMARK   10  A    between atoms: N_25  and  C_26
REMARK   11  A    between atoms: N_25  and  C_27
REMARK                            x       y       z     vdW  Elec       q    Type
REMARK                         _______ _______ _______ _____ _____    ______ ____
ROOT
ATOM      1  C   UNL     1       0.215  10.093  20.140  0.00  0.00    +0.000 A 
ATOM      2  C   UNL     1       0.529  10.260  21.505  0.00  0.00    +0.000 A 
ATOM      3  C   UNL     1      -0.210  11.142  22.326  0.00  0.00    +0.000 A 
ATOM      4  C   UNL     1      -1.230  11.898  21.759  0.00  0.00    +0.000 A 
ATOM      5  C   UNL     1      -1.575  11.667  20.428  0.00  0.00    +0.000 A 
ATOM      6  C   UNL     1      -0.905  10.754  19.625  0.00  0.00    +0.000 A 
ATOM      7  C   UNL     1      -2.500  12.734  19.986  0.00  0.00    +0.000 C 
ATOM      8  O   UNL     1      -2.046  13.816  20.838  0.00  0.00    +0.000 OA
ATOM      9  C   UNL     1      -1.808  13.241  22.167  0.00  0.00    +0.000 C 
ENDROOT
BRANCH   9  10
ATOM     10  C   UNL     1      -3.158  13.376  22.886  0.00  0.00    +0.000 A 
ATOM     11  C   UNL     1      -4.228  14.146  22.423  0.00  0.00    +0.000 A 
ATOM     12  C   UNL     1      -5.513  13.930  22.945  0.00  0.00    +0.000 A 
ATOM     13  C   UNL     1      -5.727  12.960  23.924  0.00  0.00    +0.000 A 
ATOM     14  F   UNL     1      -6.974  12.690  24.333  0.00  0.00    +0.000 F 
ATOM     15  C   UNL     1      -4.675  12.250  24.463  0.00  0.00    +0.000 A 
ATOM     16  C   UNL     1      -3.397  12.473  23.961  0.00  0.00    +0.000 A 
ENDBRANCH   9  10
BRANCH   1  20
ATOM     17  C   UNL     1       2.493   7.975  18.247  0.00  0.00    +0.000 A 
ATOM     18  N   UNL     1       2.275   8.963  17.397  0.00  0.00    +0.000 NA
ATOM     19  N   UNL     1       1.400   9.846  17.976  0.00  0.00    +0.000 NA
ATOM     20  C   UNL     1       1.094   9.412  19.187  0.00  0.00    +0.000 A 
ATOM     21  N   UNL     1       1.777   8.243  19.382  0.00  0.00    +0.000 N 
ATOM     22  H   UNL     1       1.749   7.642  20.197  0.00  0.00    +0.000 HD
BRANCH  17  28
ATOM     23  C   UNL     1       3.042   5.522  18.599  0.00  0.00    +0.000 A 
ATOM     24  C   UNL     1       3.777   4.396  18.198  0.00  0.00    +0.000 A 
ATOM     25  C   UNL     1       4.809   4.517  17.266  0.00  0.00    +0.000 A 
ATOM     26  C   UNL     1       5.115   5.757  16.724  0.00  0.00    +0.000 A 
ATOM     27  C   UNL     1       4.356   6.871  17.082  0.00  0.00    +0.000 A 
ATOM     28  C   UNL     1       3.294   6.771  17.999  0.00  0.00    +0.000 A 
BRANCH  23  30
ATOM     29  C   UNL     1       1.421   4.162  19.651  0.00  0.00    +0.000 C 
ATOM     30  O   UNL     1       2.039   5.444  19.543  0.00  0.00    +0.000 OA
ENDBRANCH  23  30
ENDBRANCH  17  28
ENDBRANCH   1  20
BRANCH   9  31
ATOM     31  C   UNL     1      -0.839  14.122  23.001  0.00  0.00    +0.000 C 
BRANCH  31  32
ATOM     32  C   UNL     1      -0.025  15.185  22.264  0.00  0.00    +0.000 C 
BRANCH  32  33
ATOM     33  C   UNL     1       1.291  14.600  21.712  0.00  0.00    +0.000 C 
BRANCH  33  34
ATOM     34  N   UNL     1       1.344  14.418  20.248  0.00  0.00    +0.000 NA
ATOM     35  C   UNL     1       1.890  15.585  19.558  0.00  0.00    +0.000 C 
ATOM     36  C   UNL     1       2.146  13.233  19.923  0.00  0.00    +0.000 C 
ENDBRANCH  33  34
ENDBRANCH  32  33
ENDBRANCH  31  32
ENDBRANCH   9  31
TORSDOF 8
ENDMDL
MODEL 7
REMARK VINA RESULT:      -7.8      3.917     10.573
REMARK  Name = 
REMARK  11 active torsions:
REMARK  status: ('A' for Active; 'I' for Inactive)
REMARK    1  A    between atoms: C_1  and  O_2
REMARK    2  A    between atoms: O_2  and  C_3
REMARK    3  A    between atoms: C_8  and  C_9
REMARK    4  A    between atoms: C_12  and  C_13
REMARK    5  A    between atoms: C_21  and  C_22
REMARK    6  A    between atoms: C_21  and  C_28
REMARK    7  A    between atoms: C_22  and  C_23
REMARK    8  A    between atoms: C_23  and  C_24
REMARK    9  A    between atoms: C_24  and  N_25
REMARK   10  A    between atoms: N_25  and  C_26
REMARK   11  A    between atoms: N_25  and  C_27
REMARK                            x       y       z     vdW  Elec       q    Type
REMARK                         _______ _______ _______ _____ _____    ______ ____
ROOT
ATOM      1  C   UNL     1       0.573   9.685  19.753  0.00  0.00    +0.000 A 
ATOM      2  C   UNL     1       0.801   9.818  21.138  0.00  0.00    +0.000 A 
ATOM      3  C   UNL     1      -0.017  10.648  21.941  0.00  0.00    +0.000 A 
ATOM      4  C   UNL     1      -1.028  11.386  21.336  0.00  0.00    +0.000 A 
ATOM      5  C   UNL     1      -1.286  11.186  19.981  0.00  0.00    +0.000 A 
ATOM      6  C   UNL     1      -0.538  10.322  19.192  0.00  0.00    +0.000 A 
ATOM      7  C   UNL     1      -2.222  12.233  19.516  0.00  0.00    +0.000 C 
ATOM      8  O   UNL     1      -1.858  13.303  20.425  0.00  0.00    +0.000 OA
ATOM      9  C   UNL     1      -1.677  12.695  21.749  0.00  0.00    +0.000 C 
ENDROOT
BRANCH   9  10
ATOM     10  C   UNL     1      -3.071  12.760  22.390  0.00  0.00    +0.000 A 
ATOM     11  C   UNL     1      -3.379  12.276  23.664  0.00  0.00    +0.000 A 
ATOM     12  C   UNL     1      -4.563  12.690  24.294  0.00  0.00    +0.000 A 
ATOM     13  C   UNL     1      -5.435  13.573  23.656  0.00  0.00    +0.000 A 
ATOM     14  F   UNL     1      -6.504  14.044  24.312  0.00  0.00    +0.000 F 
ATOM     15  C   UNL     1      -5.200  13.993  22.364  0.00  0.00    +0.000 A 
ATOM     16  C   UNL     1      -4.036  13.572  21.729  0.00  0.00    +0.000 A 
ENDBRANCH   9  10
BRANCH   1  20
ATOM     17  C   UNL     1       2.961   7.659  17.895  0.00  0.00    +0.000 A 
ATOM     18  N   UNL     1       2.906   8.754  17.158  0.00  0.00    +0.000 NA
ATOM     19  N   UNL     1       2.011   9.619  17.734  0.00  0.00    +0.000 NA
ATOM     20  C   UNL     1       1.531   9.064  18.834  0.00  0.00    +0.000 A 
ATOM     21  N   UNL     1       2.120   7.837  18.960  0.00  0.00    +0.000 N 
ATOM     22  H   UNL     1       1.956   7.145  19.682  0.00  0.00    +0.000 HD
BRANCH  17  28
ATOM     23  C   UNL     1       3.225   5.137  17.776  0.00  0.00    +0.000 A 
ATOM     24  C   UNL     1       3.975   4.037  17.333  0.00  0.00    +0.000 A 
ATOM     25  C   UNL     1       5.246   4.218  16.785  0.00  0.00    +0.000 A 
ATOM     26  C   UNL     1       5.777   5.495  16.669  0.00  0.00    +0.000 A 
ATOM     27  C   UNL     1       5.016   6.596  17.062  0.00  0.00    +0.000 A 
ATOM     28  C   UNL     1       3.723   6.442  17.594  0.00  0.00    +0.000 A 
BRANCH  23  30
ATOM     29  C   UNL     1       1.932   4.055  19.432  0.00  0.00    +0.000 C 
ATOM     30  O   UNL     1       1.981   4.991  18.355  0.00  0.00    +0.000 OA
ENDBRANCH  23  30
ENDBRANCH  17  28
ENDBRANCH   1  20
BRANCH   9  31
ATOM     31  C   UNL     1      -0.791  13.582  22.664  0.00  0.00    +0.000 C 
BRANCH  31  32
ATOM     32  C   UNL     1      -0.051  14.756  22.024  0.00  0.00    +0.000 C 
BRANCH  32  33
ATOM     33  C   UNL     1       1.334  14.326  21.499  0.00  0.00    +0.000 C 
BRANCH  33  34
ATOM     34  N   UNL     1       1.508  14.382  20.034  0.00  0.00    +0.000 NA
ATOM     35  C   UNL     1       2.443  15.427  19.621  0.00  0.00    +0.000 C 
ATOM     36  C   UNL     1       1.970  13.081  19.538  0.00  0.00    +0.000 C 
ENDBRANCH  33  34
ENDBRANCH  32  33
ENDBRANCH  31  32
ENDBRANCH   9  31
TORSDOF 8
ENDMDL
MODEL 8
REMARK VINA RESULT:      -7.7      3.979     10.947
REMARK  Name = 
REMARK  11 active torsions:
REMARK  status: ('A' for Active; 'I' for Inactive)
REMARK    1  A    between atoms: C_1  and  O_2
REMARK    2  A    between atoms: O_2  and  C_3
REMARK    3  A    between atoms: C_8  and  C_9
REMARK    4  A    between atoms: C_12  and  C_13
REMARK    5  A    between atoms: C_21  and  C_22
REMARK    6  A    between atoms: C_21  and  C_28
REMARK    7  A    between atoms: C_22  and  C_23
REMARK    8  A    between atoms: C_23  and  C_24
REMARK    9  A    between atoms: C_24  and  N_25
REMARK   10  A    between atoms: N_25  and  C_26
REMARK   11  A    between atoms: N_25  and  C_27
REMARK                            x       y       z     vdW  Elec       q    Type
REMARK                         _______ _______ _______ _____ _____    ______ ____
ROOT
ATOM      1  C   UNL     1       0.591   9.625  19.736  0.00  0.00    +0.000 A 
ATOM      2  C   UNL     1       0.795   9.697  21.130  0.00  0.00    +0.000 A 
ATOM      3  C   UNL     1      -0.009  10.524  21.948  0.00  0.00    +0.000 A 
ATOM      4  C   UNL     1      -0.982  11.319  21.354  0.00  0.00    +0.000 A 
ATOM      5  C   UNL     1      -1.220  11.180  19.988  0.00  0.00    +0.000 A 
ATOM      6  C   UNL     1      -0.487  10.321  19.180  0.00  0.00    +0.000 A 
ATOM      7  C   UNL     1      -2.110  12.277  19.547  0.00  0.00    +0.000 C 
ATOM      8  O   UNL     1      -1.728  13.297  20.503  0.00  0.00    +0.000 OA
ATOM      9  C   UNL     1      -1.595  12.634  21.805  0.00  0.00    +0.000 C 
ENDROOT
BRANCH   9  10
ATOM     10  C   UNL     1      -2.998  12.723  22.422  0.00  0.00    +0.000 A 
ATOM     11  C   UNL     1      -3.341  12.227  23.683  0.00  0.00    +0.000 A 
ATOM     12  C   UNL     1      -4.526  12.659  24.298  0.00  0.00    +0.000 A 
ATOM     13  C   UNL     1      -5.364  13.573  23.659  0.00  0.00    +0.000 A 
ATOM     14  F   UNL     1      -6.433  14.060  24.303  0.00  0.00    +0.000 F 
ATOM     15  C   UNL     1      -5.095  14.008  22.378  0.00  0.00    +0.000 A 
ATOM     16  C   UNL     1      -3.930  13.569  21.758  0.00  0.00    +0.000 A 
ENDBRANCH   9  10
BRANCH   1  20
ATOM     17  C   UNL     1       2.991   7.616  17.876  0.00  0.00    +0.000 A 
ATOM     18  N   UNL     1       2.892   8.691  17.114  0.00  0.00    +0.000 NA
ATOM     19  N   UNL     1       1.987   9.546  17.689  0.00  0.00    +0.000 NA
ATOM     20  C   UNL     1       1.545   9.006  18.812  0.00  0.00    +0.000 A 
ATOM     21  N   UNL     1       2.170   7.799  18.955  0.00  0.00    +0.000 N 
ATOM     22  H   UNL     1       2.039   7.121  19.697  0.00  0.00    +0.000 HD
BRANCH  17  28
ATOM     23  C   UNL     1       3.435   5.122  18.035  0.00  0.00    +0.000 A 
ATOM     24  C   UNL     1       4.173   4.013  17.596  0.00  0.00    +0.000 A 
ATOM     25  C   UNL     1       5.296   4.183  16.785  0.00  0.00    +0.000 A 
ATOM     26  C   UNL     1       5.689   5.457  16.399  0.00  0.00    +0.000 A 
ATOM     27  C   UNL     1       4.929   6.559  16.791  0.00  0.00    +0.000 A 
ATOM     28  C   UNL     1       3.779   6.412  17.588  0.00  0.00    +0.000 A 
BRANCH  23  30
ATOM     29  C   UNL     1       1.442   3.943  18.508  0.00  0.00    +0.000 C 
ATOM     30  O   UNL     1       2.341   4.992  18.866  0.00  0.00    +0.000 OA
ENDBRANCH  23  30
ENDBRANCH  17  28
ENDBRANCH   1  20
BRANCH   9  31
ATOM     31  C   UNL     1      -0.697  13.453  22.771  0.00  0.00    +0.000 C 
BRANCH  31  32
ATOM     32  C   UNL     1      -0.472  14.932  22.456  0.00  0.00    +0.000 C 
BRANCH  32  33
ATOM     33  C   UNL     1      -0.829  15.822  23.664  0.00  0.00    +0.000 C 
BRANCH  33  34
ATOM     34  N   UNL     1      -2.165  15.596  24.251  0.00  0.00    +0.000 NA
ATOM     35  C   UNL     1      -2.111  15.362  25.693  0.00  0.00    +0.000 C 
ATOM     36  C   UNL     1      -3.032  16.746  23.969  0.00  0.00    +0.000 C 
ENDBRANCH  33  34
ENDBRANCH  32  33
ENDBRANCH  31  32
ENDBRANCH   9  31
TORSDOF 8
ENDMDL
MODEL 9
REMARK VINA RESULT:      -7.7      1.636      2.269
REMARK  Name = 
REMARK  11 active torsions:
REMARK  status: ('A' for Active; 'I' for Inactive)
REMARK    1  A    between atoms: C_1  and  O_2
REMARK    2  A    between atoms: O_2  and  C_3
REMARK    3  A    between atoms: C_8  and  C_9
REMARK    4  A    between atoms: C_12  and  C_13
REMARK    5  A    between atoms: C_21  and  C_22
REMARK    6  A    between atoms: C_21  and  C_28
REMARK    7  A    between atoms: C_22  and  C_23
REMARK    8  A    between atoms: C_23  and  C_24
REMARK    9  A    between atoms: C_24  and  N_25
REMARK   10  A    between atoms: N_25  and  C_26
REMARK   11  A    between atoms: N_25  and  C_27
REMARK                            x       y       z     vdW  Elec       q    Type
REMARK                         _______ _______ _______ _____ _____    ______ ____
ROOT
ATOM      1  C   UNL     1       0.843   9.522  20.458  0.00  0.00    +0.000 A 
ATOM      2  C   UNL     1       0.963   8.406  21.311  0.00  0.00    +0.000 A 
ATOM      3  C   UNL     1       1.641   7.236  20.899  0.00  0.00    +0.000 A 
ATOM      4  C   UNL     1       2.150   7.171  19.607  0.00  0.00    +0.000 A 
ATOM      5  C   UNL     1       2.088   8.308  18.803  0.00  0.00    +0.000 A 
ATOM      6  C   UNL     1       1.487   9.489  19.217  0.00  0.00    +0.000 A 
ATOM      7  C   UNL     1       2.463   7.934  17.422  0.00  0.00    +0.000 C 
ATOM      8  O   UNL     1       2.021   6.553  17.417  0.00  0.00    +0.000 OA
ATOM      9  C   UNL     1       2.414   5.975  18.708  0.00  0.00    +0.000 C 
ENDROOT
BRANCH   9  10
ATOM     10  C   UNL     1       3.825   5.420  18.463  0.00  0.00    +0.000 A 
ATOM     11  C   UNL     1       4.274   4.914  17.241  0.00  0.00    +0.000 A 
ATOM     12  C   UNL     1       5.652   4.764  17.020  0.00  0.00    +0.000 A 
ATOM     13  C   UNL     1       6.572   5.110  18.010  0.00  0.00    +0.000 A 
ATOM     14  F   UNL     1       7.884   5.066  17.744  0.00  0.00    +0.000 F 
ATOM     15  C   UNL     1       6.151   5.526  19.255  0.00  0.00    +0.000 A 
ATOM     16  C   UNL     1       4.786   5.660  19.485  0.00  0.00    +0.000 A 
ENDBRANCH   9  10
BRANCH   1  20
ATOM     17  C   UNL     1      -1.292  12.185  21.727  0.00  0.00    +0.000 A 
ATOM     18  N   UNL     1      -1.501  12.270  20.426  0.00  0.00    +0.000 NA
ATOM     19  N   UNL     1      -0.731  11.322  19.801  0.00  0.00    +0.000 NA
ATOM     20  C   UNL     1      -0.063  10.643  20.719  0.00  0.00    +0.000 A 
ATOM     21  N   UNL     1      -0.408  11.161  21.936  0.00  0.00    +0.000 N 
ATOM     22  H   UNL     1      -0.059  10.882  22.846  0.00  0.00    +0.000 HD
BRANCH  17  28
ATOM     23  C   UNL     1      -3.178  13.013  23.210  0.00  0.00    +0.000 A 
ATOM     24  C   UNL     1      -3.580  13.804  24.296  0.00  0.00    +0.000 A 
ATOM     25  C   UNL     1      -2.692  14.707  24.885  0.00  0.00    +0.000 A 
ATOM     26  C   UNL     1      -1.397  14.823  24.400  0.00  0.00    +0.000 A 
ATOM     27  C   UNL     1      -0.977  14.003  23.353  0.00  0.00    +0.000 A 
ATOM     28  C   UNL     1      -1.845  13.068  22.760  0.00  0.00    +0.000 A 
BRANCH  23  30
ATOM     29  C   UNL     1      -5.039  12.761  21.775  0.00  0.00    +0.000 C 
ATOM     30  O   UNL     1      -4.041  12.137  22.583  0.00  0.00    +0.000 OA
ENDBRANCH  23  30
ENDBRANCH  17  28
ENDBRANCH   1  20
BRANCH   9  31
ATOM     31  C   UNL     1       1.562   4.723  19.052  0.00  0.00    +0.000 C 
BRANCH  31  32
ATOM     32  C   UNL     1       1.847   4.005  20.371  0.00  0.00    +0.000 C 
BRANCH  32  33
ATOM     33  C   UNL     1       2.289   2.547  20.130  0.00  0.00    +0.000 C 
BRANCH  33  34
ATOM     34  N   UNL     1       3.608   2.377  19.489  0.00  0.00    +0.000 NA
ATOM     35  C   UNL     1       4.633   1.923  20.427  0.00  0.00    +0.000 C 
ATOM     36  C   UNL     1       3.500   1.426  18.377  0.00  0.00    +0.000 C 
ENDBRANCH  33  34
ENDBRANCH  32  33
ENDBRANCH  31  32
ENDBRANCH   9  31
TORSDOF 8
ENDMDL
