MODEL 1
REMARK VINA RESULT:      -8.0      0.000      0.000
REMARK  Name = 
REMARK  3 active torsions:
REMARK  status: ('A' for Active; 'I' for Inactive)
REMARK    1  A    between atoms: C_5  and  O_6
REMARK    2  A    between atoms: C_5  and  C_7
REMARK    3  A    between atoms: N_9  and  C_10
REMARK                            x       y       z     vdW  Elec       q    Type
REMARK                         _______ _______ _______ _____ _____    ______ ____
ROOT
ATOM      1  C   UNL     1       4.148   5.156  18.919  0.00  0.00    +0.000 A 
ATOM      2  C   UNL     1       3.779   6.443  18.606  0.00  0.00    +0.000 A 
ATOM      3  N   UNL     1       2.686   6.709  19.384  0.00  0.00    +0.000 N 
ATOM      4  N   UNL     1       2.452   5.659  20.206  0.00  0.00    +0.000 NA
ATOM      5  N   UNL     1       3.324   4.699  19.917  0.00  0.00    +0.000 NA
ENDROOT
BRANCH   3   6
ATOM      6  C   UNL     1       1.903   7.883  19.385  0.00  0.00    +0.000 A 
ATOM      7  C   UNL     1       1.881   8.693  18.248  0.00  0.00    +0.000 A 
ATOM      8  C   UNL     1       1.046   9.802  18.217  0.00  0.00    +0.000 A 
ATOM      9  C   UNL     1       0.733  10.384  19.451  0.00  0.00    +0.000 A 
ATOM     10  N   UNL     1       0.456  11.719  19.678  0.00  0.00    +0.000 NA
ATOM     11  C   UNL     1       0.324  11.910  20.971  0.00  0.00    +0.000 A 
ATOM     12  S   UNL     1       0.193  10.491  21.927  0.00  0.00    +0.000 S 
ATOM     13  C   UNL     1       0.736   9.564  20.581  0.00  0.00    +0.000 A 
ATOM     14  C   UNL     1       1.142   8.223  20.514  0.00  0.00    +0.000 A 
ENDBRANCH   3   6
BRANCH   1  19
ATOM     15  O   UNL     1       7.649   5.158  14.992  0.00  0.00    +0.000 OA
ATOM     16  C   UNL     1       6.916   4.921  15.945  0.00  0.00    +0.000 C 
ATOM     17  C   UNL     1       5.643   4.227  15.788  0.00  0.00    +0.000 C 
ATOM     18  C   UNL     1       4.864   3.963  16.850  0.00  0.00    +0.000 C 
ATOM     19  C   UNL     1       5.222   4.340  18.262  0.00  0.00    +0.000 C 
ATOM     20  C   UNL     1       6.541   5.062  18.363  0.00  0.00    +0.000 C 
ATOM     21  C   UNL     1       7.325   5.361  17.319  0.00  0.00    +0.000 C 
BRANCH  19  22
ATOM     22  O   UNL     1       5.424   3.113  18.973  0.00  0.00    +0.000 OA
ATOM     23  H   UNL     1       5.722   2.456  18.324  0.00  0.00    +0.000 HD
ENDBRANCH  19  22
ENDBRANCH   1  19
TORSDOF 3
ENDMDL
MODEL 2
REMARK VINA RESULT:      -7.7      1.130      1.562
REMARK  Name = 
REMARK  3 active torsions:
REMARK  status: ('A' for Active; 'I' for Inactive)
REMARK    1  A    between atoms: C_5  and  O_6
REMARK    2  A    between atoms: C_5  and  C_7
REMARK    3  A    between atoms: N_9  and  C_10
REMARK                            x       y       z     vdW  Elec       q    Type
REMARK                         _______ _______ _______ _____ _____    ______ ____
ROOT
ATOM      1  C   UNL     1       3.872   4.945  19.064  0.00  0.00    +0.000 A 
ATOM      2  C   UNL     1       3.740   6.306  19.212  0.00  0.00    +0.000 A 
ATOM      3  N   UNL     1       2.507   6.493  19.776  0.00  0.00    +0.000 N 
ATOM      4  N   UNL     1       1.948   5.290  20.044  0.00  0.00    +0.000 NA
ATOM      5  N   UNL     1       2.761   4.341  19.596  0.00  0.00    +0.000 NA
ENDROOT
BRANCH   3   6
ATOM      6  C   UNL     1       1.880   7.723  20.070  0.00  0.00    +0.000 A 
ATOM      7  C   UNL     1       1.485   7.994  21.382  0.00  0.00    +0.000 A 
ATOM      8  C   UNL     1       0.946   9.237  21.687  0.00  0.00    +0.000 A 
ATOM      9  C   UNL     1       0.296   9.910  20.646  0.00  0.00    +0.000 A 
ATOM     10  N   UNL     1      -0.761  10.790  20.778  0.00  0.00    +0.000 NA
ATOM     11  C   UNL     1      -1.180  11.131  19.580  0.00  0.00    +0.000 A 
ATOM     12  S   UNL     1      -0.152  10.696  18.277  0.00  0.00    +0.000 S 
ATOM     13  C   UNL     1       0.710   9.650  19.339  0.00  0.00    +0.000 A 
ATOM     14  C   UNL     1       1.672   8.669  19.054  0.00  0.00    +0.000 A 
ENDBRANCH   3   6
BRANCH   1  19
ATOM     15  O   UNL     1       7.510   5.365  15.287  0.00  0.00    +0.000 OA
ATOM     16  C   UNL     1       6.752   5.031  16.188  0.00  0.00    +0.000 C 
ATOM     17  C   UNL     1       5.509   4.314  15.929  0.00  0.00    +0.000 C 
ATOM     18  C   UNL     1       4.701   3.942  16.936  0.00  0.00    +0.000 C 
ATOM     19  C   UNL     1       4.995   4.216  18.386  0.00  0.00    +0.000 C 
ATOM     20  C   UNL     1       6.286   4.968  18.595  0.00  0.00    +0.000 C 
ATOM     21  C   UNL     1       7.096   5.373  17.608  0.00  0.00    +0.000 C 
BRANCH  19  22
ATOM     22  O   UNL     1       5.212   2.944  19.007  0.00  0.00    +0.000 OA
ATOM     23  H   UNL     1       5.668   2.386  18.356  0.00  0.00    +0.000 HD
ENDBRANCH  19  22
ENDBRANCH   1  19
TORSDOF 3
ENDMDL
MODEL 3
REMARK VINA RESULT:      -7.7      3.190      4.504
REMARK  Name = 
REMARK  3 active torsions:
REMARK  status: ('A' for Active; 'I' for Inactive)
REMARK    1  A    between atoms: C_5  and  O_6
REMARK    2  A    between atoms: C_5  and  C_7
REMARK    3  A    between atoms: N_9  and  C_10
REMARK                            x       y       z     vdW  Elec       q    Type
REMARK                         _______ _______ _______ _____ _____    ______ ____
ROOT
ATOM      1  C   UNL     1       1.989   7.033  19.805  0.00  0.00    +0.000 A 
ATOM      2  C   UNL     1       1.251   7.547  20.846  0.00  0.00    +0.000 A 
ATOM      3  N   UNL     1       1.100   8.876  20.563  0.00  0.00    +0.000 N 
ATOM      4  N   UNL     1       1.645   9.146  19.354  0.00  0.00    +0.000 NA
ATOM      5  N   UNL     1       2.207   8.034  18.892  0.00  0.00    +0.000 NA
ENDROOT
BRANCH   3   6
ATOM      6  C   UNL     1       0.467   9.853  21.363  0.00  0.00    +0.000 A 
ATOM      7  C   UNL     1      -0.333   9.448  22.434  0.00  0.00    +0.000 A 
ATOM      8  C   UNL     1      -0.887  10.408  23.270  0.00  0.00    +0.000 A 
ATOM      9  C   UNL     1      -1.119  11.669  22.709  0.00  0.00    +0.000 A 
ATOM     10  N   UNL     1      -2.119  12.552  23.071  0.00  0.00    +0.000 NA
ATOM     11  C   UNL     1      -2.096  13.577  22.249  0.00  0.00    +0.000 A 
ATOM     12  S   UNL     1      -0.711  13.698  21.244  0.00  0.00    +0.000 S 
ATOM     13  C   UNL     1      -0.302  12.076  21.653  0.00  0.00    +0.000 A 
ATOM     14  C   UNL     1       0.654  11.217  21.091  0.00  0.00    +0.000 A 
ENDBRANCH   3   6
BRANCH   1  19
ATOM     15  O   UNL     1       0.663   2.071  18.668  0.00  0.00    +0.000 OA
ATOM     16  C   UNL     1       1.199   3.126  18.983  0.00  0.00    +0.000 C 
ATOM     17  C   UNL     1       1.315   3.551  20.372  0.00  0.00    +0.000 C 
ATOM     18  C   UNL     1       1.923   4.704  20.695  0.00  0.00    +0.000 C 
ATOM     19  C   UNL     1       2.531   5.639  19.684  0.00  0.00    +0.000 C 
ATOM     20  C   UNL     1       2.372   5.155  18.264  0.00  0.00    +0.000 C 
ATOM     21  C   UNL     1       1.749   4.023  17.913  0.00  0.00    +0.000 C 
BRANCH  19  22
ATOM     22  O   UNL     1       3.943   5.629  19.916  0.00  0.00    +0.000 OA
ATOM     23  H   UNL     1       4.368   5.911  19.089  0.00  0.00    +0.000 HD
ENDBRANCH  19  22
ENDBRANCH   1  19
TORSDOF 3
ENDMDL
MODEL 4
REMARK VINA RESULT:      -7.5      1.554      1.849
REMARK  Name = 
REMARK  3 active torsions:
REMARK  status: ('A' for Active; 'I' for Inactive)
REMARK    1  A    between atoms: C_5  and  O_6
REMARK    2  A    between atoms: C_5  and  C_7
REMARK    3  A    between atoms: N_9  and  C_10
REMARK                            x       y       z     vdW  Elec       q    Type
REMARK                         _______ _______ _______ _____ _____    ______ ____
ROOT
ATOM      1  C   UNL     1       3.529   6.401  18.440  0.00  0.00    +0.000 A 
ATOM      2  C   UNL     1       2.488   6.750  19.268  0.00  0.00    +0.000 A 
ATOM      3  N   UNL     1       2.117   8.007  18.877  0.00  0.00    +0.000 N 
ATOM      4  N   UNL     1       2.841   8.375  17.795  0.00  0.00    +0.000 NA
ATOM      5  N   UNL     1       3.719   7.413  17.533  0.00  0.00    +0.000 NA
ENDROOT
BRANCH   3   6
ATOM      6  C   UNL     1       1.127   8.826  19.462  0.00  0.00    +0.000 A 
ATOM      7  C   UNL     1       0.617   9.907  18.741  0.00  0.00    +0.000 A 
ATOM      8  C   UNL     1      -0.416  10.661  19.282  0.00  0.00    +0.000 A 
ATOM      9  C   UNL     1      -0.497  10.699  20.679  0.00  0.00    +0.000 A 
ATOM     10  N   UNL     1      -0.985  11.744  21.440  0.00  0.00    +0.000 NA
ATOM     11  C   UNL     1      -0.795  11.467  22.710  0.00  0.00    +0.000 A 
ATOM     12  S   UNL     1      -0.345   9.850  23.064  0.00  0.00    +0.000 S 
ATOM     13  C   UNL     1      -0.004   9.606  21.394  0.00  0.00    +0.000 A 
ATOM     14  C   UNL     1       0.651   8.544  20.752  0.00  0.00    +0.000 A 
ENDBRANCH   3   6
BRANCH   1  19
ATOM     15  O   UNL     1       8.069   4.271  16.851  0.00  0.00    +0.000 OA
ATOM     16  C   UNL     1       6.972   4.539  17.325  0.00  0.00    +0.000 C 
ATOM     17  C   UNL     1       5.730   4.208  16.638  0.00  0.00    +0.000 C 
ATOM     18  C   UNL     1       4.538   4.497  17.185  0.00  0.00    +0.000 C 
ATOM     19  C   UNL     1       4.374   5.164  18.524  0.00  0.00    +0.000 C 
ATOM     20  C   UNL     1       5.689   5.492  19.184  0.00  0.00    +0.000 C 
ATOM     21  C   UNL     1       6.891   5.239  18.650  0.00  0.00    +0.000 C 
BRANCH  19  22
ATOM     22  O   UNL     1       3.764   4.199  19.389  0.00  0.00    +0.000 OA
ATOM     23  H   UNL     1       2.868   4.043  19.050  0.00  0.00    +0.000 HD
ENDBRANCH  19  22
ENDBRANCH   1  19
TORSDOF 3
ENDMDL
MODEL 5
REMARK VINA RESULT:      -7.4      5.932      7.126
REMARK  Name = 
REMARK  3 active torsions:
REMARK  status: ('A' for Active; 'I' for Inactive)
REMARK    1  A    between atoms: C_5  and  O_6
REMARK    2  A    between atoms: C_5  and  C_7
REMARK    3  A    between atoms: N_9  and  C_10
REMARK                            x       y       z     vdW  Elec       q    Type
REMARK                         _______ _______ _______ _____ _____    ______ ____
ROOT
ATOM      1  C   UNL     1       7.631   7.055  18.168  0.00  0.00    +0.000 A 
ATOM      2  C   UNL     1       8.453   7.813  18.968  0.00  0.00    +0.000 A 
ATOM      3  N   UNL     1       8.513   9.042  18.368  0.00  0.00    +0.000 N 
ATOM      4  N   UNL     1       7.688   9.061  17.296  0.00  0.00    +0.000 NA
ATOM      5  N   UNL     1       7.161   7.850  17.152  0.00  0.00    +0.000 NA
ENDROOT
BRANCH   3   6
ATOM      6  C   UNL     1       9.281  10.154  18.776  0.00  0.00    +0.000 A 
ATOM      7  C   UNL     1       9.303  10.515  20.124  0.00  0.00    +0.000 A 
ATOM      8  C   UNL     1      10.124  11.556  20.537  0.00  0.00    +0.000 A 
ATOM      9  C   UNL     1      10.419  12.537  19.582  0.00  0.00    +0.000 A 
ATOM     10  N   UNL     1      10.676  13.871  19.836  0.00  0.00    +0.000 NA
ATOM     11  C   UNL     1      10.794  14.504  18.691  0.00  0.00    +0.000 A 
ATOM     12  S   UNL     1      10.934  13.511  17.298  0.00  0.00    +0.000 S 
ATOM     13  C   UNL     1      10.416  12.164  18.237  0.00  0.00    +0.000 A 
ATOM     14  C   UNL     1      10.027  10.878  17.833  0.00  0.00    +0.000 A 
ENDBRANCH   3   6
BRANCH   1  19
ATOM     15  O   UNL     1       4.046   3.359  17.090  0.00  0.00    +0.000 OA
ATOM     16  C   UNL     1       5.000   4.031  17.461  0.00  0.00    +0.000 C 
ATOM     17  C   UNL     1       5.055   4.631  18.789  0.00  0.00    +0.000 C 
ATOM     18  C   UNL     1       6.119   5.350  19.180  0.00  0.00    +0.000 C 
ATOM     19  C   UNL     1       7.326   5.594  18.315  0.00  0.00    +0.000 C 
ATOM     20  C   UNL     1       7.211   4.960  16.951  0.00  0.00    +0.000 C 
ATOM     21  C   UNL     1       6.151   4.260  16.526  0.00  0.00    +0.000 C 
BRANCH  19  22
ATOM     22  O   UNL     1       8.421   4.914  18.940  0.00  0.00    +0.000 OA
ATOM     23  H   UNL     1       8.371   3.985  18.664  0.00  0.00    +0.000 HD
ENDBRANCH  19  22
ENDBRANCH   1  19
TORSDOF 3
ENDMDL
MODEL 6
REMARK VINA RESULT:      -7.3      2.120      3.025
REMARK  Name = 
REMARK  3 active torsions:
REMARK  status: ('A' for Active; 'I' for Inactive)
REMARK    1  A    between atoms: C_5  and  O_6
REMARK    2  A    between atoms: C_5  and  C_7
REMARK    3  A    between atoms: N_9  and  C_10
REMARK                            x       y       z     vdW  Elec       q    Type
REMARK                         _______ _______ _______ _____ _____    ______ ____
ROOT
ATOM      1  C   UNL     1       2.735   7.029  18.482  0.00  0.00    +0.000 A 
ATOM      2  C   UNL     1       2.166   7.283  19.708  0.00  0.00    +0.000 A 
ATOM      3  N   UNL     1       1.677   8.558  19.624  0.00  0.00    +0.000 N 
ATOM      4  N   UNL     1       1.858   9.029  18.369  0.00  0.00    +0.000 NA
ATOM      5  N   UNL     1       2.521   8.114  17.670  0.00  0.00    +0.000 NA
ENDROOT
BRANCH   3   6
ATOM      6  C   UNL     1       1.053   9.302  20.650  0.00  0.00    +0.000 A 
ATOM      7  C   UNL     1       0.770   8.684  21.869  0.00  0.00    +0.000 A 
ATOM      8  C   UNL     1       0.234   9.438  22.905  0.00  0.00    +0.000 A 
ATOM      9  C   UNL     1      -0.519  10.560  22.540  0.00  0.00    +0.000 A 
ATOM     10  N   UNL     1      -1.578  11.097  23.246  0.00  0.00    +0.000 NA
ATOM     11  C   UNL     1      -2.108  12.069  22.538  0.00  0.00    +0.000 A 
ATOM     12  S   UNL     1      -1.191  12.598  21.188  0.00  0.00    +0.000 S 
ATOM     13  C   UNL     1      -0.216  11.185  21.328  0.00  0.00    +0.000 A 
ATOM     14  C   UNL     1       0.736  10.654  20.446  0.00  0.00    +0.000 A 
ENDBRANCH   3   6
BRANCH   1  19
ATOM     15  O   UNL     1       7.570   4.957  18.386  0.00  0.00    +0.000 OA
ATOM     16  C   UNL     1       6.380   5.227  18.287  0.00  0.00    +0.000 C 
ATOM     17  C   UNL     1       5.821   5.833  17.085  0.00  0.00    +0.000 C 
ATOM     18  C   UNL     1       4.508   6.104  16.992  0.00  0.00    +0.000 C 
ATOM     19  C   UNL     1       3.516   5.811  18.085  0.00  0.00    +0.000 C 
ATOM     20  C   UNL     1       4.150   5.195  19.306  0.00  0.00    +0.000 C 
ATOM     21  C   UNL     1       5.458   4.938  19.435  0.00  0.00    +0.000 C 
BRANCH  19  22
ATOM     22  O   UNL     1       2.640   4.797  17.580  0.00  0.00    +0.000 OA
ATOM     23  H   UNL     1       3.184   4.190  17.052  0.00  0.00    +0.000 HD
ENDBRANCH  19  22
ENDBRANCH   1  19
TORSDOF 3
ENDMDL
MODEL 7
REMARK VINA RESULT:      -7.3      1.525      2.213
REMARK  Name = 
REMARK  3 active torsions:
REMARK  status: ('A' for Active; 'I' for Inactive)
REMARK    1  A    between atoms: C_5  and  O_6
REMARK    2  A    between atoms: C_5  and  C_7
REMARK    3  A    between atoms: N_9  and  C_10
REMARK                            x       y       z     vdW  Elec       q    Type
REMARK                         _______ _______ _______ _____ _____    ______ ____
ROOT
ATOM      1  C   UNL     1       3.912   6.989  17.800  0.00  0.00    +0.000 A 
ATOM      2  C   UNL     1       3.159   8.139  17.770  0.00  0.00    +0.000 A 
ATOM      3  N   UNL     1       2.230   7.992  18.764  0.00  0.00    +0.000 N 
ATOM      4  N   UNL     1       2.465   6.839  19.433  0.00  0.00    +0.000 NA
ATOM      5  N   UNL     1       3.475   6.211  18.841  0.00  0.00    +0.000 NA
ENDROOT
BRANCH   3   6
ATOM      6  C   UNL     1       1.185   8.881  19.094  0.00  0.00    +0.000 A 
ATOM      7  C   UNL     1       0.639   9.696  18.101  0.00  0.00    +0.000 A 
ATOM      8  C   UNL     1      -0.445  10.509  18.406  0.00  0.00    +0.000 A 
ATOM      9  C   UNL     1      -0.564  10.918  19.740  0.00  0.00    +0.000 A 
ATOM     10  N   UNL     1      -1.125  12.101  20.184  0.00  0.00    +0.000 NA
ATOM     11  C   UNL     1      -0.954  12.188  21.483  0.00  0.00    +0.000 A 
ATOM     12  S   UNL     1      -0.432  10.754  22.267  0.00  0.00    +0.000 S 
ATOM     13  C   UNL     1      -0.035  10.088  20.729  0.00  0.00    +0.000 A 
ATOM     14  C   UNL     1       0.690   8.931  20.407  0.00  0.00    +0.000 A 
ENDBRANCH   3   6
BRANCH   1  19
ATOM     15  O   UNL     1       8.279   4.096  17.311  0.00  0.00    +0.000 OA
ATOM     16  C   UNL     1       7.317   4.844  17.188  0.00  0.00    +0.000 C 
ATOM     17  C   UNL     1       7.414   6.278  17.433  0.00  0.00    +0.000 C 
ATOM     18  C   UNL     1       6.349   7.081  17.276  0.00  0.00    +0.000 C 
ATOM     19  C   UNL     1       4.994   6.593  16.838  0.00  0.00    +0.000 C 
ATOM     20  C   UNL     1       4.949   5.103  16.609  0.00  0.00    +0.000 C 
ATOM     21  C   UNL     1       5.988   4.277  16.783  0.00  0.00    +0.000 C 
BRANCH  19  22
ATOM     22  O   UNL     1       4.751   7.166  15.548  0.00  0.00    +0.000 OA
ATOM     23  H   UNL     1       3.787   7.201  15.431  0.00  0.00    +0.000 HD
ENDBRANCH  19  22
ENDBRANCH   1  19
TORSDOF 3
ENDMDL
MODEL 8
REMARK VINA RESULT:      -7.3      1.231      1.378
REMARK  Name = 
REMARK  3 active torsions:
REMARK  status: ('A' for Active; 'I' for Inactive)
REMARK    1  A    between atoms: C_5  and  O_6
REMARK    2  A    between atoms: C_5  and  C_7
REMARK    3  A    between atoms: N_9  and  C_10
REMARK                            x       y       z     vdW  Elec       q    Type
REMARK                         _______ _______ _______ _____ _____    ______ ____
ROOT
ATOM      1  C   UNL     1       3.416   5.841  19.227  0.00  0.00    +0.000 A 
ATOM      2  C   UNL     1       2.971   7.130  19.052  0.00  0.00    +0.000 A 
ATOM      3  N   UNL     1       1.962   7.293  19.961  0.00  0.00    +0.000 N 
ATOM      4  N   UNL     1       1.857   6.179  20.722  0.00  0.00    +0.000 NA
ATOM      5  N   UNL     1       2.724   5.280  20.270  0.00  0.00    +0.000 NA
ENDROOT
BRANCH   3   6
ATOM      6  C   UNL     1       1.143   8.430  20.134  0.00  0.00    +0.000 A 
ATOM      7  C   UNL     1       1.171   9.446  19.177  0.00  0.00    +0.000 A 
ATOM      8  C   UNL     1       0.304  10.524  19.303  0.00  0.00    +0.000 A 
ATOM      9  C   UNL     1      -0.109  10.847  20.601  0.00  0.00    +0.000 A 
ATOM     10  N   UNL     1      -0.442  12.106  21.062  0.00  0.00    +0.000 NA
ATOM     11  C   UNL     1      -0.666  12.038  22.355  0.00  0.00    +0.000 A 
ATOM     12  S   UNL     1      -0.815  10.457  23.006  0.00  0.00    +0.000 S 
ATOM     13  C   UNL     1      -0.154   9.822  21.548  0.00  0.00    +0.000 A 
ATOM     14  C   UNL     1       0.298   8.527  21.251  0.00  0.00    +0.000 A 
ENDBRANCH   3   6
BRANCH   1  19
ATOM     15  O   UNL     1       7.688   6.542  16.237  0.00  0.00    +0.000 OA
ATOM     16  C   UNL     1       6.717   6.136  16.864  0.00  0.00    +0.000 C 
ATOM     17  C   UNL     1       5.410   5.965  16.241  0.00  0.00    +0.000 C 
ATOM     18  C   UNL     1       4.364   5.502  16.944  0.00  0.00    +0.000 C 
ATOM     19  C   UNL     1       4.439   5.120  18.398  0.00  0.00    +0.000 C 
ATOM     20  C   UNL     1       5.809   5.326  18.992  0.00  0.00    +0.000 C 
ATOM     21  C   UNL     1       6.862   5.810  18.321  0.00  0.00    +0.000 C 
BRANCH  19  22
ATOM     22  O   UNL     1       4.225   3.705  18.460  0.00  0.00    +0.000 OA
ATOM     23  H   UNL     1       4.257   3.455  19.398  0.00  0.00    +0.000 HD
ENDBRANCH  19  22
ENDBRANCH   1  19
TORSDOF 3
ENDMDL
MODEL 9
REMARK VINA RESULT:      -7.2      2.855      4.070
REMARK  Name = 
REMARK  3 active torsions:
REMARK  status: ('A' for Active; 'I' for Inactive)
REMARK    1  A    between atoms: C_5  and  O_6
REMARK    2  A    between atoms: C_5  and  C_7
REMARK    3  A    between atoms: N_9  and  C_10
REMARK                            x       y       z     vdW  Elec       q    Type
REMARK                         _______ _______ _______ _____ _____    ______ ____
ROOT
ATOM      1  C   UNL     1       2.433   7.060  18.953  0.00  0.00    +0.000 A 
ATOM      2  C   UNL     1       1.779   7.372  20.122  0.00  0.00    +0.000 A 
ATOM      3  N   UNL     1       1.401   8.680  19.990  0.00  0.00    +0.000 N 
ATOM      4  N   UNL     1       1.730   9.122  18.754  0.00  0.00    +0.000 NA
ATOM      5  N   UNL     1       2.378   8.150  18.122  0.00  0.00    +0.000 NA
ENDROOT
BRANCH   3   6
ATOM      6  C   UNL     1       0.749   9.482  20.953  0.00  0.00    +0.000 A 
ATOM      7  C   UNL     1       0.365   8.916  22.169  0.00  0.00    +0.000 A 
ATOM      8  C   UNL     1      -0.199   9.724  23.148  0.00  0.00    +0.000 A 
ATOM      9  C   UNL     1      -0.878  10.864  22.704  0.00  0.00    +0.000 A 
ATOM     10  N   UNL     1      -1.954  11.468  23.326  0.00  0.00    +0.000 NA
ATOM     11  C   UNL     1      -2.396  12.439  22.559  0.00  0.00    +0.000 A 
ATOM     12  S   UNL     1      -1.375  12.885  21.254  0.00  0.00    +0.000 S 
ATOM     13  C   UNL     1      -0.475  11.437  21.496  0.00  0.00    +0.000 A 
ATOM     14  C   UNL     1       0.506  10.839  20.691  0.00  0.00    +0.000 A 
ENDBRANCH   3   6
BRANCH   1  19
ATOM     15  O   UNL     1       2.073   1.822  19.293  0.00  0.00    +0.000 OA
ATOM     16  C   UNL     1       2.387   2.994  19.119  0.00  0.00    +0.000 C 
ATOM     17  C   UNL     1       3.178   3.736  20.093  0.00  0.00    +0.000 C 
ATOM     18  C   UNL     1       3.525   5.015  19.872  0.00  0.00    +0.000 C 
ATOM     19  C   UNL     1       3.147   5.780  18.632  0.00  0.00    +0.000 C 
ATOM     20  C   UNL     1       2.322   4.967  17.667  0.00  0.00    +0.000 C 
ATOM     21  C   UNL     1       1.941   3.700  17.873  0.00  0.00    +0.000 C 
BRANCH  19  22
ATOM     22  O   UNL     1       4.366   6.050  17.932  0.00  0.00    +0.000 OA
ATOM     23  H   UNL     1       5.030   6.287  18.600  0.00  0.00    +0.000 HD
ENDBRANCH  19  22
ENDBRANCH   1  19
TORSDOF 3
ENDMDL
