MODEL 1
REMARK VINA RESULT:      -7.4      0.000      0.000
REMARK  Name = 
REMARK  7 active torsions:
REMARK  status: ('A' for Active; 'I' for Inactive)
REMARK    1  A    between atoms: N_5  and  C_6
REMARK    2  A    between atoms: C_8  and  C_9
REMARK    3  A    between atoms: C_9  and  O_10
REMARK    4  A    between atoms: C_9  and  C_11
REMARK    5  A    between atoms: C_11  and  P_12
REMARK    6  A    between atoms: C_16  and  O_17
REMARK    7  A    between atoms: C_18  and  O_19
REMARK                            x       y       z     vdW  Elec       q    Type
REMARK                         _______ _______ _______ _____ _____    ______ ____
ROOT
ATOM      1  C   UNL     1       2.759   6.029  19.498  0.00  0.00    +0.000 C 
ATOM      2  O   UNL     1       3.930   5.723  18.759  0.00  0.00    +0.000 OA
ATOM      3  C   UNL     1       3.631   4.622  17.864  0.00  0.00    +0.000 C 
ATOM      4  C   UNL     1       2.530   3.838  18.586  0.00  0.00    +0.000 C 
ATOM      5  C   UNL     1       1.698   4.939  19.221  0.00  0.00    +0.000 C 
ENDROOT
BRANCH   1  10
ATOM      6  N   UNL     1       0.883  11.137  18.589  0.00  0.00    +0.000 N 
ATOM      7  C   UNL     1       1.337   9.867  18.772  0.00  0.00    +0.000 A 
ATOM      8  C   UNL     1       2.043   9.184  17.682  0.00  0.00    +0.000 A 
ATOM      9  C   UNL     1       2.489   7.961  17.957  0.00  0.00    +0.000 A 
ATOM     10  N   UNL     1       2.286   7.370  19.179  0.00  0.00    +0.000 N 
ATOM     11  C   UNL     1       1.558   8.038  20.185  0.00  0.00    +0.000 A 
ATOM     12  O   UNL     1       1.318   7.471  21.252  0.00  0.00    +0.000 OA
ATOM     13  N   UNL     1       1.123   9.314  19.947  0.00  0.00    +0.000 NA
ATOM     14  H   UNL     1       1.413  11.716  17.945  0.00  0.00    +0.000 HD
ATOM     15  H   UNL     1       0.643  11.608  19.456  0.00  0.00    +0.000 HD
ENDBRANCH   1  10
BRANCH   4  16
ATOM     16  O   UNL     1       1.717   2.971  17.801  0.00  0.00    +0.000 OA
ATOM     17  H   UNL     1       0.816   3.423  17.779  0.00  0.00    +0.000 HD
ENDBRANCH   4  16
BRANCH   5  18
ATOM     18  O   UNL     1       1.084   4.421  20.419  0.00  0.00    +0.000 OA
ATOM     19  H   UNL     1       1.813   4.191  21.027  0.00  0.00    +0.000 HD
ENDBRANCH   5  18
BRANCH   3  20
ATOM     20  C   UNL     1       4.925   3.820  17.629  0.00  0.00    +0.000 C 
BRANCH  20  21
ATOM     21  O   UNL     1       5.868   4.096  18.676  0.00  0.00    +0.000 OA
ATOM     22  H   UNL     1       5.334   3.952  19.516  0.00  0.00    +0.000 HD
ENDBRANCH  20  21
BRANCH  20  23
ATOM     23  C   UNL     1       5.611   4.070  16.301  0.00  0.00    +0.000 C 
BRANCH  23  24
ATOM     24  P   UNL     1       7.101   5.168  16.493  0.00  0.00    +0.000 P 
ATOM     25  O   UNL     1       8.075   4.197  17.117  0.00  0.00    +0.000 OA
ATOM     26  O   UNL     1       7.515   5.403  15.043  0.00  0.00    +0.000 OA
ATOM     27  O   UNL     1       6.536   6.356  17.217  0.00  0.00    +0.000 OA
ENDBRANCH  23  24
ENDBRANCH  20  23
ENDBRANCH   3  20
TORSDOF 7
ENDMDL
MODEL 2
REMARK VINA RESULT:      -7.3      3.793      6.396
REMARK  Name = 
REMARK  7 active torsions:
REMARK  status: ('A' for Active; 'I' for Inactive)
REMARK    1  A    between atoms: N_5  and  C_6
REMARK    2  A    between atoms: C_8  and  C_9
REMARK    3  A    between atoms: C_9  and  O_10
REMARK    4  A    between atoms: C_9  and  C_11
REMARK    5  A    between atoms: C_11  and  P_12
REMARK    6  A    between atoms: C_16  and  O_17
REMARK    7  A    between atoms: C_18  and  O_19
REMARK                            x       y       z     vdW  Elec       q    Type
REMARK                         _______ _______ _______ _____ _____    ______ ____
ROOT
ATOM      1  C   UNL     1       5.453   5.325  17.290  0.00  0.00    +0.000 C 
ATOM      2  O   UNL     1       5.437   4.148  18.080  0.00  0.00    +0.000 OA
ATOM      3  C   UNL     1       4.063   3.863  18.447  0.00  0.00    +0.000 C 
ATOM      4  C   UNL     1       3.389   5.238  18.479  0.00  0.00    +0.000 C 
ATOM      5  C   UNL     1       4.043   5.958  17.312  0.00  0.00    +0.000 C 
ENDROOT
BRANCH   1  10
ATOM      6  N   UNL     1       7.473   4.369  12.245  0.00  0.00    +0.000 N 
ATOM      7  C   UNL     1       6.934   4.603  13.473  0.00  0.00    +0.000 A 
ATOM      8  C   UNL     1       5.676   3.949  13.851  0.00  0.00    +0.000 A 
ATOM      9  C   UNL     1       5.241   4.200  15.083  0.00  0.00    +0.000 A 
ATOM     10  N   UNL     1       5.918   5.031  15.940  0.00  0.00    +0.000 N 
ATOM     11  C   UNL     1       7.096   5.682  15.523  0.00  0.00    +0.000 A 
ATOM     12  O   UNL     1       7.657   6.483  16.272  0.00  0.00    +0.000 OA
ATOM     13  N   UNL     1       7.593   5.411  14.275  0.00  0.00    +0.000 NA
ATOM     14  H   UNL     1       7.281   3.460  11.835  0.00  0.00    +0.000 HD
ATOM     15  H   UNL     1       8.445   4.652  12.171  0.00  0.00    +0.000 HD
ENDBRANCH   1  10
BRANCH   4  16
ATOM     16  O   UNL     1       1.968   5.278  18.373  0.00  0.00    +0.000 OA
ATOM     17  H   UNL     1       1.766   4.774  17.523  0.00  0.00    +0.000 HD
ENDBRANCH   4  16
BRANCH   5  18
ATOM     18  O   UNL     1       4.056   7.373  17.590  0.00  0.00    +0.000 OA
ATOM     19  H   UNL     1       4.754   7.760  17.027  0.00  0.00    +0.000 HD
ENDBRANCH   5  18
BRANCH   3  20
ATOM     20  C   UNL     1       4.064   3.129  19.802  0.00  0.00    +0.000 C 
BRANCH  20  21
ATOM     21  O   UNL     1       5.201   2.258  19.885  0.00  0.00    +0.000 OA
ATOM     22  H   UNL     1       5.351   2.163  20.876  0.00  0.00    +0.000 HD
ENDBRANCH  20  21
BRANCH  20  23
ATOM     23  C   UNL     1       2.822   2.312  20.097  0.00  0.00    +0.000 C 
BRANCH  23  24
ATOM     24  P   UNL     1       1.646   3.229  21.209  0.00  0.00    +0.000 P 
ATOM     25  O   UNL     1       2.427   4.499  21.443  0.00  0.00    +0.000 OA
ATOM     26  O   UNL     1       0.488   3.540  20.265  0.00  0.00    +0.000 OA
ATOM     27  O   UNL     1       1.364   2.219  22.284  0.00  0.00    +0.000 OA
ENDBRANCH  23  24
ENDBRANCH  20  23
ENDBRANCH   3  20
TORSDOF 7
ENDMDL
MODEL 3
REMARK VINA RESULT:      -7.1      0.854      1.217
REMARK  Name = 
REMARK  7 active torsions:
REMARK  status: ('A' for Active; 'I' for Inactive)
REMARK    1  A    between atoms: N_5  and  C_6
REMARK    2  A    between atoms: C_8  and  C_9
REMARK    3  A    between atoms: C_9  and  O_10
REMARK    4  A    between atoms: C_9  and  C_11
REMARK    5  A    between atoms: C_11  and  P_12
REMARK    6  A    between atoms: C_16  and  O_17
REMARK    7  A    between atoms: C_18  and  O_19
REMARK                            x       y       z     vdW  Elec       q    Type
REMARK                         _______ _______ _______ _____ _____    ______ ____
ROOT
ATOM      1  C   UNL     1       2.846   6.222  19.639  0.00  0.00    +0.000 C 
ATOM      2  O   UNL     1       4.008   5.934  18.880  0.00  0.00    +0.000 OA
ATOM      3  C   UNL     1       3.746   4.759  18.072  0.00  0.00    +0.000 C 
ATOM      4  C   UNL     1       2.719   3.965  18.884  0.00  0.00    +0.000 C 
ATOM      5  C   UNL     1       1.843   5.057  19.474  0.00  0.00    +0.000 C 
ENDROOT
BRANCH   1  10
ATOM      6  N   UNL     1       0.633  11.137  18.459  0.00  0.00    +0.000 N 
ATOM      7  C   UNL     1       1.170   9.912  18.710  0.00  0.00    +0.000 A 
ATOM      8  C   UNL     1       1.906   9.211  17.651  0.00  0.00    +0.000 A 
ATOM      9  C   UNL     1       2.434   8.038  17.992  0.00  0.00    +0.000 A 
ATOM     10  N   UNL     1       2.283   7.509  19.249  0.00  0.00    +0.000 N 
ATOM     11  C   UNL     1       1.525   8.188  20.224  0.00  0.00    +0.000 A 
ATOM     12  O   UNL     1       1.334   7.671  21.326  0.00  0.00    +0.000 OA
ATOM     13  N   UNL     1       1.005   9.418  19.918  0.00  0.00    +0.000 NA
ATOM     14  H   UNL     1       1.117  11.709  17.774  0.00  0.00    +0.000 HD
ATOM     15  H   UNL     1       0.372  11.642  19.300  0.00  0.00    +0.000 HD
ENDBRANCH   1  10
BRANCH   4  16
ATOM     16  O   UNL     1       1.933   3.000  18.189  0.00  0.00    +0.000 OA
ATOM     17  H   UNL     1       2.603   2.467  17.656  0.00  0.00    +0.000 HD
ENDBRANCH   4  16
BRANCH   5  18
ATOM     18  O   UNL     1       1.300   4.588  20.725  0.00  0.00    +0.000 OA
ATOM     19  H   UNL     1       0.447   4.162  20.514  0.00  0.00    +0.000 HD
ENDBRANCH   5  18
BRANCH   3  20
ATOM     20  C   UNL     1       5.078   4.019  17.845  0.00  0.00    +0.000 C 
BRANCH  20  21
ATOM     21  O   UNL     1       5.477   3.348  19.049  0.00  0.00    +0.000 OA
ATOM     22  H   UNL     1       6.139   3.984  19.463  0.00  0.00    +0.000 HD
ENDBRANCH  20  21
BRANCH  20  23
ATOM     23  C   UNL     1       6.232   4.888  17.385  0.00  0.00    +0.000 C 
BRANCH  23  24
ATOM     24  P   UNL     1       6.147   5.233  15.559  0.00  0.00    +0.000 P 
ATOM     25  O   UNL     1       5.431   6.562  15.566  0.00  0.00    +0.000 OA
ATOM     26  O   UNL     1       7.613   5.475  15.209  0.00  0.00    +0.000 OA
ATOM     27  O   UNL     1       5.542   3.968  15.019  0.00  0.00    +0.000 OA
ENDBRANCH  23  24
ENDBRANCH  20  23
ENDBRANCH   3  20
TORSDOF 7
ENDMDL
MODEL 4
REMARK VINA RESULT:      -7.0      1.039      1.210
REMARK  Name = 
REMARK  7 active torsions:
REMARK  status: ('A' for Active; 'I' for Inactive)
REMARK    1  A    between atoms: N_5  and  C_6
REMARK    2  A    between atoms: C_8  and  C_9
REMARK    3  A    between atoms: C_9  and  O_10
REMARK    4  A    between atoms: C_9  and  C_11
REMARK    5  A    between atoms: C_11  and  P_12
REMARK    6  A    between atoms: C_16  and  O_17
REMARK    7  A    between atoms: C_18  and  O_19
REMARK                            x       y       z     vdW  Elec       q    Type
REMARK                         _______ _______ _______ _____ _____    ______ ____
ROOT
ATOM      1  C   UNL     1       2.927   6.754  19.429  0.00  0.00    +0.000 C 
ATOM      2  O   UNL     1       3.680   6.473  18.260  0.00  0.00    +0.000 OA
ATOM      3  C   UNL     1       3.269   5.179  17.752  0.00  0.00    +0.000 C 
ATOM      4  C   UNL     1       2.815   4.412  18.998  0.00  0.00    +0.000 C 
ATOM      5  C   UNL     1       2.130   5.489  19.821  0.00  0.00    +0.000 C 
ENDROOT
BRANCH   1  10
ATOM      6  N   UNL     1      -0.328  11.184  18.957  0.00  0.00    +0.000 N 
ATOM      7  C   UNL     1       0.460  10.077  19.036  0.00  0.00    +0.000 A 
ATOM      8  C   UNL     1       1.057   9.523  17.815  0.00  0.00    +0.000 A 
ATOM      9  C   UNL     1       1.846   8.466  17.985  0.00  0.00    +0.000 A 
ATOM     10  N   UNL     1       2.073   7.917  19.223  0.00  0.00    +0.000 N 
ATOM     11  C   UNL     1       1.440   8.445  20.366  0.00  0.00    +0.000 A 
ATOM     12  O   UNL     1       1.591   7.902  21.461  0.00  0.00    +0.000 OA
ATOM     13  N   UNL     1       0.655   9.560  20.229  0.00  0.00    +0.000 NA
ATOM     14  H   UNL     1      -0.117  11.835  18.208  0.00  0.00    +0.000 HD
ATOM     15  H   UNL     1      -0.483  11.632  19.855  0.00  0.00    +0.000 HD
ENDBRANCH   1  10
BRANCH   4  16
ATOM     16  O   UNL     1       1.955   3.292  18.804  0.00  0.00    +0.000 OA
ATOM     17  H   UNL     1       1.531   3.453  17.903  0.00  0.00    +0.000 HD
ENDBRANCH   4  16
BRANCH   5  18
ATOM     18  O   UNL     1       2.249   5.148  21.218  0.00  0.00    +0.000 OA
ATOM     19  H   UNL     1       1.655   5.754  21.703  0.00  0.00    +0.000 HD
ENDBRANCH   5  18
BRANCH   3  20
ATOM     20  C   UNL     1       4.467   4.542  17.021  0.00  0.00    +0.000 C 
BRANCH  20  21
ATOM     21  O   UNL     1       5.057   3.524  17.844  0.00  0.00    +0.000 OA
ATOM     22  H   UNL     1       4.268   3.124  18.324  0.00  0.00    +0.000 HD
ENDBRANCH  20  21
BRANCH  20  23
ATOM     23  C   UNL     1       5.561   5.505  16.608  0.00  0.00    +0.000 C 
BRANCH  23  24
ATOM     24  P   UNL     1       6.991   4.619  15.813  0.00  0.00    +0.000 P 
ATOM     25  O   UNL     1       6.256   3.535  15.062  0.00  0.00    +0.000 OA
ATOM     26  O   UNL     1       7.489   5.652  14.805  0.00  0.00    +0.000 OA
ATOM     27  O   UNL     1       7.895   4.352  16.982  0.00  0.00    +0.000 OA
ENDBRANCH  23  24
ENDBRANCH  20  23
ENDBRANCH   3  20
TORSDOF 7
ENDMDL
MODEL 5
REMARK VINA RESULT:      -7.0      0.932      1.146
REMARK  Name = 
REMARK  7 active torsions:
REMARK  status: ('A' for Active; 'I' for Inactive)
REMARK    1  A    between atoms: N_5  and  C_6
REMARK    2  A    between atoms: C_8  and  C_9
REMARK    3  A    between atoms: C_9  and  O_10
REMARK    4  A    between atoms: C_9  and  C_11
REMARK    5  A    between atoms: C_11  and  P_12
REMARK    6  A    between atoms: C_16  and  O_17
REMARK    7  A    between atoms: C_18  and  O_19
REMARK                            x       y       z     vdW  Elec       q    Type
REMARK                         _______ _______ _______ _____ _____    ______ ____
ROOT
ATOM      1  C   UNL     1       2.659   6.342  19.528  0.00  0.00    +0.000 C 
ATOM      2  O   UNL     1       3.819   6.106  18.747  0.00  0.00    +0.000 OA
ATOM      3  C   UNL     1       3.533   5.030  17.818  0.00  0.00    +0.000 C 
ATOM      4  C   UNL     1       2.480   4.181  18.537  0.00  0.00    +0.000 C 
ATOM      5  C   UNL     1       1.629   5.227  19.237  0.00  0.00    +0.000 C 
ENDROOT
BRANCH   1  10
ATOM      6  N   UNL     1       0.588  11.413  18.870  0.00  0.00    +0.000 N 
ATOM      7  C   UNL     1       1.089  10.153  18.992  0.00  0.00    +0.000 A 
ATOM      8  C   UNL     1       1.772   9.531  17.852  0.00  0.00    +0.000 A 
ATOM      9  C   UNL     1       2.267   8.315  18.067  0.00  0.00    +0.000 A 
ATOM     10  N   UNL     1       2.131   7.677  19.275  0.00  0.00    +0.000 N 
ATOM     11  C   UNL     1       1.423   8.286  20.330  0.00  0.00    +0.000 A 
ATOM     12  O   UNL     1       1.243   7.676  21.385  0.00  0.00    +0.000 OA
ATOM     13  N   UNL     1       0.939   9.555  20.154  0.00  0.00    +0.000 NA
ATOM     14  H   UNL     1       1.073  12.030  18.227  0.00  0.00    +0.000 HD
ATOM     15  H   UNL     1       0.367  11.846  19.762  0.00  0.00    +0.000 HD
ENDBRANCH   1  10
BRANCH   4  16
ATOM     16  O   UNL     1       1.676   3.316  17.740  0.00  0.00    +0.000 OA
ATOM     17  H   UNL     1       1.930   3.541  16.790  0.00  0.00    +0.000 HD
ENDBRANCH   4  16
BRANCH   5  18
ATOM     18  O   UNL     1       1.065   4.642  20.428  0.00  0.00    +0.000 OA
ATOM     19  H   UNL     1       0.095   4.662  20.315  0.00  0.00    +0.000 HD
ENDBRANCH   5  18
BRANCH   3  20
ATOM     20  C   UNL     1       4.848   4.285  17.519  0.00  0.00    +0.000 C 
BRANCH  20  21
ATOM     21  O   UNL     1       4.572   2.908  17.220  0.00  0.00    +0.000 OA
ATOM     22  H   UNL     1       4.177   2.944  16.295  0.00  0.00    +0.000 HD
ENDBRANCH  20  21
BRANCH  20  23
ATOM     23  C   UNL     1       5.883   4.328  18.624  0.00  0.00    +0.000 C 
BRANCH  23  24
ATOM     24  P   UNL     1       7.410   5.251  18.097  0.00  0.00    +0.000 P 
ATOM     25  O   UNL     1       8.147   5.332  19.413  0.00  0.00    +0.000 OA
ATOM     26  O   UNL     1       8.115   4.227  17.211  0.00  0.00    +0.000 OA
ATOM     27  O   UNL     1       6.838   6.448  17.393  0.00  0.00    +0.000 OA
ENDBRANCH  23  24
ENDBRANCH  20  23
ENDBRANCH   3  20
TORSDOF 7
ENDMDL
MODEL 6
REMARK VINA RESULT:      -6.9      1.189      1.620
REMARK  Name = 
REMARK  7 active torsions:
REMARK  status: ('A' for Active; 'I' for Inactive)
REMARK    1  A    between atoms: N_5  and  C_6
REMARK    2  A    between atoms: C_8  and  C_9
REMARK    3  A    between atoms: C_9  and  O_10
REMARK    4  A    between atoms: C_9  and  C_11
REMARK    5  A    between atoms: C_11  and  P_12
REMARK    6  A    between atoms: C_16  and  O_17
REMARK    7  A    between atoms: C_18  and  O_19
REMARK                            x       y       z     vdW  Elec       q    Type
REMARK                         _______ _______ _______ _____ _____    ______ ____
ROOT
ATOM      1  C   UNL     1       2.982   6.537  19.270  0.00  0.00    +0.000 C 
ATOM      2  O   UNL     1       4.046   6.522  18.334  0.00  0.00    +0.000 OA
ATOM      3  C   UNL     1       3.839   5.411  17.426  0.00  0.00    +0.000 C 
ATOM      4  C   UNL     1       3.072   4.380  18.259  0.00  0.00    +0.000 C 
ATOM      5  C   UNL     1       2.146   5.249  19.094  0.00  0.00    +0.000 C 
ENDROOT
BRANCH   1  10
ATOM      6  N   UNL     1      -0.080  11.121  19.023  0.00  0.00    +0.000 N 
ATOM      7  C   UNL     1       0.664   9.981  19.043  0.00  0.00    +0.000 A 
ATOM      8  C   UNL     1       1.354   9.542  17.825  0.00  0.00    +0.000 A 
ATOM      9  C   UNL     1       2.091   8.441  17.942  0.00  0.00    +0.000 A 
ATOM     10  N   UNL     1       2.186   7.750  19.124  0.00  0.00    +0.000 N 
ATOM     11  C   UNL     1       1.467   8.173  20.260  0.00  0.00    +0.000 A 
ATOM     12  O   UNL     1       1.500   7.506  21.295  0.00  0.00    +0.000 OA
ATOM     13  N   UNL     1       0.733   9.327  20.183  0.00  0.00    +0.000 NA
ATOM     14  H   UNL     1       0.220  11.842  18.374  0.00  0.00    +0.000 HD
ATOM     15  H   UNL     1      -0.303  11.473  19.949  0.00  0.00    +0.000 HD
ENDBRANCH   1  10
BRANCH   4  16
ATOM     16  O   UNL     1       2.339   3.379  17.558  0.00  0.00    +0.000 OA
ATOM     17  H   UNL     1       1.383   3.697  17.591  0.00  0.00    +0.000 HD
ENDBRANCH   4  16
BRANCH   5  18
ATOM     18  O   UNL     1       1.871   4.570  20.336  0.00  0.00    +0.000 OA
ATOM     19  H   UNL     1       0.942   4.773  20.563  0.00  0.00    +0.000 HD
ENDBRANCH   5  18
BRANCH   3  20
ATOM     20  C   UNL     1       5.215   4.924  16.932  0.00  0.00    +0.000 C 
BRANCH  20  21
ATOM     21  O   UNL     1       5.572   3.705  17.602  0.00  0.00    +0.000 OA
ATOM     22  H   UNL     1       5.178   3.819  18.521  0.00  0.00    +0.000 HD
ENDBRANCH  20  21
BRANCH  20  23
ATOM     23  C   UNL     1       6.353   5.909  17.109  0.00  0.00    +0.000 C 
BRANCH  23  24
ATOM     24  P   UNL     1       7.522   5.372  18.453  0.00  0.00    +0.000 P 
ATOM     25  O   UNL     1       8.204   6.684  18.761  0.00  0.00    +0.000 OA
ATOM     26  O   UNL     1       6.567   5.044  19.598  0.00  0.00    +0.000 OA
ATOM     27  O   UNL     1       8.222   4.202  17.824  0.00  0.00    +0.000 OA
ENDBRANCH  23  24
ENDBRANCH  20  23
ENDBRANCH   3  20
TORSDOF 7
ENDMDL
MODEL 7
REMARK VINA RESULT:      -6.9      1.321      1.517
REMARK  Name = 
REMARK  7 active torsions:
REMARK  status: ('A' for Active; 'I' for Inactive)
REMARK    1  A    between atoms: N_5  and  C_6
REMARK    2  A    between atoms: C_8  and  C_9
REMARK    3  A    between atoms: C_9  and  O_10
REMARK    4  A    between atoms: C_9  and  C_11
REMARK    5  A    between atoms: C_11  and  P_12
REMARK    6  A    between atoms: C_16  and  O_17
REMARK    7  A    between atoms: C_18  and  O_19
REMARK                            x       y       z     vdW  Elec       q    Type
REMARK                         _______ _______ _______ _____ _____    ______ ____
ROOT
ATOM      1  C   UNL     1       2.959   6.906  19.468  0.00  0.00    +0.000 C 
ATOM      2  O   UNL     1       3.861   6.765  18.382  0.00  0.00    +0.000 OA
ATOM      3  C   UNL     1       3.630   5.475  17.761  0.00  0.00    +0.000 C 
ATOM      4  C   UNL     1       3.112   4.595  18.903  0.00  0.00    +0.000 C 
ATOM      5  C   UNL     1       2.243   5.555  19.697  0.00  0.00    +0.000 C 
ENDROOT
BRANCH   1  10
ATOM      6  N   UNL     1      -0.589  11.087  18.858  0.00  0.00    +0.000 N 
ATOM      7  C   UNL     1       0.274  10.039  18.970  0.00  0.00    +0.000 A 
ATOM      8  C   UNL     1       0.934   9.511  17.771  0.00  0.00    +0.000 A 
ATOM      9  C   UNL     1       1.792   8.514  17.974  0.00  0.00    +0.000 A 
ATOM     10  N   UNL     1       2.030   8.002  19.225  0.00  0.00    +0.000 N 
ATOM     11  C   UNL     1       1.338   8.502  20.347  0.00  0.00    +0.000 A 
ATOM     12  O   UNL     1       1.504   7.987  21.454  0.00  0.00    +0.000 OA
ATOM     13  N   UNL     1       0.480   9.556  20.176  0.00  0.00    +0.000 NA
ATOM     14  H   UNL     1      -0.408  11.739  18.102  0.00  0.00    +0.000 HD
ATOM     15  H   UNL     1      -0.793  11.537  19.745  0.00  0.00    +0.000 HD
ENDBRANCH   1  10
BRANCH   4  16
ATOM     16  O   UNL     1       2.386   3.420  18.551  0.00  0.00    +0.000 OA
ATOM     17  H   UNL     1       2.779   3.137  17.666  0.00  0.00    +0.000 HD
ENDBRANCH   4  16
BRANCH   5  18
ATOM     18  O   UNL     1       2.237   5.138  21.077  0.00  0.00    +0.000 OA
ATOM     19  H   UNL     1       2.963   4.492  21.176  0.00  0.00    +0.000 HD
ENDBRANCH   5  18
BRANCH   3  20
ATOM     20  C   UNL     1       4.956   4.990  17.143  0.00  0.00    +0.000 C 
BRANCH  20  21
ATOM     21  O   UNL     1       5.366   3.763  17.765  0.00  0.00    +0.000 OA
ATOM     22  H   UNL     1       4.499   3.277  17.918  0.00  0.00    +0.000 HD
ENDBRANCH  20  21
BRANCH  20  23
ATOM     23  C   UNL     1       6.108   5.970  17.229  0.00  0.00    +0.000 C 
BRANCH  23  24
ATOM     24  P   UNL     1       7.317   5.493  18.560  0.00  0.00    +0.000 P 
ATOM     25  O   UNL     1       8.073   4.390  17.859  0.00  0.00    +0.000 OA
ATOM     26  O   UNL     1       8.216   6.724  18.634  0.00  0.00    +0.000 OA
ATOM     27  O   UNL     1       6.420   5.261  19.743  0.00  0.00    +0.000 OA
ENDBRANCH  23  24
ENDBRANCH  20  23
ENDBRANCH   3  20
TORSDOF 7
ENDMDL
MODEL 8
REMARK VINA RESULT:      -6.8      3.837      6.397
REMARK  Name = 
REMARK  7 active torsions:
REMARK  status: ('A' for Active; 'I' for Inactive)
REMARK    1  A    between atoms: N_5  and  C_6
REMARK    2  A    between atoms: C_8  and  C_9
REMARK    3  A    between atoms: C_9  and  O_10
REMARK    4  A    between atoms: C_9  and  C_11
REMARK    5  A    between atoms: C_11  and  P_12
REMARK    6  A    between atoms: C_16  and  O_17
REMARK    7  A    between atoms: C_18  and  O_19
REMARK                            x       y       z     vdW  Elec       q    Type
REMARK                         _______ _______ _______ _____ _____    ______ ____
ROOT
ATOM      1  C   UNL     1       5.253   4.844  17.240  0.00  0.00    +0.000 C 
ATOM      2  O   UNL     1       4.992   3.533  17.713  0.00  0.00    +0.000 OA
ATOM      3  C   UNL     1       3.556   3.371  17.843  0.00  0.00    +0.000 C 
ATOM      4  C   UNL     1       3.043   4.785  18.132  0.00  0.00    +0.000 C 
ATOM      5  C   UNL     1       3.934   5.650  17.256  0.00  0.00    +0.000 C 
ENDROOT
BRANCH   1  10
ATOM      6  N   UNL     1       7.832   4.830  12.362  0.00  0.00    +0.000 N 
ATOM      7  C   UNL     1       7.158   4.833  13.545  0.00  0.00    +0.000 A 
ATOM      8  C   UNL     1       5.906   4.077  13.669  0.00  0.00    +0.000 A 
ATOM      9  C   UNL     1       5.333   4.099  14.869  0.00  0.00    +0.000 A 
ATOM     10  N   UNL     1       5.870   4.800  15.920  0.00  0.00    +0.000 N 
ATOM     11  C   UNL     1       7.046   5.556  15.748  0.00  0.00    +0.000 A 
ATOM     12  O   UNL     1       7.481   6.241  16.676  0.00  0.00    +0.000 OA
ATOM     13  N   UNL     1       7.684   5.519  14.536  0.00  0.00    +0.000 NA
ATOM     14  H   UNL     1       7.735   3.997  11.791  0.00  0.00    +0.000 HD
ATOM     15  H   UNL     1       8.790   5.159  12.444  0.00  0.00    +0.000 HD
ENDBRANCH   1  10
BRANCH   4  16
ATOM     16  O   UNL     1       1.666   5.050  17.880  0.00  0.00    +0.000 OA
ATOM     17  H   UNL     1       1.203   4.175  18.069  0.00  0.00    +0.000 HD
ENDBRANCH   4  16
BRANCH   5  18
ATOM     18  O   UNL     1       4.065   6.948  17.870  0.00  0.00    +0.000 OA
ATOM     19  H   UNL     1       3.381   6.996  18.567  0.00  0.00    +0.000 HD
ENDBRANCH   5  18
BRANCH   3  20
ATOM     20  C   UNL     1       3.281   2.358  18.970  0.00  0.00    +0.000 C 
BRANCH  20  21
ATOM     21  O   UNL     1       3.295   1.023  18.442  0.00  0.00    +0.000 OA
ATOM     22  H   UNL     1       2.487   0.596  18.865  0.00  0.00    +0.000 HD
ENDBRANCH  20  21
BRANCH  20  23
ATOM     23  C   UNL     1       1.977   2.556  19.716  0.00  0.00    +0.000 C 
BRANCH  23  24
ATOM     24  P   UNL     1       2.266   2.974  21.505  0.00  0.00    +0.000 P 
ATOM     25  O   UNL     1       2.216   4.482  21.444  0.00  0.00    +0.000 OA
ATOM     26  O   UNL     1       0.983   2.475  22.164  0.00  0.00    +0.000 OA
ATOM     27  O   UNL     1       3.513   2.198  21.821  0.00  0.00    +0.000 OA
ENDBRANCH  23  24
ENDBRANCH  20  23
ENDBRANCH   3  20
TORSDOF 7
ENDMDL
MODEL 9
REMARK VINA RESULT:      -6.6      3.835      6.579
REMARK  Name = 
REMARK  7 active torsions:
REMARK  status: ('A' for Active; 'I' for Inactive)
REMARK    1  A    between atoms: N_5  and  C_6
REMARK    2  A    between atoms: C_8  and  C_9
REMARK    3  A    between atoms: C_9  and  O_10
REMARK    4  A    between atoms: C_9  and  C_11
REMARK    5  A    between atoms: C_11  and  P_12
REMARK    6  A    between atoms: C_16  and  O_17
REMARK    7  A    between atoms: C_18  and  O_19
REMARK                            x       y       z     vdW  Elec       q    Type
REMARK                         _______ _______ _______ _____ _____    ______ ____
ROOT
ATOM      1  C   UNL     1       5.377   4.622  16.933  0.00  0.00    +0.000 C 
ATOM      2  O   UNL     1       4.396   3.620  17.149  0.00  0.00    +0.000 OA
ATOM      3  C   UNL     1       3.128   4.273  17.413  0.00  0.00    +0.000 C 
ATOM      4  C   UNL     1       3.518   5.609  18.052  0.00  0.00    +0.000 C 
ATOM      5  C   UNL     1       4.765   5.999  17.277  0.00  0.00    +0.000 C 
ENDROOT
BRANCH   1  10
ATOM      6  N   UNL     1       7.562   4.520  11.868  0.00  0.00    +0.000 N 
ATOM      7  C   UNL     1       6.983   4.545  13.100  0.00  0.00    +0.000 A 
ATOM      8  C   UNL     1       5.730   3.817  13.328  0.00  0.00    +0.000 A 
ATOM      9  C   UNL     1       5.253   3.860  14.570  0.00  0.00    +0.000 A 
ATOM     10  N   UNL     1       5.887   4.556  15.569  0.00  0.00    +0.000 N 
ATOM     11  C   UNL     1       7.062   5.285  15.299  0.00  0.00    +0.000 A 
ATOM     12  O   UNL     1       7.582   5.966  16.184  0.00  0.00    +0.000 OA
ATOM     13  N   UNL     1       7.601   5.226  14.041  0.00  0.00    +0.000 NA
ATOM     14  H   UNL     1       7.402   3.685  11.313  0.00  0.00    +0.000 HD
ATOM     15  H   UNL     1       8.530   4.828  11.871  0.00  0.00    +0.000 HD
ENDBRANCH   1  10
BRANCH   4  16
ATOM     16  O   UNL     1       2.552   6.657  18.028  0.00  0.00    +0.000 OA
ATOM     17  H   UNL     1       1.749   6.270  18.499  0.00  0.00    +0.000 HD
ENDBRANCH   4  16
BRANCH   5  18
ATOM     18  O   UNL     1       5.606   6.803  18.128  0.00  0.00    +0.000 OA
ATOM     19  H   UNL     1       5.008   7.372  18.652  0.00  0.00    +0.000 HD
ENDBRANCH   5  18
BRANCH   3  20
ATOM     20  C   UNL     1       2.292   3.357  18.328  0.00  0.00    +0.000 C 
BRANCH  20  21
ATOM     21  O   UNL     1       1.130   4.059  18.792  0.00  0.00    +0.000 OA
ATOM     22  H   UNL     1       1.164   3.935  19.791  0.00  0.00    +0.000 HD
ENDBRANCH  20  21
BRANCH  20  23
ATOM     23  C   UNL     1       3.023   2.805  19.535  0.00  0.00    +0.000 C 
BRANCH  23  24
ATOM     24  P   UNL     1       2.147   3.230  21.120  0.00  0.00    +0.000 P 
ATOM     25  O   UNL     1       0.815   2.559  20.885  0.00  0.00    +0.000 OA
ATOM     26  O   UNL     1       2.926   2.412  22.147  0.00  0.00    +0.000 OA
ATOM     27  O   UNL     1       2.322   4.720  21.197  0.00  0.00    +0.000 OA
ENDBRANCH  23  24
ENDBRANCH  20  23
ENDBRANCH   3  20
TORSDOF 7
ENDMDL
