MODEL 1
REMARK VINA RESULT:      -7.9      0.000      0.000
REMARK  Name = 
REMARK  6 active torsions:
REMARK  status: ('A' for Active; 'I' for Inactive)
REMARK    1  A    between atoms: C_2  and  C_17
REMARK    2  A    between atoms: N_3  and  C_4
REMARK    3  A    between atoms: C_4  and  C_5
REMARK    4  A    between atoms: C_8  and  C_9
REMARK    5  A    between atoms: N_11  and  C_12
REMARK    6  A    between atoms: N_20  and  C_21
REMARK                            x       y       z     vdW  Elec       q    Type
REMARK                         _______ _______ _______ _____ _____    ______ ____
ROOT
ATOM      1  O   UNL     1       6.034   5.472  19.998  0.00  0.00    +0.000 OA
ATOM      2  C   UNL     1       5.478   5.414  18.908  0.00  0.00    +0.000 C 
ATOM      3  N   UNL     1       4.134   5.658  18.731  0.00  0.00    +0.000 N 
ATOM      4  H   UNL     1       3.729   5.589  17.812  0.00  0.00    +0.000 HD
ENDROOT
BRANCH   2   5
ATOM      5  C   UNL     1       6.198   5.060  17.697  0.00  0.00    +0.000 A 
ATOM      6  C   UNL     1       7.541   4.644  17.581  0.00  0.00    +0.000 A 
ATOM      7  N   UNL     1       7.892   4.353  16.325  0.00  0.00    +0.000 NA
ATOM      8  N   UNL     1       6.777   4.598  15.592  0.00  0.00    +0.000 N 
ATOM      9  C   UNL     1       5.742   5.034  16.395  0.00  0.00    +0.000 A 
BRANCH   8  10
ATOM     10  C   UNL     1       6.749   4.400  14.183  0.00  0.00    +0.000 A 
ATOM     11  C   UNL     1       7.647   5.094  13.362  0.00  0.00    +0.000 A 
ATOM     12  C   UNL     1       7.630   4.895  11.980  0.00  0.00    +0.000 A 
ATOM     13  C   UNL     1       6.716   4.010  11.408  0.00  0.00    +0.000 A 
ATOM     14  C   UNL     1       5.818   3.320  12.218  0.00  0.00    +0.000 A 
ATOM     15  C   UNL     1       5.832   3.508  13.601  0.00  0.00    +0.000 A 
ENDBRANCH   8  10
ENDBRANCH   2   5
BRANCH   3  16
ATOM     16  C   UNL     1       3.242   5.935  19.828  0.00  0.00    +0.000 C 
BRANCH  16  17
ATOM     17  C   UNL     1       2.383   7.138  19.541  0.00  0.00    +0.000 A 
ATOM     18  C   UNL     1       1.667   7.778  20.560  0.00  0.00    +0.000 A 
ATOM     19  C   UNL     1       0.904   8.919  20.278  0.00  0.00    +0.000 A 
ATOM     20  C   UNL     1       0.832   9.438  18.975  0.00  0.00    +0.000 A 
ATOM     21  C   UNL     1       1.523   8.775  17.953  0.00  0.00    +0.000 A 
ATOM     22  C   UNL     1       2.284   7.634  18.235  0.00  0.00    +0.000 A 
BRANCH  20  23
ATOM     23  C   UNL     1       0.020  10.681  18.766  0.00  0.00    +0.000 C 
ATOM     24  O   UNL     1       0.484  11.770  19.099  0.00  0.00    +0.000 OA
ATOM     25  N   UNL     1      -1.230  10.548  18.187  0.00  0.00    +0.000 N 
ATOM     26  H   UNL     1      -1.569   9.644  17.896  0.00  0.00    +0.000 HD
BRANCH  25  27
ATOM     27  C   UNL     1      -2.074  11.674  17.925  0.00  0.00    +0.000 C 
ATOM     28  C   UNL     1      -3.427  11.482  17.292  0.00  0.00    +0.000 C 
ATOM     29  C   UNL     1      -3.324  11.896  18.730  0.00  0.00    +0.000 C 
ENDBRANCH  25  27
ENDBRANCH  20  23
ENDBRANCH  16  17
ENDBRANCH   3  16
TORSDOF 6
ENDMDL
MODEL 2
REMARK VINA RESULT:      -7.7      1.077      1.177
REMARK  Name = 
REMARK  6 active torsions:
REMARK  status: ('A' for Active; 'I' for Inactive)
REMARK    1  A    between atoms: C_2  and  C_17
REMARK    2  A    between atoms: N_3  and  C_4
REMARK    3  A    between atoms: C_4  and  C_5
REMARK    4  A    between atoms: C_8  and  C_9
REMARK    5  A    between atoms: N_11  and  C_12
REMARK    6  A    between atoms: N_20  and  C_21
REMARK                            x       y       z     vdW  Elec       q    Type
REMARK                         _______ _______ _______ _____ _____    ______ ____
ROOT
ATOM      1  O   UNL     1       5.518   5.313  19.838  0.00  0.00    +0.000 OA
ATOM      2  C   UNL     1       5.024   5.609  18.757  0.00  0.00    +0.000 C 
ATOM      3  N   UNL     1       3.708   5.988  18.607  0.00  0.00    +0.000 N 
ATOM      4  H   UNL     1       3.353   6.214  17.692  0.00  0.00    +0.000 HD
ENDROOT
BRANCH   2   5
ATOM      5  C   UNL     1       5.791   5.566  17.524  0.00  0.00    +0.000 A 
ATOM      6  C   UNL     1       7.064   6.122  17.278  0.00  0.00    +0.000 A 
ATOM      7  N   UNL     1       7.515   5.873  16.046  0.00  0.00    +0.000 NA
ATOM      8  N   UNL     1       6.522   5.162  15.455  0.00  0.00    +0.000 N 
ATOM      9  C   UNL     1       5.466   4.970  16.323  0.00  0.00    +0.000 A 
BRANCH   8  10
ATOM     10  C   UNL     1       6.630   4.699  14.113  0.00  0.00    +0.000 A 
ATOM     11  C   UNL     1       7.605   5.238  13.264  0.00  0.00    +0.000 A 
ATOM     12  C   UNL     1       7.721   4.780  11.950  0.00  0.00    +0.000 A 
ATOM     13  C   UNL     1       6.863   3.788  11.474  0.00  0.00    +0.000 A 
ATOM     14  C   UNL     1       5.889   3.251  12.310  0.00  0.00    +0.000 A 
ATOM     15  C   UNL     1       5.770   3.699  13.627  0.00  0.00    +0.000 A 
ENDBRANCH   8  10
ENDBRANCH   2   5
BRANCH   3  16
ATOM     16  C   UNL     1       2.772   6.002  19.701  0.00  0.00    +0.000 C 
BRANCH  16  17
ATOM     17  C   UNL     1       2.053   7.322  19.787  0.00  0.00    +0.000 A 
ATOM     18  C   UNL     1       1.475   7.758  20.985  0.00  0.00    +0.000 A 
ATOM     19  C   UNL     1       0.843   9.006  21.052  0.00  0.00    +0.000 A 
ATOM     20  C   UNL     1       0.766   9.840  19.925  0.00  0.00    +0.000 A 
ATOM     21  C   UNL     1       1.317   9.386  18.720  0.00  0.00    +0.000 A 
ATOM     22  C   UNL     1       1.946   8.137  18.653  0.00  0.00    +0.000 A 
BRANCH  20  23
ATOM     23  C   UNL     1       0.103  11.175  20.091  0.00  0.00    +0.000 C 
ATOM     24  O   UNL     1       0.729  12.103  20.596  0.00  0.00    +0.000 OA
ATOM     25  N   UNL     1      -1.203  11.308  19.650  0.00  0.00    +0.000 N 
ATOM     26  H   UNL     1      -1.679  10.535  19.211  0.00  0.00    +0.000 HD
BRANCH  25  27
ATOM     27  C   UNL     1      -1.918  12.544  19.744  0.00  0.00    +0.000 C 
ATOM     28  C   UNL     1      -3.415  12.548  19.908  0.00  0.00    +0.000 C 
ATOM     29  C   UNL     1      -2.534  12.974  21.046  0.00  0.00    +0.000 C 
ENDBRANCH  25  27
ENDBRANCH  20  23
ENDBRANCH  16  17
ENDBRANCH   3  16
TORSDOF 6
ENDMDL
MODEL 3
REMARK VINA RESULT:      -7.7      2.700     10.146
REMARK  Name = 
REMARK  6 active torsions:
REMARK  status: ('A' for Active; 'I' for Inactive)
REMARK    1  A    between atoms: C_2  and  C_17
REMARK    2  A    between atoms: N_3  and  C_4
REMARK    3  A    between atoms: C_4  and  C_5
REMARK    4  A    between atoms: C_8  and  C_9
REMARK    5  A    between atoms: N_11  and  C_12
REMARK    6  A    between atoms: N_20  and  C_21
REMARK                            x       y       z     vdW  Elec       q    Type
REMARK                         _______ _______ _______ _____ _____    ______ ____
ROOT
ATOM      1  O   UNL     1       1.557   5.683  20.742  0.00  0.00    +0.000 OA
ATOM      2  C   UNL     1       2.151   6.638  20.255  0.00  0.00    +0.000 C 
ATOM      3  N   UNL     1       3.384   6.531  19.651  0.00  0.00    +0.000 N 
ATOM      4  H   UNL     1       3.830   7.352  19.275  0.00  0.00    +0.000 HD
ENDROOT
BRANCH   2   5
ATOM      5  C   UNL     1       1.605   7.983  20.294  0.00  0.00    +0.000 A 
ATOM      6  C   UNL     1       1.578   8.935  19.253  0.00  0.00    +0.000 A 
ATOM      7  N   UNL     1       0.966  10.071  19.598  0.00  0.00    +0.000 NA
ATOM      8  N   UNL     1       0.599   9.883  20.891  0.00  0.00    +0.000 N 
ATOM      9  C   UNL     1       0.979   8.634  21.338  0.00  0.00    +0.000 A 
BRANCH   8  10
ATOM     10  C   UNL     1      -0.095  10.886  21.625  0.00  0.00    +0.000 A 
ATOM     11  C   UNL     1       0.080  12.237  21.299  0.00  0.00    +0.000 A 
ATOM     12  C   UNL     1      -0.606  13.224  22.010  0.00  0.00    +0.000 A 
ATOM     13  C   UNL     1      -1.464  12.871  23.052  0.00  0.00    +0.000 A 
ATOM     14  C   UNL     1      -1.640  11.530  23.385  0.00  0.00    +0.000 A 
ATOM     15  C   UNL     1      -0.962  10.537  22.675  0.00  0.00    +0.000 A 
ENDBRANCH   8  10
ENDBRANCH   2   5
BRANCH   3  16
ATOM     16  C   UNL     1       4.122   5.296  19.599  0.00  0.00    +0.000 C 
BRANCH  16  17
ATOM     17  C   UNL     1       4.723   5.077  18.235  0.00  0.00    +0.000 A 
ATOM     18  C   UNL     1       4.234   4.086  17.376  0.00  0.00    +0.000 A 
ATOM     19  C   UNL     1       4.783   3.925  16.098  0.00  0.00    +0.000 A 
ATOM     20  C   UNL     1       5.836   4.740  15.654  0.00  0.00    +0.000 A 
ATOM     21  C   UNL     1       6.345   5.708  16.529  0.00  0.00    +0.000 A 
ATOM     22  C   UNL     1       5.797   5.868  17.807  0.00  0.00    +0.000 A 
BRANCH  20  23
ATOM     23  C   UNL     1       6.343   4.524  14.259  0.00  0.00    +0.000 C 
ATOM     24  O   UNL     1       7.279   5.204  13.843  0.00  0.00    +0.000 OA
ATOM     25  N   UNL     1       5.733   3.546  13.493  0.00  0.00    +0.000 N 
ATOM     26  H   UNL     1       4.988   2.983  13.875  0.00  0.00    +0.000 HD
BRANCH  25  27
ATOM     27  C   UNL     1       6.155   3.247  12.159  0.00  0.00    +0.000 C 
ATOM     28  C   UNL     1       6.121   1.831  11.647  0.00  0.00    +0.000 C 
ATOM     29  C   UNL     1       5.154   2.846  11.112  0.00  0.00    +0.000 C 
ENDBRANCH  25  27
ENDBRANCH  20  23
ENDBRANCH  16  17
ENDBRANCH   3  16
TORSDOF 6
ENDMDL
MODEL 4
REMARK VINA RESULT:      -7.7      1.707      2.116
REMARK  Name = 
REMARK  6 active torsions:
REMARK  status: ('A' for Active; 'I' for Inactive)
REMARK    1  A    between atoms: C_2  and  C_17
REMARK    2  A    between atoms: N_3  and  C_4
REMARK    3  A    between atoms: C_4  and  C_5
REMARK    4  A    between atoms: C_8  and  C_9
REMARK    5  A    between atoms: N_11  and  C_12
REMARK    6  A    between atoms: N_20  and  C_21
REMARK                            x       y       z     vdW  Elec       q    Type
REMARK                         _______ _______ _______ _____ _____    ______ ____
ROOT
ATOM      1  O   UNL     1       3.943   3.287  19.242  0.00  0.00    +0.000 OA
ATOM      2  C   UNL     1       4.284   4.365  18.769  0.00  0.00    +0.000 C 
ATOM      3  N   UNL     1       3.744   5.568  19.167  0.00  0.00    +0.000 N 
ATOM      4  H   UNL     1       4.057   6.424  18.738  0.00  0.00    +0.000 HD
ENDROOT
BRANCH   2   5
ATOM      5  C   UNL     1       5.284   4.463  17.721  0.00  0.00    +0.000 A 
ATOM      6  C   UNL     1       6.675   4.648  17.868  0.00  0.00    +0.000 A 
ATOM      7  N   UNL     1       7.328   4.656  16.703  0.00  0.00    +0.000 NA
ATOM      8  N   UNL     1       6.359   4.496  15.766  0.00  0.00    +0.000 N 
ATOM      9  C   UNL     1       5.116   4.385  16.353  0.00  0.00    +0.000 A 
BRANCH   8  10
ATOM     10  C   UNL     1       6.663   4.449  14.376  0.00  0.00    +0.000 A 
ATOM     11  C   UNL     1       6.041   3.498  13.557  0.00  0.00    +0.000 A 
ATOM     12  C   UNL     1       6.328   3.453  12.191  0.00  0.00    +0.000 A 
ATOM     13  C   UNL     1       7.241   4.351  11.636  0.00  0.00    +0.000 A 
ATOM     14  C   UNL     1       7.867   5.296  12.444  0.00  0.00    +0.000 A 
ATOM     15  C   UNL     1       7.580   5.351  13.810  0.00  0.00    +0.000 A 
ENDBRANCH   8  10
ENDBRANCH   2   5
BRANCH   3  16
ATOM     16  C   UNL     1       2.677   5.663  20.130  0.00  0.00    +0.000 C 
BRANCH  16  17
ATOM     17  C   UNL     1       2.031   7.023  20.097  0.00  0.00    +0.000 A 
ATOM     18  C   UNL     1       1.287   7.500  21.182  0.00  0.00    +0.000 A 
ATOM     19  C   UNL     1       0.726   8.783  21.145  0.00  0.00    +0.000 A 
ATOM     20  C   UNL     1       0.888   9.612  20.023  0.00  0.00    +0.000 A 
ATOM     21  C   UNL     1       1.605   9.118  18.926  0.00  0.00    +0.000 A 
ATOM     22  C   UNL     1       2.164   7.835  18.963  0.00  0.00    +0.000 A 
BRANCH  20  23
ATOM     23  C   UNL     1       0.285  10.984  20.078  0.00  0.00    +0.000 C 
ATOM     24  O   UNL     1      -0.836  11.133  20.558  0.00  0.00    +0.000 OA
ATOM     25  N   UNL     1       1.034  12.040  19.590  0.00  0.00    +0.000 N 
ATOM     26  H   UNL     1       1.964  11.889  19.231  0.00  0.00    +0.000 HD
BRANCH  25  27
ATOM     27  C   UNL     1       0.559  13.390  19.616  0.00  0.00    +0.000 C 
ATOM     28  C   UNL     1       1.227  14.450  18.780  0.00  0.00    +0.000 C 
ATOM     29  C   UNL     1      -0.151  13.973  18.425  0.00  0.00    +0.000 C 
ENDBRANCH  25  27
ENDBRANCH  20  23
ENDBRANCH  16  17
ENDBRANCH   3  16
TORSDOF 6
ENDMDL
MODEL 5
REMARK VINA RESULT:      -7.6      3.778      5.435
REMARK  Name = 
REMARK  6 active torsions:
REMARK  status: ('A' for Active; 'I' for Inactive)
REMARK    1  A    between atoms: C_2  and  C_17
REMARK    2  A    between atoms: N_3  and  C_4
REMARK    3  A    between atoms: C_4  and  C_5
REMARK    4  A    between atoms: C_8  and  C_9
REMARK    5  A    between atoms: N_11  and  C_12
REMARK    6  A    between atoms: N_20  and  C_21
REMARK                            x       y       z     vdW  Elec       q    Type
REMARK                         _______ _______ _______ _____ _____    ______ ____
ROOT
ATOM      1  O   UNL     1       2.484  10.210  17.735  0.00  0.00    +0.000 OA
ATOM      2  C   UNL     1       2.150   9.208  18.357  0.00  0.00    +0.000 C 
ATOM      3  N   UNL     1       1.217   9.225  19.370  0.00  0.00    +0.000 N 
ATOM      4  H   UNL     1       0.986   8.372  19.853  0.00  0.00    +0.000 HD
ENDROOT
BRANCH   2   5
ATOM      5  C   UNL     1       2.732   7.906  18.086  0.00  0.00    +0.000 A 
ATOM      6  C   UNL     1       3.849   7.610  17.276  0.00  0.00    +0.000 A 
ATOM      7  N   UNL     1       4.158   6.311  17.264  0.00  0.00    +0.000 NA
ATOM      8  N   UNL     1       3.223   5.729  18.056  0.00  0.00    +0.000 N 
ATOM      9  C   UNL     1       2.345   6.668  18.559  0.00  0.00    +0.000 A 
BRANCH   8  10
ATOM     10  C   UNL     1       3.216   4.326  18.300  0.00  0.00    +0.000 A 
ATOM     11  C   UNL     1       2.410   3.486  17.521  0.00  0.00    +0.000 A 
ATOM     12  C   UNL     1       2.408   2.108  17.750  0.00  0.00    +0.000 A 
ATOM     13  C   UNL     1       3.202   1.563  18.759  0.00  0.00    +0.000 A 
ATOM     14  C   UNL     1       4.002   2.392  19.540  0.00  0.00    +0.000 A 
ATOM     15  C   UNL     1       4.015   3.770  19.314  0.00  0.00    +0.000 A 
ENDBRANCH   8  10
ENDBRANCH   2   5
BRANCH   3  16
ATOM     16  C   UNL     1       0.599  10.438  19.840  0.00  0.00    +0.000 C 
BRANCH  16  17
ATOM     17  C   UNL     1      -0.703  10.697  19.130  0.00  0.00    +0.000 A 
ATOM     18  C   UNL     1      -1.610  11.654  19.601  0.00  0.00    +0.000 A 
ATOM     19  C   UNL     1      -2.798  11.906  18.904  0.00  0.00    +0.000 A 
ATOM     20  C   UNL     1      -3.111  11.203  17.730  0.00  0.00    +0.000 A 
ATOM     21  C   UNL     1      -2.217  10.223  17.279  0.00  0.00    +0.000 A 
ATOM     22  C   UNL     1      -1.030   9.971  17.978  0.00  0.00    +0.000 A 
BRANCH  20  23
ATOM     23  C   UNL     1      -4.387  11.558  17.026  0.00  0.00    +0.000 C 
ATOM     24  O   UNL     1      -4.571  11.170  15.875  0.00  0.00    +0.000 OA
ATOM     25  N   UNL     1      -5.322  12.308  17.719  0.00  0.00    +0.000 N 
ATOM     26  H   UNL     1      -5.154  12.584  18.674  0.00  0.00    +0.000 HD
BRANCH  25  27
ATOM     27  C   UNL     1      -6.578  12.681  17.146  0.00  0.00    +0.000 C 
ATOM     28  C   UNL     1      -7.612  13.398  17.974  0.00  0.00    +0.000 C 
ATOM     29  C   UNL     1      -6.896  14.126  16.874  0.00  0.00    +0.000 C 
ENDBRANCH  25  27
ENDBRANCH  20  23
ENDBRANCH  16  17
ENDBRANCH   3  16
TORSDOF 6
ENDMDL
MODEL 6
REMARK VINA RESULT:      -7.6      1.786      2.181
REMARK  Name = 
REMARK  6 active torsions:
REMARK  status: ('A' for Active; 'I' for Inactive)
REMARK    1  A    between atoms: C_2  and  C_17
REMARK    2  A    between atoms: N_3  and  C_4
REMARK    3  A    between atoms: C_4  and  C_5
REMARK    4  A    between atoms: C_8  and  C_9
REMARK    5  A    between atoms: N_11  and  C_12
REMARK    6  A    between atoms: N_20  and  C_21
REMARK                            x       y       z     vdW  Elec       q    Type
REMARK                         _______ _______ _______ _____ _____    ______ ____
ROOT
ATOM      1  O   UNL     1       5.328   5.186  19.837  0.00  0.00    +0.000 OA
ATOM      2  C   UNL     1       4.868   5.594  18.776  0.00  0.00    +0.000 C 
ATOM      3  N   UNL     1       3.580   6.061  18.642  0.00  0.00    +0.000 N 
ATOM      4  H   UNL     1       3.253   6.377  17.744  0.00  0.00    +0.000 HD
ENDROOT
BRANCH   2   5
ATOM      5  C   UNL     1       5.649   5.598  17.552  0.00  0.00    +0.000 A 
ATOM      6  C   UNL     1       6.869   6.262  17.307  0.00  0.00    +0.000 A 
ATOM      7  N   UNL     1       7.355   6.032  16.084  0.00  0.00    +0.000 NA
ATOM      8  N   UNL     1       6.437   5.223  15.498  0.00  0.00    +0.000 N 
ATOM      9  C   UNL     1       5.393   4.952  16.359  0.00  0.00    +0.000 A 
BRANCH   8  10
ATOM     10  C   UNL     1       6.601   4.747  14.166  0.00  0.00    +0.000 A 
ATOM     11  C   UNL     1       7.603   5.287  13.350  0.00  0.00    +0.000 A 
ATOM     12  C   UNL     1       7.774   4.817  12.046  0.00  0.00    +0.000 A 
ATOM     13  C   UNL     1       6.944   3.812  11.548  0.00  0.00    +0.000 A 
ATOM     14  C   UNL     1       5.944   3.273  12.352  0.00  0.00    +0.000 A 
ATOM     15  C   UNL     1       5.770   3.734  13.659  0.00  0.00    +0.000 A 
ENDBRANCH   8  10
ENDBRANCH   2   5
BRANCH   3  16
ATOM     16  C   UNL     1       2.630   6.049  19.725  0.00  0.00    +0.000 C 
BRANCH  16  17
ATOM     17  C   UNL     1       1.977   7.396  19.893  0.00  0.00    +0.000 A 
ATOM     18  C   UNL     1       1.927   8.316  18.840  0.00  0.00    +0.000 A 
ATOM     19  C   UNL     1       1.281   9.547  19.006  0.00  0.00    +0.000 A 
ATOM     20  C   UNL     1       0.681   9.891  20.228  0.00  0.00    +0.000 A 
ATOM     21  C   UNL     1       0.762   8.981  21.291  0.00  0.00    +0.000 A 
ATOM     22  C   UNL     1       1.409   7.751  21.124  0.00  0.00    +0.000 A 
BRANCH  20  23
ATOM     23  C   UNL     1      -0.019  11.214  20.312  0.00  0.00    +0.000 C 
ATOM     24  O   UNL     1      -0.255  11.840  19.282  0.00  0.00    +0.000 OA
ATOM     25  N   UNL     1      -0.385  11.674  21.566  0.00  0.00    +0.000 N 
ATOM     26  H   UNL     1      -0.205  11.121  22.390  0.00  0.00    +0.000 HD
BRANCH  25  27
ATOM     27  C   UNL     1      -1.076  12.913  21.753  0.00  0.00    +0.000 C 
ATOM     28  C   UNL     1      -2.412  12.945  22.447  0.00  0.00    +0.000 C 
ATOM     29  C   UNL     1      -1.202  13.520  23.123  0.00  0.00    +0.000 C 
ENDBRANCH  25  27
ENDBRANCH  20  23
ENDBRANCH  16  17
ENDBRANCH   3  16
TORSDOF 6
ENDMDL
MODEL 7
REMARK VINA RESULT:      -7.6      0.837      1.321
REMARK  Name = 
REMARK  6 active torsions:
REMARK  status: ('A' for Active; 'I' for Inactive)
REMARK    1  A    between atoms: C_2  and  C_17
REMARK    2  A    between atoms: N_3  and  C_4
REMARK    3  A    between atoms: C_4  and  C_5
REMARK    4  A    between atoms: C_8  and  C_9
REMARK    5  A    between atoms: N_11  and  C_12
REMARK    6  A    between atoms: N_20  and  C_21
REMARK                            x       y       z     vdW  Elec       q    Type
REMARK                         _______ _______ _______ _____ _____    ______ ____
ROOT
ATOM      1  O   UNL     1       5.719   4.703  20.017  0.00  0.00    +0.000 OA
ATOM      2  C   UNL     1       5.219   4.807  18.903  0.00  0.00    +0.000 C 
ATOM      3  N   UNL     1       3.874   5.022  18.697  0.00  0.00    +0.000 N 
ATOM      4  H   UNL     1       3.516   5.092  17.759  0.00  0.00    +0.000 HD
ENDROOT
BRANCH   2   5
ATOM      5  C   UNL     1       6.011   4.690  17.691  0.00  0.00    +0.000 A 
ATOM      6  C   UNL     1       7.416   4.631  17.580  0.00  0.00    +0.000 A 
ATOM      7  N   UNL     1       7.835   4.483  16.320  0.00  0.00    +0.000 NA
ATOM      8  N   UNL     1       6.698   4.466  15.580  0.00  0.00    +0.000 N 
ATOM      9  C   UNL     1       5.583   4.597  16.382  0.00  0.00    +0.000 A 
BRANCH   8  10
ATOM     10  C   UNL     1       6.728   4.319  14.164  0.00  0.00    +0.000 A 
ATOM     11  C   UNL     1       7.626   5.078  13.402  0.00  0.00    +0.000 A 
ATOM     12  C   UNL     1       7.666   4.929  12.014  0.00  0.00    +0.000 A 
ATOM     13  C   UNL     1       6.808   4.031  11.378  0.00  0.00    +0.000 A 
ATOM     14  C   UNL     1       5.911   3.277  12.129  0.00  0.00    +0.000 A 
ATOM     15  C   UNL     1       5.868   3.415  13.518  0.00  0.00    +0.000 A 
ENDBRANCH   8  10
ENDBRANCH   2   5
BRANCH   3  16
ATOM     16  C   UNL     1       2.920   5.075  19.774  0.00  0.00    +0.000 C 
BRANCH  16  17
ATOM     17  C   UNL     1       2.306   6.445  19.892  0.00  0.00    +0.000 A 
ATOM     18  C   UNL     1       2.403   7.377  18.853  0.00  0.00    +0.000 A 
ATOM     19  C   UNL     1       1.792   8.632  18.969  0.00  0.00    +0.000 A 
ATOM     20  C   UNL     1       1.080   8.986  20.126  0.00  0.00    +0.000 A 
ATOM     21  C   UNL     1       1.013   8.063  21.177  0.00  0.00    +0.000 A 
ATOM     22  C   UNL     1       1.626   6.810  21.061  0.00  0.00    +0.000 A 
BRANCH  20  23
ATOM     23  C   UNL     1       0.428  10.336  20.155  0.00  0.00    +0.000 C 
ATOM     24  O   UNL     1       1.014  11.281  20.677  0.00  0.00    +0.000 OA
ATOM     25  N   UNL     1      -0.822  10.463  19.573  0.00  0.00    +0.000 N 
ATOM     26  H   UNL     1      -1.264   9.675  19.125  0.00  0.00    +0.000 HD
BRANCH  25  27
ATOM     27  C   UNL     1      -1.521  11.711  19.530  0.00  0.00    +0.000 C 
ATOM     28  C   UNL     1      -1.640  12.474  18.237  0.00  0.00    +0.000 C 
ATOM     29  C   UNL     1      -2.850  11.820  18.835  0.00  0.00    +0.000 C 
ENDBRANCH  25  27
ENDBRANCH  20  23
ENDBRANCH  16  17
ENDBRANCH   3  16
TORSDOF 6
ENDMDL
MODEL 8
REMARK VINA RESULT:      -7.6      1.548      2.104
REMARK  Name = 
REMARK  6 active torsions:
REMARK  status: ('A' for Active; 'I' for Inactive)
REMARK    1  A    between atoms: C_2  and  C_17
REMARK    2  A    between atoms: N_3  and  C_4
REMARK    3  A    between atoms: C_4  and  C_5
REMARK    4  A    between atoms: C_8  and  C_9
REMARK    5  A    between atoms: N_11  and  C_12
REMARK    6  A    between atoms: N_20  and  C_21
REMARK                            x       y       z     vdW  Elec       q    Type
REMARK                         _______ _______ _______ _____ _____    ______ ____
ROOT
ATOM      1  O   UNL     1       5.777   5.414  19.873  0.00  0.00    +0.000 OA
ATOM      2  C   UNL     1       5.225   5.334  18.782  0.00  0.00    +0.000 C 
ATOM      3  N   UNL     1       3.864   5.466  18.613  0.00  0.00    +0.000 N 
ATOM      4  H   UNL     1       3.463   5.383  17.694  0.00  0.00    +0.000 HD
ENDROOT
BRANCH   2   5
ATOM      5  C   UNL     1       5.968   5.070  17.562  0.00  0.00    +0.000 A 
ATOM      6  C   UNL     1       7.365   4.949  17.410  0.00  0.00    +0.000 A 
ATOM      7  N   UNL     1       7.733   4.663  16.159  0.00  0.00    +0.000 NA
ATOM      8  N   UNL     1       6.570   4.615  15.462  0.00  0.00    +0.000 N 
ATOM      9  C   UNL     1       5.489   4.864  16.284  0.00  0.00    +0.000 A 
BRANCH   8  10
ATOM     10  C   UNL     1       6.543   4.327  14.068  0.00  0.00    +0.000 A 
ATOM     11  C   UNL     1       5.518   3.534  13.538  0.00  0.00    +0.000 A 
ATOM     12  C   UNL     1       5.482   3.257  12.169  0.00  0.00    +0.000 A 
ATOM     13  C   UNL     1       6.471   3.763  11.325  0.00  0.00    +0.000 A 
ATOM     14  C   UNL     1       7.495   4.549  11.845  0.00  0.00    +0.000 A 
ATOM     15  C   UNL     1       7.535   4.835  13.212  0.00  0.00    +0.000 A 
ENDBRANCH   8  10
ENDBRANCH   2   5
BRANCH   3  16
ATOM     16  C   UNL     1       2.956   5.641  19.717  0.00  0.00    +0.000 C 
BRANCH  16  17
ATOM     17  C   UNL     1       2.277   6.984  19.657  0.00  0.00    +0.000 A 
ATOM     18  C   UNL     1       1.537   7.473  20.740  0.00  0.00    +0.000 A 
ATOM     19  C   UNL     1       0.946   8.741  20.678  0.00  0.00    +0.000 A 
ATOM     20  C   UNL     1       1.071   9.543  19.531  0.00  0.00    +0.000 A 
ATOM     21  C   UNL     1       1.785   9.036  18.437  0.00  0.00    +0.000 A 
ATOM     22  C   UNL     1       2.374   7.768  18.500  0.00  0.00    +0.000 A 
BRANCH  20  23
ATOM     23  C   UNL     1       0.436  10.901  19.559  0.00  0.00    +0.000 C 
ATOM     24  O   UNL     1      -0.349  11.221  18.670  0.00  0.00    +0.000 OA
ATOM     25  N   UNL     1       0.759  11.745  20.609  0.00  0.00    +0.000 N 
ATOM     26  H   UNL     1       1.383  11.441  21.340  0.00  0.00    +0.000 HD
BRANCH  25  27
ATOM     27  C   UNL     1       0.192  13.052  20.739  0.00  0.00    +0.000 C 
ATOM     28  C   UNL     1      -0.494  13.462  22.015  0.00  0.00    +0.000 C 
ATOM     29  C   UNL     1       0.825  14.073  21.643  0.00  0.00    +0.000 C 
ENDBRANCH  25  27
ENDBRANCH  20  23
ENDBRANCH  16  17
ENDBRANCH   3  16
TORSDOF 6
ENDMDL
MODEL 9
REMARK VINA RESULT:      -7.6      2.160     10.846
REMARK  Name = 
REMARK  6 active torsions:
REMARK  status: ('A' for Active; 'I' for Inactive)
REMARK    1  A    between atoms: C_2  and  C_17
REMARK    2  A    between atoms: N_3  and  C_4
REMARK    3  A    between atoms: C_4  and  C_5
REMARK    4  A    between atoms: C_8  and  C_9
REMARK    5  A    between atoms: N_11  and  C_12
REMARK    6  A    between atoms: N_20  and  C_21
REMARK                            x       y       z     vdW  Elec       q    Type
REMARK                         _______ _______ _______ _____ _____    ______ ____
ROOT
ATOM      1  O   UNL     1       0.496  11.419  18.676  0.00  0.00    +0.000 OA
ATOM      2  C   UNL     1      -0.388  10.650  19.033  0.00  0.00    +0.000 C 
ATOM      3  N   UNL     1      -0.181   9.625  19.930  0.00  0.00    +0.000 N 
ATOM      4  H   UNL     1      -0.944   9.019  20.182  0.00  0.00    +0.000 HD
ENDROOT
BRANCH   2   5
ATOM      5  C   UNL     1      -1.743  10.743  18.516  0.00  0.00    +0.000 A 
ATOM      6  C   UNL     1      -2.332   9.972  17.493  0.00  0.00    +0.000 A 
ATOM      7  N   UNL     1      -3.614  10.279  17.278  0.00  0.00    +0.000 NA
ATOM      8  N   UNL     1      -3.877  11.283  18.153  0.00  0.00    +0.000 N 
ATOM      9  C   UNL     1      -2.762  11.587  18.907  0.00  0.00    +0.000 A 
BRANCH   8  10
ATOM     10  C   UNL     1      -5.163  11.888  18.234  0.00  0.00    +0.000 A 
ATOM     11  C   UNL     1      -5.729  12.479  17.096  0.00  0.00    +0.000 A 
ATOM     12  C   UNL     1      -6.995  13.065  17.168  0.00  0.00    +0.000 A 
ATOM     13  C   UNL     1      -7.699  13.072  18.373  0.00  0.00    +0.000 A 
ATOM     14  C   UNL     1      -7.141  12.489  19.507  0.00  0.00    +0.000 A 
ATOM     15  C   UNL     1      -5.878  11.896  19.443  0.00  0.00    +0.000 A 
ENDBRANCH   8  10
ENDBRANCH   2   5
BRANCH   3  16
ATOM     16  C   UNL     1       1.115   9.322  20.480  0.00  0.00    +0.000 C 
BRANCH  16  17
ATOM     17  C   UNL     1       1.751   8.157  19.766  0.00  0.00    +0.000 A 
ATOM     18  C   UNL     1       2.236   8.284  18.459  0.00  0.00    +0.000 A 
ATOM     19  C   UNL     1       2.858   7.199  17.828  0.00  0.00    +0.000 A 
ATOM     20  C   UNL     1       3.000   5.965  18.483  0.00  0.00    +0.000 A 
ATOM     21  C   UNL     1       2.483   5.833  19.778  0.00  0.00    +0.000 A 
ATOM     22  C   UNL     1       1.861   6.917  20.407  0.00  0.00    +0.000 A 
BRANCH  20  23
ATOM     23  C   UNL     1       3.708   4.865  17.749  0.00  0.00    +0.000 C 
ATOM     24  O   UNL     1       3.349   3.701  17.909  0.00  0.00    +0.000 OA
ATOM     25  N   UNL     1       4.744   5.217  16.900  0.00  0.00    +0.000 N 
ATOM     26  H   UNL     1       4.994   6.184  16.766  0.00  0.00    +0.000 HD
BRANCH  25  27
ATOM     27  C   UNL     1       5.469   4.246  16.139  0.00  0.00    +0.000 C 
ATOM     28  C   UNL     1       5.587   4.383  14.643  0.00  0.00    +0.000 C 
ATOM     29  C   UNL     1       6.791   4.597  15.513  0.00  0.00    +0.000 C 
ENDBRANCH  25  27
ENDBRANCH  20  23
ENDBRANCH  16  17
ENDBRANCH   3  16
TORSDOF 6
ENDMDL
