MODEL 1
REMARK VINA RESULT:      -6.8      0.000      0.000
REMARK  Name = 
REMARK  10 active torsions:
REMARK  status: ('A' for Active; 'I' for Inactive)
REMARK    1  A    between atoms: C_1  and  O_2
REMARK    2  A    between atoms: O_2  and  C_3
REMARK    3  A    between atoms: C_6  and  N_7
REMARK    4  A    between atoms: C_11  and  C_12
REMARK    5  A    between atoms: C_14  and  O_15
REMARK    6  A    between atoms: O_15  and  C_16
REMARK    7  A    between atoms: C_17  and  O_18
REMARK    8  A    between atoms: O_18  and  C_19
REMARK    9  A    between atoms: C_20  and  O_21
REMARK   10  A    between atoms: O_21  and  C_22
REMARK                            x       y       z     vdW  Elec       q    Type
REMARK                         _______ _______ _______ _____ _____    ______ ____
ROOT
ATOM      1  N   UNL     1       3.465   3.795  19.841  0.00  0.00    +0.000 N 
ATOM      2  N   UNL     1       3.336   2.527  20.311  0.00  0.00    +0.000 NA
ATOM      3  N   UNL     1       2.566   2.560  21.387  0.00  0.00    +0.000 NA
ATOM      4  C   UNL     1       2.103   3.830  21.533  0.00  0.00    +0.000 A 
ATOM      5  C   UNL     1       2.579   4.640  20.516  0.00  0.00    +0.000 A 
ENDROOT
BRANCH   1   9
ATOM      6  C   UNL     1       6.365   4.471  16.849  0.00  0.00    +0.000 A 
ATOM      7  C   UNL     1       6.593   4.878  18.167  0.00  0.00    +0.000 A 
ATOM      8  C   UNL     1       5.617   4.697  19.149  0.00  0.00    +0.000 A 
ATOM      9  C   UNL     1       4.402   4.085  18.817  0.00  0.00    +0.000 A 
ATOM     10  C   UNL     1       4.148   3.737  17.484  0.00  0.00    +0.000 A 
ATOM     11  C   UNL     1       5.129   3.925  16.505  0.00  0.00    +0.000 A 
BRANCH   6  13
ATOM     12  C   UNL     1       7.067   4.786  14.609  0.00  0.00    +0.000 C 
ATOM     13  O   UNL     1       7.405   4.682  15.988  0.00  0.00    +0.000 OA
ENDBRANCH   6  13
ENDBRANCH   1   9
BRANCH   5  14
ATOM     14  C   UNL     1       2.201   6.007  20.147  0.00  0.00    +0.000 A 
ATOM     15  C   UNL     1       1.398   6.770  20.994  0.00  0.00    +0.000 A 
ATOM     16  C   UNL     1       1.063   8.091  20.669  0.00  0.00    +0.000 A 
ATOM     17  C   UNL     1       1.543   8.673  19.473  0.00  0.00    +0.000 A 
ATOM     18  C   UNL     1       2.327   7.903  18.594  0.00  0.00    +0.000 A 
ATOM     19  C   UNL     1       2.606   6.571  18.929  0.00  0.00    +0.000 A 
BRANCH  16  20
ATOM     20  O   UNL     1       0.266   8.881  21.465  0.00  0.00    +0.000 OA
ATOM     21  C   UNL     1       0.838   9.349  22.681  0.00  0.00    +0.000 C 
ENDBRANCH  16  20
BRANCH  17  22
ATOM     22  O   UNL     1       1.128   9.965  19.241  0.00  0.00    +0.000 OA
ATOM     23  C   UNL     1       0.001  10.142  18.393  0.00  0.00    +0.000 C 
ENDBRANCH  17  22
BRANCH  18  24
ATOM     24  O   UNL     1       2.761   8.474  17.425  0.00  0.00    +0.000 OA
ATOM     25  C   UNL     1       3.838   7.850  16.732  0.00  0.00    +0.000 C 
ENDBRANCH  18  24
ENDBRANCH   5  14
TORSDOF 6
ENDMDL
MODEL 2
REMARK VINA RESULT:      -6.7      0.231      2.733
REMARK  Name = 
REMARK  10 active torsions:
REMARK  status: ('A' for Active; 'I' for Inactive)
REMARK    1  A    between atoms: C_1  and  O_2
REMARK    2  A    between atoms: O_2  and  C_3
REMARK    3  A    between atoms: C_6  and  N_7
REMARK    4  A    between atoms: C_11  and  C_12
REMARK    5  A    between atoms: C_14  and  O_15
REMARK    6  A    between atoms: O_15  and  C_16
REMARK    7  A    between atoms: C_17  and  O_18
REMARK    8  A    between atoms: O_18  and  C_19
REMARK    9  A    between atoms: C_20  and  O_21
REMARK   10  A    between atoms: O_21  and  C_22
REMARK                            x       y       z     vdW  Elec       q    Type
REMARK                         _______ _______ _______ _____ _____    ______ ____
ROOT
ATOM      1  N   UNL     1       3.572   3.699  19.851  0.00  0.00    +0.000 N 
ATOM      2  N   UNL     1       3.385   2.432  20.305  0.00  0.00    +0.000 NA
ATOM      3  N   UNL     1       2.547   2.478  21.328  0.00  0.00    +0.000 NA
ATOM      4  C   UNL     1       2.103   3.758  21.449  0.00  0.00    +0.000 A 
ATOM      5  C   UNL     1       2.662   4.560  20.470  0.00  0.00    +0.000 A 
ENDROOT
BRANCH   1   9
ATOM      6  C   UNL     1       6.459   4.689  16.935  0.00  0.00    +0.000 A 
ATOM      7  C   UNL     1       5.316   3.964  16.587  0.00  0.00    +0.000 A 
ATOM      8  C   UNL     1       4.382   3.596  17.558  0.00  0.00    +0.000 A 
ATOM      9  C   UNL     1       4.581   3.972  18.892  0.00  0.00    +0.000 A 
ATOM     10  C   UNL     1       5.758   4.641  19.251  0.00  0.00    +0.000 A 
ATOM     11  C   UNL     1       6.691   5.003  18.274  0.00  0.00    +0.000 A 
BRANCH   6  13
ATOM     12  C   UNL     1       6.813   4.669  14.593  0.00  0.00    +0.000 C 
ATOM     13  O   UNL     1       7.283   5.009  15.893  0.00  0.00    +0.000 OA
ENDBRANCH   6  13
ENDBRANCH   1   9
BRANCH   5  14
ATOM     14  C   UNL     1       2.338   5.937  20.084  0.00  0.00    +0.000 A 
ATOM     15  C   UNL     1       2.813   6.463  18.883  0.00  0.00    +0.000 A 
ATOM     16  C   UNL     1       2.477   7.765  18.487  0.00  0.00    +0.000 A 
ATOM     17  C   UNL     1       1.642   8.564  19.302  0.00  0.00    +0.000 A 
ATOM     18  C   UNL     1       1.184   8.055  20.531  0.00  0.00    +0.000 A 
ATOM     19  C   UNL     1       1.575   6.766  20.918  0.00  0.00    +0.000 A 
BRANCH  16  20
ATOM     20  O   UNL     1       2.928   8.334  17.319  0.00  0.00    +0.000 OA
ATOM     21  C   UNL     1       4.014   7.684  16.667  0.00  0.00    +0.000 C 
ENDBRANCH  16  20
BRANCH  17  22
ATOM     22  O   UNL     1       1.402   9.834  18.829  0.00  0.00    +0.000 OA
ATOM     23  C   UNL     1       0.120  10.087  18.270  0.00  0.00    +0.000 C 
ENDBRANCH  17  22
BRANCH  18  24
ATOM     24  O   UNL     1       0.398   8.853  21.323  0.00  0.00    +0.000 OA
ATOM     25  C   UNL     1       0.949   9.340  22.543  0.00  0.00    +0.000 C 
ENDBRANCH  18  24
ENDBRANCH   5  14
TORSDOF 6
ENDMDL
MODEL 3
REMARK VINA RESULT:      -6.5      3.758      5.499
REMARK  Name = 
REMARK  10 active torsions:
REMARK  status: ('A' for Active; 'I' for Inactive)
REMARK    1  A    between atoms: C_1  and  O_2
REMARK    2  A    between atoms: O_2  and  C_3
REMARK    3  A    between atoms: C_6  and  N_7
REMARK    4  A    between atoms: C_11  and  C_12
REMARK    5  A    between atoms: C_14  and  O_15
REMARK    6  A    between atoms: O_15  and  C_16
REMARK    7  A    between atoms: C_17  and  O_18
REMARK    8  A    between atoms: O_18  and  C_19
REMARK    9  A    between atoms: C_20  and  O_21
REMARK   10  A    between atoms: O_21  and  C_22
REMARK                            x       y       z     vdW  Elec       q    Type
REMARK                         _______ _______ _______ _____ _____    ______ ____
ROOT
ATOM      1  N   UNL     1       6.932   5.766  16.415  0.00  0.00    +0.000 N 
ATOM      2  N   UNL     1       7.498   5.549  15.199  0.00  0.00    +0.000 NA
ATOM      3  N   UNL     1       7.032   4.405  14.724  0.00  0.00    +0.000 NA
ATOM      4  C   UNL     1       6.076   3.953  15.580  0.00  0.00    +0.000 A 
ATOM      5  C   UNL     1       5.913   4.835  16.633  0.00  0.00    +0.000 A 
ENDROOT
BRANCH   1   9
ATOM      6  C   UNL     1       8.543   8.854  18.799  0.00  0.00    +0.000 A 
ATOM      7  C   UNL     1       8.617   7.522  19.215  0.00  0.00    +0.000 A 
ATOM      8  C   UNL     1       8.045   6.503  18.450  0.00  0.00    +0.000 A 
ATOM      9  C   UNL     1       7.405   6.815  17.244  0.00  0.00    +0.000 A 
ATOM     10  C   UNL     1       7.273   8.156  16.861  0.00  0.00    +0.000 A 
ATOM     11  C   UNL     1       7.846   9.171  17.634  0.00  0.00    +0.000 A 
BRANCH   6  13
ATOM     12  C   UNL     1       9.740  10.890  18.987  0.00  0.00    +0.000 C 
ATOM     13  O   UNL     1       9.161   9.754  19.621  0.00  0.00    +0.000 OA
ENDBRANCH   6  13
ENDBRANCH   1   9
BRANCH   5  14
ATOM     14  C   UNL     1       4.883   4.875  17.676  0.00  0.00    +0.000 A 
ATOM     15  C   UNL     1       4.759   3.825  18.586  0.00  0.00    +0.000 A 
ATOM     16  C   UNL     1       3.803   3.872  19.610  0.00  0.00    +0.000 A 
ATOM     17  C   UNL     1       2.951   4.992  19.738  0.00  0.00    +0.000 A 
ATOM     18  C   UNL     1       3.044   6.043  18.806  0.00  0.00    +0.000 A 
ATOM     19  C   UNL     1       3.980   5.944  17.768  0.00  0.00    +0.000 A 
BRANCH  16  20
ATOM     20  O   UNL     1       3.634   2.858  20.525  0.00  0.00    +0.000 OA
ATOM     21  C   UNL     1       4.593   1.807  20.501  0.00  0.00    +0.000 C 
ENDBRANCH  16  20
BRANCH  17  22
ATOM     22  O   UNL     1       2.032   4.917  20.760  0.00  0.00    +0.000 OA
ATOM     23  C   UNL     1       0.788   4.293  20.470  0.00  0.00    +0.000 C 
ENDBRANCH  17  22
BRANCH  18  24
ATOM     24  O   UNL     1       2.190   7.109  18.927  0.00  0.00    +0.000 OA
ATOM     25  C   UNL     1       2.411   8.245  18.096  0.00  0.00    +0.000 C 
ENDBRANCH  18  24
ENDBRANCH   5  14
TORSDOF 6
ENDMDL
MODEL 4
REMARK VINA RESULT:      -6.5      2.972      4.562
REMARK  Name = 
REMARK  10 active torsions:
REMARK  status: ('A' for Active; 'I' for Inactive)
REMARK    1  A    between atoms: C_1  and  O_2
REMARK    2  A    between atoms: O_2  and  C_3
REMARK    3  A    between atoms: C_6  and  N_7
REMARK    4  A    between atoms: C_11  and  C_12
REMARK    5  A    between atoms: C_14  and  O_15
REMARK    6  A    between atoms: O_15  and  C_16
REMARK    7  A    between atoms: C_17  and  O_18
REMARK    8  A    between atoms: O_18  and  C_19
REMARK    9  A    between atoms: C_20  and  O_21
REMARK   10  A    between atoms: O_21  and  C_22
REMARK                            x       y       z     vdW  Elec       q    Type
REMARK                         _______ _______ _______ _____ _____    ______ ____
ROOT
ATOM      1  N   UNL     1       6.031   5.023  16.876  0.00  0.00    +0.000 N 
ATOM      2  N   UNL     1       6.429   4.340  15.771  0.00  0.00    +0.000 NA
ATOM      3  N   UNL     1       5.585   3.339  15.577  0.00  0.00    +0.000 NA
ATOM      4  C   UNL     1       4.580   3.455  16.486  0.00  0.00    +0.000 A 
ATOM      5  C   UNL     1       4.773   4.569  17.283  0.00  0.00    +0.000 A 
ENDROOT
BRANCH   1   9
ATOM      6  C   UNL     1       8.344   8.075  18.651  0.00  0.00    +0.000 A 
ATOM      7  C   UNL     1       7.625   8.318  17.477  0.00  0.00    +0.000 A 
ATOM      8  C   UNL     1       6.895   7.298  16.862  0.00  0.00    +0.000 A 
ATOM      9  C   UNL     1       6.868   6.021  17.437  0.00  0.00    +0.000 A 
ATOM     10  C   UNL     1       7.641   5.761  18.576  0.00  0.00    +0.000 A 
ATOM     11  C   UNL     1       8.372   6.787  19.184  0.00  0.00    +0.000 A 
BRANCH   6  13
ATOM     12  C   UNL     1       8.968  10.344  18.377  0.00  0.00    +0.000 C 
ATOM     13  O   UNL     1       8.997   9.159  19.166  0.00  0.00    +0.000 OA
ENDBRANCH   6  13
ENDBRANCH   1   9
BRANCH   5  14
ATOM     14  C   UNL     1       3.871   5.203  18.249  0.00  0.00    +0.000 A 
ATOM     15  C   UNL     1       3.296   6.442  17.970  0.00  0.00    +0.000 A 
ATOM     16  C   UNL     1       2.402   7.038  18.870  0.00  0.00    +0.000 A 
ATOM     17  C   UNL     1       2.064   6.383  20.076  0.00  0.00    +0.000 A 
ATOM     18  C   UNL     1       2.663   5.147  20.384  0.00  0.00    +0.000 A 
ATOM     19  C   UNL     1       3.587   4.601  19.483  0.00  0.00    +0.000 A 
BRANCH  16  20
ATOM     20  O   UNL     1       1.817   8.263  18.646  0.00  0.00    +0.000 OA
ATOM     21  C   UNL     1       2.413   9.085  17.648  0.00  0.00    +0.000 C 
ENDBRANCH  16  20
BRANCH  17  22
ATOM     22  O   UNL     1       1.201   7.073  20.897  0.00  0.00    +0.000 OA
ATOM     23  C   UNL     1       1.717   8.211  21.573  0.00  0.00    +0.000 C 
ENDBRANCH  17  22
BRANCH  18  24
ATOM     24  O   UNL     1       2.346   4.539  21.572  0.00  0.00    +0.000 OA
ATOM     25  C   UNL     1       2.015   3.153  21.550  0.00  0.00    +0.000 C 
ENDBRANCH  18  24
ENDBRANCH   5  14
TORSDOF 6
ENDMDL
MODEL 5
REMARK VINA RESULT:      -6.4      3.114      4.343
REMARK  Name = 
REMARK  10 active torsions:
REMARK  status: ('A' for Active; 'I' for Inactive)
REMARK    1  A    between atoms: C_1  and  O_2
REMARK    2  A    between atoms: O_2  and  C_3
REMARK    3  A    between atoms: C_6  and  N_7
REMARK    4  A    between atoms: C_11  and  C_12
REMARK    5  A    between atoms: C_14  and  O_15
REMARK    6  A    between atoms: O_15  and  C_16
REMARK    7  A    between atoms: C_17  and  O_18
REMARK    8  A    between atoms: O_18  and  C_19
REMARK    9  A    between atoms: C_20  and  O_21
REMARK   10  A    between atoms: O_21  and  C_22
REMARK                            x       y       z     vdW  Elec       q    Type
REMARK                         _______ _______ _______ _____ _____    ______ ____
ROOT
ATOM      1  N   UNL     1       6.114   5.464  17.011  0.00  0.00    +0.000 N 
ATOM      2  N   UNL     1       6.617   4.749  15.970  0.00  0.00    +0.000 NA
ATOM      3  N   UNL     1       5.835   3.700  15.772  0.00  0.00    +0.000 NA
ATOM      4  C   UNL     1       4.765   3.811  16.605  0.00  0.00    +0.000 A 
ATOM      5  C   UNL     1       4.853   4.970  17.356  0.00  0.00    +0.000 A 
ENDROOT
BRANCH   1   9
ATOM      6  C   UNL     1       8.525   8.556  18.574  0.00  0.00    +0.000 A 
ATOM      7  C   UNL     1       8.527   7.287  19.160  0.00  0.00    +0.000 A 
ATOM      8  C   UNL     1       7.696   6.275  18.673  0.00  0.00    +0.000 A 
ATOM      9  C   UNL     1       6.865   6.527  17.575  0.00  0.00    +0.000 A 
ATOM     10  C   UNL     1       6.815   7.816  17.029  0.00  0.00    +0.000 A 
ATOM     11  C   UNL     1       7.647   8.826  17.525  0.00  0.00    +0.000 A 
BRANCH   6  13
ATOM     12  C   UNL     1       9.329  10.783  18.629  0.00  0.00    +0.000 C 
ATOM     13  O   UNL     1       9.398   9.451  19.126  0.00  0.00    +0.000 OA
ENDBRANCH   6  13
ENDBRANCH   1   9
BRANCH   5  14
ATOM     14  C   UNL     1       3.859   5.604  18.226  0.00  0.00    +0.000 A 
ATOM     15  C   UNL     1       3.333   4.914  19.317  0.00  0.00    +0.000 A 
ATOM     16  C   UNL     1       2.411   5.525  20.178  0.00  0.00    +0.000 A 
ATOM     17  C   UNL     1       2.004   6.861  19.952  0.00  0.00    +0.000 A 
ATOM     18  C   UNL     1       2.503   7.557  18.836  0.00  0.00    +0.000 A 
ATOM     19  C   UNL     1       3.389   6.900  17.970  0.00  0.00    +0.000 A 
BRANCH  16  20
ATOM     20  O   UNL     1       1.855   4.884  21.260  0.00  0.00    +0.000 OA
ATOM     21  C   UNL     1       2.009   3.470  21.316  0.00  0.00    +0.000 C 
ENDBRANCH  16  20
BRANCH  17  22
ATOM     22  O   UNL     1       1.074   7.349  20.841  0.00  0.00    +0.000 OA
ATOM     23  C   UNL     1       1.470   8.442  21.659  0.00  0.00    +0.000 C 
ENDBRANCH  17  22
BRANCH  18  24
ATOM     24  O   UNL     1       2.076   8.842  18.615  0.00  0.00    +0.000 OA
ATOM     25  C   UNL     1       1.028   9.050  17.674  0.00  0.00    +0.000 C 
ENDBRANCH  18  24
ENDBRANCH   5  14
TORSDOF 6
ENDMDL
MODEL 6
REMARK VINA RESULT:      -6.4      3.665      5.410
REMARK  Name = 
REMARK  10 active torsions:
REMARK  status: ('A' for Active; 'I' for Inactive)
REMARK    1  A    between atoms: C_1  and  O_2
REMARK    2  A    between atoms: O_2  and  C_3
REMARK    3  A    between atoms: C_6  and  N_7
REMARK    4  A    between atoms: C_11  and  C_12
REMARK    5  A    between atoms: C_14  and  O_15
REMARK    6  A    between atoms: O_15  and  C_16
REMARK    7  A    between atoms: C_17  and  O_18
REMARK    8  A    between atoms: O_18  and  C_19
REMARK    9  A    between atoms: C_20  and  O_21
REMARK   10  A    between atoms: O_21  and  C_22
REMARK                            x       y       z     vdW  Elec       q    Type
REMARK                         _______ _______ _______ _____ _____    ______ ____
ROOT
ATOM      1  N   UNL     1       6.702   5.410  16.034  0.00  0.00    +0.000 N 
ATOM      2  N   UNL     1       7.307   5.226  14.831  0.00  0.00    +0.000 NA
ATOM      3  N   UNL     1       6.793   4.143  14.272  0.00  0.00    +0.000 NA
ATOM      4  C   UNL     1       5.775   3.705  15.060  0.00  0.00    +0.000 A 
ATOM      5  C   UNL     1       5.619   4.535  16.156  0.00  0.00    +0.000 A 
ENDROOT
BRANCH   1   9
ATOM      6  C   UNL     1       8.392   8.254  18.657  0.00  0.00    +0.000 A 
ATOM      7  C   UNL     1       8.382   6.896  18.990  0.00  0.00    +0.000 A 
ATOM      8  C   UNL     1       7.783   5.958  18.145  0.00  0.00    +0.000 A 
ATOM      9  C   UNL     1       7.201   6.379  16.942  0.00  0.00    +0.000 A 
ATOM     10  C   UNL     1       7.153   7.746  16.641  0.00  0.00    +0.000 A 
ATOM     11  C   UNL     1       7.752   8.679  17.494  0.00  0.00    +0.000 A 
BRANCH   6  13
ATOM     12  C   UNL     1       9.267  10.403  19.128  0.00  0.00    +0.000 C 
ATOM     13  O   UNL     1       9.028   9.066  19.553  0.00  0.00    +0.000 OA
ENDBRANCH   6  13
ENDBRANCH   1   9
BRANCH   5  14
ATOM     14  C   UNL     1       4.549   4.581  17.157  0.00  0.00    +0.000 A 
ATOM     15  C   UNL     1       4.094   5.804  17.648  0.00  0.00    +0.000 A 
ATOM     16  C   UNL     1       3.045   5.860  18.575  0.00  0.00    +0.000 A 
ATOM     17  C   UNL     1       2.426   4.669  19.023  0.00  0.00    +0.000 A 
ATOM     18  C   UNL     1       2.898   3.428  18.559  0.00  0.00    +0.000 A 
ATOM     19  C   UNL     1       3.979   3.406  17.667  0.00  0.00    +0.000 A 
BRANCH  16  20
ATOM     20  O   UNL     1       2.567   7.039  19.098  0.00  0.00    +0.000 OA
ATOM     21  C   UNL     1       2.283   8.082  18.172  0.00  0.00    +0.000 C 
ENDBRANCH  16  20
BRANCH  17  22
ATOM     22  O   UNL     1       1.428   4.841  19.954  0.00  0.00    +0.000 OA
ATOM     23  C   UNL     1       1.740   4.530  21.306  0.00  0.00    +0.000 C 
ENDBRANCH  17  22
BRANCH  18  24
ATOM     24  O   UNL     1       2.306   2.281  19.025  0.00  0.00    +0.000 OA
ATOM     25  C   UNL     1       0.960   2.016  18.640  0.00  0.00    +0.000 C 
ENDBRANCH  18  24
ENDBRANCH   5  14
TORSDOF 6
ENDMDL
MODEL 7
REMARK VINA RESULT:      -6.4      1.543      6.224
REMARK  Name = 
REMARK  10 active torsions:
REMARK  status: ('A' for Active; 'I' for Inactive)
REMARK    1  A    between atoms: C_1  and  O_2
REMARK    2  A    between atoms: O_2  and  C_3
REMARK    3  A    between atoms: C_6  and  N_7
REMARK    4  A    between atoms: C_11  and  C_12
REMARK    5  A    between atoms: C_14  and  O_15
REMARK    6  A    between atoms: O_15  and  C_16
REMARK    7  A    between atoms: C_17  and  O_18
REMARK    8  A    between atoms: O_18  and  C_19
REMARK    9  A    between atoms: C_20  and  O_21
REMARK   10  A    between atoms: O_21  and  C_22
REMARK                            x       y       z     vdW  Elec       q    Type
REMARK                         _______ _______ _______ _____ _____    ______ ____
ROOT
ATOM      1  N   UNL     1       2.730   3.931  18.772  0.00  0.00    +0.000 N 
ATOM      2  N   UNL     1       2.069   3.005  19.514  0.00  0.00    +0.000 NA
ATOM      3  N   UNL     1       2.282   1.815  18.977  0.00  0.00    +0.000 NA
ATOM      4  C   UNL     1       3.178   1.966  17.964  0.00  0.00    +0.000 A 
ATOM      5  C   UNL     1       3.563   3.290  17.851  0.00  0.00    +0.000 A 
ENDROOT
BRANCH   1   9
ATOM      6  C   UNL     1       1.871   8.021  19.365  0.00  0.00    +0.000 A 
ATOM      7  C   UNL     1       2.283   7.555  18.114  0.00  0.00    +0.000 A 
ATOM      8  C   UNL     1       2.612   6.210  17.926  0.00  0.00    +0.000 A 
ATOM      9  C   UNL     1       2.511   5.314  18.997  0.00  0.00    +0.000 A 
ATOM     10  C   UNL     1       2.162   5.794  20.266  0.00  0.00    +0.000 A 
ATOM     11  C   UNL     1       1.837   7.143  20.447  0.00  0.00    +0.000 A 
BRANCH   6  13
ATOM     12  C   UNL     1       1.277   9.976  18.166  0.00  0.00    +0.000 C 
ATOM     13  O   UNL     1       1.556   9.350  19.414  0.00  0.00    +0.000 OA
ENDBRANCH   6  13
ENDBRANCH   1   9
BRANCH   5  14
ATOM     14  C   UNL     1       4.635   3.892  17.054  0.00  0.00    +0.000 A 
ATOM     15  C   UNL     1       5.732   4.484  17.678  0.00  0.00    +0.000 A 
ATOM     16  C   UNL     1       6.781   5.028  16.924  0.00  0.00    +0.000 A 
ATOM     17  C   UNL     1       6.743   4.978  15.512  0.00  0.00    +0.000 A 
ATOM     18  C   UNL     1       5.626   4.413  14.869  0.00  0.00    +0.000 A 
ATOM     19  C   UNL     1       4.574   3.919  15.653  0.00  0.00    +0.000 A 
BRANCH  16  20
ATOM     20  O   UNL     1       7.879   5.632  17.492  0.00  0.00    +0.000 OA
ATOM     21  C   UNL     1       7.801   5.924  18.883  0.00  0.00    +0.000 C 
ENDBRANCH  16  20
BRANCH  17  22
ATOM     22  O   UNL     1       7.810   5.568  14.875  0.00  0.00    +0.000 OA
ATOM     23  C   UNL     1       7.917   5.374  13.470  0.00  0.00    +0.000 C 
ENDBRANCH  17  22
BRANCH  18  24
ATOM     24  O   UNL     1       5.591   4.398  13.498  0.00  0.00    +0.000 OA
ATOM     25  C   UNL     1       4.918   3.320  12.854  0.00  0.00    +0.000 C 
ENDBRANCH  18  24
ENDBRANCH   5  14
TORSDOF 6
ENDMDL
MODEL 8
REMARK VINA RESULT:      -6.4      2.159      3.480
REMARK  Name = 
REMARK  10 active torsions:
REMARK  status: ('A' for Active; 'I' for Inactive)
REMARK    1  A    between atoms: C_1  and  O_2
REMARK    2  A    between atoms: O_2  and  C_3
REMARK    3  A    between atoms: C_6  and  N_7
REMARK    4  A    between atoms: C_11  and  C_12
REMARK    5  A    between atoms: C_14  and  O_15
REMARK    6  A    between atoms: O_15  and  C_16
REMARK    7  A    between atoms: C_17  and  O_18
REMARK    8  A    between atoms: O_18  and  C_19
REMARK    9  A    between atoms: C_20  and  O_21
REMARK   10  A    between atoms: O_21  and  C_22
REMARK                            x       y       z     vdW  Elec       q    Type
REMARK                         _______ _______ _______ _____ _____    ______ ____
ROOT
ATOM      1  N   UNL     1       3.661   4.938  17.728  0.00  0.00    +0.000 N 
ATOM      2  N   UNL     1       3.507   3.759  17.068  0.00  0.00    +0.000 NA
ATOM      3  N   UNL     1       2.263   3.345  17.246  0.00  0.00    +0.000 NA
ATOM      4  C   UNL     1       1.588   4.318  17.916  0.00  0.00    +0.000 A 
ATOM      5  C   UNL     1       2.417   5.396  18.169  0.00  0.00    +0.000 A 
ENDROOT
BRANCH   1   9
ATOM      6  C   UNL     1       7.406   6.804  18.284  0.00  0.00    +0.000 A 
ATOM      7  C   UNL     1       6.595   7.147  17.200  0.00  0.00    +0.000 A 
ATOM      8  C   UNL     1       5.375   6.499  16.987  0.00  0.00    +0.000 A 
ATOM      9  C   UNL     1       4.951   5.507  17.880  0.00  0.00    +0.000 A 
ATOM     10  C   UNL     1       5.795   5.117  18.929  0.00  0.00    +0.000 A 
ATOM     11  C   UNL     1       7.016   5.768  19.133  0.00  0.00    +0.000 A 
BRANCH   6  13
ATOM     12  C   UNL     1       8.440   8.934  18.231  0.00  0.00    +0.000 C 
ATOM     13  O   UNL     1       8.561   7.525  18.396  0.00  0.00    +0.000 OA
ENDBRANCH   6  13
ENDBRANCH   1   9
BRANCH   5  14
ATOM     14  C   UNL     1       2.092   6.733  18.677  0.00  0.00    +0.000 A 
ATOM     15  C   UNL     1       2.077   7.830  17.817  0.00  0.00    +0.000 A 
ATOM     16  C   UNL     1       1.730   9.104  18.284  0.00  0.00    +0.000 A 
ATOM     17  C   UNL     1       1.383   9.294  19.642  0.00  0.00    +0.000 A 
ATOM     18  C   UNL     1       1.426   8.201  20.527  0.00  0.00    +0.000 A 
ATOM     19  C   UNL     1       1.821   6.949  20.035  0.00  0.00    +0.000 A 
BRANCH  16  20
ATOM     20  O   UNL     1       1.711  10.220  17.479  0.00  0.00    +0.000 OA
ATOM     21  C   UNL     1       2.710  11.204  17.724  0.00  0.00    +0.000 C 
ENDBRANCH  16  20
BRANCH  17  22
ATOM     22  O   UNL     1       1.089  10.591  19.996  0.00  0.00    +0.000 OA
ATOM     23  C   UNL     1      -0.276  10.985  19.943  0.00  0.00    +0.000 C 
ENDBRANCH  17  22
BRANCH  18  24
ATOM     24  O   UNL     1       1.114   8.408  21.846  0.00  0.00    +0.000 OA
ATOM     25  C   UNL     1      -0.260   8.394  22.222  0.00  0.00    +0.000 C 
ENDBRANCH  18  24
ENDBRANCH   5  14
TORSDOF 6
ENDMDL
MODEL 9
REMARK VINA RESULT:      -6.4      3.227      4.732
REMARK  Name = 
REMARK  10 active torsions:
REMARK  status: ('A' for Active; 'I' for Inactive)
REMARK    1  A    between atoms: C_1  and  O_2
REMARK    2  A    between atoms: O_2  and  C_3
REMARK    3  A    between atoms: C_6  and  N_7
REMARK    4  A    between atoms: C_11  and  C_12
REMARK    5  A    between atoms: C_14  and  O_15
REMARK    6  A    between atoms: O_15  and  C_16
REMARK    7  A    between atoms: C_17  and  O_18
REMARK    8  A    between atoms: O_18  and  C_19
REMARK    9  A    between atoms: C_20  and  O_21
REMARK   10  A    between atoms: O_21  and  C_22
REMARK                            x       y       z     vdW  Elec       q    Type
REMARK                         _______ _______ _______ _____ _____    ______ ____
ROOT
ATOM      1  N   UNL     1       6.285   5.549  16.970  0.00  0.00    +0.000 N 
ATOM      2  N   UNL     1       6.799   4.926  15.876  0.00  0.00    +0.000 NA
ATOM      3  N   UNL     1       6.084   3.836  15.647  0.00  0.00    +0.000 NA
ATOM      4  C   UNL     1       5.041   3.827  16.519  0.00  0.00    +0.000 A 
ATOM      5  C   UNL     1       5.075   4.949  17.328  0.00  0.00    +0.000 A 
ENDROOT
BRANCH   1   9
ATOM      6  C   UNL     1       8.532   8.715  18.625  0.00  0.00    +0.000 A 
ATOM      7  C   UNL     1       8.604   7.431  19.171  0.00  0.00    +0.000 A 
ATOM      8  C   UNL     1       7.827   6.391  18.654  0.00  0.00    +0.000 A 
ATOM      9  C   UNL     1       6.979   6.632  17.565  0.00  0.00    +0.000 A 
ATOM     10  C   UNL     1       6.859   7.934  17.061  0.00  0.00    +0.000 A 
ATOM     11  C   UNL     1       7.638   8.970  17.586  0.00  0.00    +0.000 A 
BRANCH   6  13
ATOM     12  C   UNL     1       9.343  10.940  18.630  0.00  0.00    +0.000 C 
ATOM     13  O   UNL     1       9.358   9.638  19.204  0.00  0.00    +0.000 OA
ENDBRANCH   6  13
ENDBRANCH   1   9
BRANCH   5  14
ATOM     14  C   UNL     1       4.071   5.465  18.263  0.00  0.00    +0.000 A 
ATOM     15  C   UNL     1       3.431   6.679  18.014  0.00  0.00    +0.000 A 
ATOM     16  C   UNL     1       2.443   7.161  18.881  0.00  0.00    +0.000 A 
ATOM     17  C   UNL     1       2.074   6.416  20.025  0.00  0.00    +0.000 A 
ATOM     18  C   UNL     1       2.734   5.206  20.305  0.00  0.00    +0.000 A 
ATOM     19  C   UNL     1       3.750   4.774  19.441  0.00  0.00    +0.000 A 
BRANCH  16  20
ATOM     20  O   UNL     1       1.791   8.357  18.686  0.00  0.00    +0.000 OA
ATOM     21  C   UNL     1       2.301   9.204  17.662  0.00  0.00    +0.000 C 
ENDBRANCH  16  20
BRANCH  17  22
ATOM     22  O   UNL     1       1.114   6.999  20.821  0.00  0.00    +0.000 OA
ATOM     23  C   UNL     1       1.477   8.188  21.510  0.00  0.00    +0.000 C 
ENDBRANCH  17  22
BRANCH  18  24
ATOM     24  O   UNL     1       2.384   4.509  21.434  0.00  0.00    +0.000 OA
ATOM     25  C   UNL     1       1.602   3.328  21.279  0.00  0.00    +0.000 C 
ENDBRANCH  18  24
ENDBRANCH   5  14
TORSDOF 6
ENDMDL
