MODEL 1
REMARK VINA RESULT:      -6.4      0.000      0.000
REMARK  Name = 
REMARK  3 active torsions:
REMARK  status: ('A' for Active; 'I' for Inactive)
REMARK    1  A    between atoms: C_1  and  C_2
REMARK    2  A    between atoms: C_2  and  N_3
REMARK    3  A    between atoms: N_6  and  C_7
REMARK                            x       y       z     vdW  Elec       q    Type
REMARK                         _______ _______ _______ _____ _____    ______ ____
ROOT
ATOM      1  C   UNL     1       4.865   4.819  17.744  0.00  0.00    +0.000 A 
ATOM      2  C   UNL     1       5.878   5.663  17.986  0.00  0.00    +0.000 A 
ATOM      3  S   UNL     1       7.127   6.159  16.930  0.00  0.00    +0.000 S 
ATOM      4  C   UNL     1       6.769   5.235  15.466  0.00  0.00    +0.000 A 
ATOM      5  C   UNL     1       7.674   5.378  14.400  0.00  0.00    +0.000 A 
ATOM      6  C   UNL     1       7.471   4.712  13.192  0.00  0.00    +0.000 A 
ATOM      7  C   UNL     1       6.353   3.908  13.042  0.00  0.00    +0.000 A 
ATOM      8  F   UNL     1       6.148   3.273  11.881  0.00  0.00    +0.000 F 
ATOM      9  C   UNL     1       5.446   3.747  14.081  0.00  0.00    +0.000 A 
ATOM     10  C   UNL     1       5.659   4.401  15.307  0.00  0.00    +0.000 A 
ATOM     11  C   UNL     1       4.683   4.160  16.395  0.00  0.00    +0.000 A 
ATOM     12  O   UNL     1       3.726   3.416  16.175  0.00  0.00    +0.000 OA
ENDROOT
BRANCH   1  16
ATOM     13  N   UNL     1       1.514   3.057  19.639  0.00  0.00    +0.000 NA
ATOM     14  C   UNL     1       1.455   4.237  18.729  0.00  0.00    +0.000 C 
ATOM     15  C   UNL     1       2.643   5.229  18.850  0.00  0.00    +0.000 C 
ATOM     16  N   UNL     1       3.924   4.504  18.734  0.00  0.00    +0.000 N 
ATOM     17  C   UNL     1       4.042   3.335  19.619  0.00  0.00    +0.000 C 
ATOM     18  C   UNL     1       2.829   2.400  19.440  0.00  0.00    +0.000 C 
BRANCH  13  20
ATOM     19  C   UNL     1       1.518   2.375  22.057  0.00  0.00    +0.000 C 
ATOM     20  C   UNL     1       1.278   3.477  21.030  0.00  0.00    +0.000 C 
ENDBRANCH  13  20
ENDBRANCH   1  16
TORSDOF 2
ENDMDL
MODEL 2
REMARK VINA RESULT:      -6.3      5.251      7.911
REMARK  Name = 
REMARK  3 active torsions:
REMARK  status: ('A' for Active; 'I' for Inactive)
REMARK    1  A    between atoms: C_1  and  C_2
REMARK    2  A    between atoms: C_2  and  N_3
REMARK    3  A    between atoms: N_6  and  C_7
REMARK                            x       y       z     vdW  Elec       q    Type
REMARK                         _______ _______ _______ _____ _____    ______ ____
ROOT
ATOM      1  C   UNL     1       2.265   7.767  18.484  0.00  0.00    +0.000 A 
ATOM      2  C   UNL     1       1.916   8.849  17.773  0.00  0.00    +0.000 A 
ATOM      3  S   UNL     1       1.094  10.251  18.301  0.00  0.00    +0.000 S 
ATOM      4  C   UNL     1       0.779   9.882  20.002  0.00  0.00    +0.000 A 
ATOM      5  C   UNL     1       0.044  10.839  20.722  0.00  0.00    +0.000 A 
ATOM      6  C   UNL     1      -0.237  10.657  22.075  0.00  0.00    +0.000 A 
ATOM      7  C   UNL     1       0.226   9.520  22.717  0.00  0.00    +0.000 A 
ATOM      8  F   UNL     1      -0.033   9.344  24.018  0.00  0.00    +0.000 F 
ATOM      9  C   UNL     1       0.952   8.558  22.026  0.00  0.00    +0.000 A 
ATOM     10  C   UNL     1       1.221   8.730  20.658  0.00  0.00    +0.000 A 
ATOM     11  C   UNL     1       1.961   7.652  19.960  0.00  0.00    +0.000 A 
ATOM     12  O   UNL     1       2.321   6.669  20.610  0.00  0.00    +0.000 OA
ENDROOT
BRANCH   1  16
ATOM     13  N   UNL     1       4.717   4.340  18.064  0.00  0.00    +0.000 NA
ATOM     14  C   UNL     1       5.217   5.744  18.116  0.00  0.00    +0.000 C 
ATOM     15  C   UNL     1       4.321   6.795  17.407  0.00  0.00    +0.000 C 
ATOM     16  N   UNL     1       2.930   6.685  17.889  0.00  0.00    +0.000 N 
ATOM     17  C   UNL     1       2.380   5.321  17.849  0.00  0.00    +0.000 C 
ATOM     18  C   UNL     1       3.323   4.339  18.573  0.00  0.00    +0.000 C 
BRANCH  13  20
ATOM     19  C   UNL     1       6.193   4.070  16.049  0.00  0.00    +0.000 C 
ATOM     20  C   UNL     1       4.837   3.809  16.696  0.00  0.00    +0.000 C 
ENDBRANCH  13  20
ENDBRANCH   1  16
TORSDOF 2
ENDMDL
MODEL 3
REMARK VINA RESULT:      -6.3      5.435      7.790
REMARK  Name = 
REMARK  3 active torsions:
REMARK  status: ('A' for Active; 'I' for Inactive)
REMARK    1  A    between atoms: C_1  and  C_2
REMARK    2  A    between atoms: C_2  and  N_3
REMARK    3  A    between atoms: N_6  and  C_7
REMARK                            x       y       z     vdW  Elec       q    Type
REMARK                         _______ _______ _______ _____ _____    ______ ____
ROOT
ATOM      1  C   UNL     1       2.231   7.446  19.090  0.00  0.00    +0.000 A 
ATOM      2  C   UNL     1       2.242   8.376  18.124  0.00  0.00    +0.000 A 
ATOM      3  S   UNL     1       1.576   9.950  18.153  0.00  0.00    +0.000 S 
ATOM      4  C   UNL     1       0.830  10.011  19.754  0.00  0.00    +0.000 A 
ATOM      5  C   UNL     1       0.128  11.187  20.071  0.00  0.00    +0.000 A 
ATOM      6  C   UNL     1      -0.477  11.348  21.316  0.00  0.00    +0.000 A 
ATOM      7  C   UNL     1      -0.372  10.336  22.257  0.00  0.00    +0.000 A 
ATOM      8  F   UNL     1      -0.942  10.488  23.458  0.00  0.00    +0.000 F 
ATOM      9  C   UNL     1       0.314   9.163  21.967  0.00  0.00    +0.000 A 
ATOM     10  C   UNL     1       0.908   8.990  20.705  0.00  0.00    +0.000 A 
ATOM     11  C   UNL     1       1.589   7.702  20.435  0.00  0.00    +0.000 A 
ATOM     12  O   UNL     1       1.620   6.853  21.327  0.00  0.00    +0.000 OA
ENDROOT
BRANCH   1  16
ATOM     13  N   UNL     1       3.557   3.922  17.152  0.00  0.00    +0.000 NA
ATOM     14  C   UNL     1       2.158   4.171  17.606  0.00  0.00    +0.000 C 
ATOM     15  C   UNL     1       2.021   4.943  18.945  0.00  0.00    +0.000 C 
ATOM     16  N   UNL     1       2.816   6.186  18.898  0.00  0.00    +0.000 N 
ATOM     17  C   UNL     1       4.211   5.999  18.468  0.00  0.00    +0.000 C 
ATOM     18  C   UNL     1       4.262   5.227  17.134  0.00  0.00    +0.000 C 
BRANCH  13  20
ATOM     19  C   UNL     1       3.414   1.627  18.162  0.00  0.00    +0.000 C 
ATOM     20  C   UNL     1       4.202   2.924  18.021  0.00  0.00    +0.000 C 
ENDBRANCH  13  20
ENDBRANCH   1  16
TORSDOF 2
ENDMDL
MODEL 4
REMARK VINA RESULT:      -6.3      5.406      7.745
REMARK  Name = 
REMARK  3 active torsions:
REMARK  status: ('A' for Active; 'I' for Inactive)
REMARK    1  A    between atoms: C_1  and  C_2
REMARK    2  A    between atoms: C_2  and  N_3
REMARK    3  A    between atoms: N_6  and  C_7
REMARK                            x       y       z     vdW  Elec       q    Type
REMARK                         _______ _______ _______ _____ _____    ______ ____
ROOT
ATOM      1  C   UNL     1       2.218   7.561  18.840  0.00  0.00    +0.000 A 
ATOM      2  C   UNL     1       2.215   8.568  17.955  0.00  0.00    +0.000 A 
ATOM      3  S   UNL     1       1.586  10.147  18.139  0.00  0.00    +0.000 S 
ATOM      4  C   UNL     1       0.899  10.088  19.767  0.00  0.00    +0.000 A 
ATOM      5  C   UNL     1       0.236  11.247  20.207  0.00  0.00    +0.000 A 
ATOM      6  C   UNL     1      -0.320  11.314  21.484  0.00  0.00    +0.000 A 
ATOM      7  C   UNL     1      -0.203  10.225  22.332  0.00  0.00    +0.000 A 
ATOM      8  F   UNL     1      -0.727  10.287  23.562  0.00  0.00    +0.000 F 
ATOM      9  C   UNL     1       0.445   9.067  21.919  0.00  0.00    +0.000 A 
ATOM     10  C   UNL     1       0.989   8.990  20.626  0.00  0.00    +0.000 A 
ATOM     11  C   UNL     1       1.631   7.716  20.224  0.00  0.00    +0.000 A 
ATOM     12  O   UNL     1       1.675   6.794  21.041  0.00  0.00    +0.000 OA
ENDROOT
BRANCH   1  16
ATOM     13  N   UNL     1       3.960   3.733  19.332  0.00  0.00    +0.000 NA
ATOM     14  C   UNL     1       4.708   5.023  19.382  0.00  0.00    +0.000 C 
ATOM     15  C   UNL     1       4.224   6.111  18.387  0.00  0.00    +0.000 C 
ATOM     16  N   UNL     1       2.767   6.311  18.522  0.00  0.00    +0.000 N 
ATOM     17  C   UNL     1       1.977   5.071  18.466  0.00  0.00    +0.000 C 
ATOM     18  C   UNL     1       2.517   4.044  19.482  0.00  0.00    +0.000 C 
BRANCH  13  20
ATOM     19  C   UNL     1       3.489   1.718  17.907  0.00  0.00    +0.000 C 
ATOM     20  C   UNL     1       4.274   3.014  18.086  0.00  0.00    +0.000 C 
ENDBRANCH  13  20
ENDBRANCH   1  16
TORSDOF 2
ENDMDL
MODEL 5
REMARK VINA RESULT:      -6.0      4.293      7.323
REMARK  Name = 
REMARK  3 active torsions:
REMARK  status: ('A' for Active; 'I' for Inactive)
REMARK    1  A    between atoms: C_1  and  C_2
REMARK    2  A    between atoms: C_2  and  N_3
REMARK    3  A    between atoms: N_6  and  C_7
REMARK                            x       y       z     vdW  Elec       q    Type
REMARK                         _______ _______ _______ _____ _____    ______ ____
ROOT
ATOM      1  C   UNL     1       3.580   6.364  18.254  0.00  0.00    +0.000 A 
ATOM      2  C   UNL     1       3.394   5.579  19.325  0.00  0.00    +0.000 A 
ATOM      3  S   UNL     1       2.380   5.842  20.676  0.00  0.00    +0.000 S 
ATOM      4  C   UNL     1       1.690   7.431  20.322  0.00  0.00    +0.000 A 
ATOM      5  C   UNL     1       0.836   7.972  21.298  0.00  0.00    +0.000 A 
ATOM      6  C   UNL     1       0.220   9.208  21.107  0.00  0.00    +0.000 A 
ATOM      7  C   UNL     1       0.448   9.904  19.930  0.00  0.00    +0.000 A 
ATOM      8  F   UNL     1      -0.148  11.086  19.737  0.00  0.00    +0.000 F 
ATOM      9  C   UNL     1       1.290   9.391  18.951  0.00  0.00    +0.000 A 
ATOM     10  C   UNL     1       1.927   8.155  19.150  0.00  0.00    +0.000 A 
ATOM     11  C   UNL     1       2.848   7.677  18.093  0.00  0.00    +0.000 A 
ATOM     12  O   UNL     1       3.001   8.371  17.085  0.00  0.00    +0.000 OA
ENDROOT
BRANCH   1  16
ATOM     13  N   UNL     1       6.817   4.500  16.259  0.00  0.00    +0.000 NA
ATOM     14  C   UNL     1       6.931   5.711  17.122  0.00  0.00    +0.000 C 
ATOM     15  C   UNL     1       5.748   6.711  17.025  0.00  0.00    +0.000 C 
ATOM     16  N   UNL     1       4.468   6.004  17.230  0.00  0.00    +0.000 N 
ATOM     17  C   UNL     1       4.295   4.806  16.394  0.00  0.00    +0.000 C 
ATOM     18  C   UNL     1       5.507   3.865  16.546  0.00  0.00    +0.000 C 
BRANCH  13  20
ATOM     19  C   UNL     1       6.331   3.896  13.869  0.00  0.00    +0.000 C 
ATOM     20  C   UNL     1       6.987   4.869  14.843  0.00  0.00    +0.000 C 
ENDBRANCH  13  20
ENDBRANCH   1  16
TORSDOF 2
ENDMDL
MODEL 6
REMARK VINA RESULT:      -6.0      5.045      7.573
REMARK  Name = 
REMARK  3 active torsions:
REMARK  status: ('A' for Active; 'I' for Inactive)
REMARK    1  A    between atoms: C_1  and  C_2
REMARK    2  A    between atoms: C_2  and  N_3
REMARK    3  A    between atoms: N_6  and  C_7
REMARK                            x       y       z     vdW  Elec       q    Type
REMARK                         _______ _______ _______ _____ _____    ______ ____
ROOT
ATOM      1  C   UNL     1       2.469   7.232  18.867  0.00  0.00    +0.000 A 
ATOM      2  C   UNL     1       2.141   6.891  20.121  0.00  0.00    +0.000 A 
ATOM      3  S   UNL     1       1.228   7.776  21.263  0.00  0.00    +0.000 S 
ATOM      4  C   UNL     1       0.878   9.270  20.384  0.00  0.00    +0.000 A 
ATOM      5  C   UNL     1       0.172  10.259  21.091  0.00  0.00    +0.000 A 
ATOM      6  C   UNL     1      -0.176  11.464  20.483  0.00  0.00    +0.000 A 
ATOM      7  C   UNL     1       0.170  11.680  19.159  0.00  0.00    +0.000 A 
ATOM      8  F   UNL     1      -0.170  12.832  18.568  0.00  0.00    +0.000 F 
ATOM      9  C   UNL     1       0.871  10.720  18.441  0.00  0.00    +0.000 A 
ATOM     10  C   UNL     1       1.240   9.512  19.057  0.00  0.00    +0.000 A 
ATOM     11  C   UNL     1       2.024   8.542  18.256  0.00  0.00    +0.000 A 
ATOM     12  O   UNL     1       2.299   8.827  17.090  0.00  0.00    +0.000 OA
ENDROOT
BRANCH   1  16
ATOM     13  N   UNL     1       5.334   4.326  17.736  0.00  0.00    +0.000 NA
ATOM     14  C   UNL     1       5.644   5.750  18.056  0.00  0.00    +0.000 C 
ATOM     15  C   UNL     1       4.586   6.783  17.584  0.00  0.00    +0.000 C 
ATOM     16  N   UNL     1       3.244   6.389  18.059  0.00  0.00    +0.000 N 
ATOM     17  C   UNL     1       2.879   4.996  17.759  0.00  0.00    +0.000 C 
ATOM     18  C   UNL     1       3.976   4.034  18.258  0.00  0.00    +0.000 C 
BRANCH  13  20
ATOM     19  C   UNL     1       6.828   4.466  15.722  0.00  0.00    +0.000 C 
ATOM     20  C   UNL     1       5.463   4.092  16.288  0.00  0.00    +0.000 C 
ENDBRANCH  13  20
ENDBRANCH   1  16
TORSDOF 2
ENDMDL
MODEL 7
REMARK VINA RESULT:      -5.8      4.687      6.056
REMARK  Name = 
REMARK  3 active torsions:
REMARK  status: ('A' for Active; 'I' for Inactive)
REMARK    1  A    between atoms: C_1  and  C_2
REMARK    2  A    between atoms: C_2  and  N_3
REMARK    3  A    between atoms: N_6  and  C_7
REMARK                            x       y       z     vdW  Elec       q    Type
REMARK                         _______ _______ _______ _____ _____    ______ ____
ROOT
ATOM      1  C   UNL     1       1.905   7.230  20.052  0.00  0.00    +0.000 A 
ATOM      2  C   UNL     1       1.552   6.171  20.795  0.00  0.00    +0.000 A 
ATOM      3  S   UNL     1       1.944   4.524  20.557  0.00  0.00    +0.000 S 
ATOM      4  C   UNL     1       2.881   4.575  19.059  0.00  0.00    +0.000 A 
ATOM      5  C   UNL     1       3.310   3.337  18.549  0.00  0.00    +0.000 A 
ATOM      6  C   UNL     1       4.076   3.268  17.386  0.00  0.00    +0.000 A 
ATOM      7  C   UNL     1       4.426   4.439  16.734  0.00  0.00    +0.000 A 
ATOM      8  F   UNL     1       5.169   4.379  15.623  0.00  0.00    +0.000 F 
ATOM      9  C   UNL     1       4.011   5.674  17.216  0.00  0.00    +0.000 A 
ATOM     10  C   UNL     1       3.223   5.746  18.377  0.00  0.00    +0.000 A 
ATOM     11  C   UNL     1       2.772   7.085  18.822  0.00  0.00    +0.000 A 
ATOM     12  O   UNL     1       3.120   8.071  18.169  0.00  0.00    +0.000 OA
ENDROOT
BRANCH   1  16
ATOM     13  N   UNL     1      -0.648  10.450  21.074  0.00  0.00    +0.000 NA
ATOM     14  C   UNL     1      -0.449   9.925  19.692  0.00  0.00    +0.000 C 
ATOM     15  C   UNL     1       0.996   9.470  19.355  0.00  0.00    +0.000 C 
ATOM     16  N   UNL     1       1.483   8.526  20.380  0.00  0.00    +0.000 N 
ATOM     17  C   UNL     1       1.324   8.998  21.764  0.00  0.00    +0.000 C 
ATOM     18  C   UNL     1      -0.135   9.429  22.020  0.00  0.00    +0.000 C 
BRANCH  13  20
ATOM     19  C   UNL     1      -0.602  12.642  22.301  0.00  0.00    +0.000 C 
ATOM     20  C   UNL     1       0.010  11.760  21.218  0.00  0.00    +0.000 C 
ENDBRANCH  13  20
ENDBRANCH   1  16
TORSDOF 2
ENDMDL
MODEL 8
REMARK VINA RESULT:      -5.7      4.208      7.315
REMARK  Name = 
REMARK  3 active torsions:
REMARK  status: ('A' for Active; 'I' for Inactive)
REMARK    1  A    between atoms: C_1  and  C_2
REMARK    2  A    between atoms: C_2  and  N_3
REMARK    3  A    between atoms: N_6  and  C_7
REMARK                            x       y       z     vdW  Elec       q    Type
REMARK                         _______ _______ _______ _____ _____    ______ ____
ROOT
ATOM      1  C   UNL     1       3.634   5.848  18.782  0.00  0.00    +0.000 A 
ATOM      2  C   UNL     1       3.208   5.067  19.785  0.00  0.00    +0.000 A 
ATOM      3  S   UNL     1       2.018   5.402  20.965  0.00  0.00    +0.000 S 
ATOM      4  C   UNL     1       1.539   7.053  20.555  0.00  0.00    +0.000 A 
ATOM      5  C   UNL     1       0.591   7.656  21.399  0.00  0.00    +0.000 A 
ATOM      6  C   UNL     1       0.127   8.947  21.150  0.00  0.00    +0.000 A 
ATOM      7  C   UNL     1       0.601   9.636  20.046  0.00  0.00    +0.000 A 
ATOM      8  F   UNL     1       0.152  10.872  19.797  0.00  0.00    +0.000 F 
ATOM      9  C   UNL     1       1.540   9.064  19.199  0.00  0.00    +0.000 A 
ATOM     10  C   UNL     1       2.025   7.770  19.458  0.00  0.00    +0.000 A 
ATOM     11  C   UNL     1       3.058   7.226  18.546  0.00  0.00    +0.000 A 
ATOM     12  O   UNL     1       3.431   7.918  17.597  0.00  0.00    +0.000 OA
ENDROOT
BRANCH   1  16
ATOM     13  N   UNL     1       6.641   5.986  15.804  0.00  0.00    +0.000 NA
ATOM     14  C   UNL     1       5.175   5.946  15.533  0.00  0.00    +0.000 C 
ATOM     15  C   UNL     1       4.345   5.060  16.500  0.00  0.00    +0.000 C 
ATOM     16  N   UNL     1       4.639   5.423  17.901  0.00  0.00    +0.000 N 
ATOM     17  C   UNL     1       6.072   5.466  18.229  0.00  0.00    +0.000 C 
ATOM     18  C   UNL     1       6.826   6.364  17.227  0.00  0.00    +0.000 C 
BRANCH  13  20
ATOM     19  C   UNL     1       6.735   4.086  14.164  0.00  0.00    +0.000 C 
ATOM     20  C   UNL     1       7.256   4.692  15.462  0.00  0.00    +0.000 C 
ENDBRANCH  13  20
ENDBRANCH   1  16
TORSDOF 2
ENDMDL
MODEL 9
REMARK VINA RESULT:      -5.7      3.162      6.876
REMARK  Name = 
REMARK  3 active torsions:
REMARK  status: ('A' for Active; 'I' for Inactive)
REMARK    1  A    between atoms: C_1  and  C_2
REMARK    2  A    between atoms: C_2  and  N_3
REMARK    3  A    between atoms: N_6  and  C_7
REMARK                            x       y       z     vdW  Elec       q    Type
REMARK                         _______ _______ _______ _____ _____    ______ ____
ROOT
ATOM      1  C   UNL     1       4.395   5.763  17.288  0.00  0.00    +0.000 A 
ATOM      2  C   UNL     1       3.782   6.893  17.670  0.00  0.00    +0.000 A 
ATOM      3  S   UNL     1       2.617   7.111  18.901  0.00  0.00    +0.000 S 
ATOM      4  C   UNL     1       2.392   5.462  19.498  0.00  0.00    +0.000 A 
ATOM      5  C   UNL     1       1.424   5.290  20.503  0.00  0.00    +0.000 A 
ATOM      6  C   UNL     1       1.186   4.034  21.061  0.00  0.00    +0.000 A 
ATOM      7  C   UNL     1       1.923   2.947  20.622  0.00  0.00    +0.000 A 
ATOM      8  F   UNL     1       1.705   1.741  21.160  0.00  0.00    +0.000 F 
ATOM      9  C   UNL     1       2.882   3.091  19.628  0.00  0.00    +0.000 A 
ATOM     10  C   UNL     1       3.112   4.351  19.050  0.00  0.00    +0.000 A 
ATOM     11  C   UNL     1       4.115   4.440  17.964  0.00  0.00    +0.000 A 
ATOM     12  O   UNL     1       4.713   3.415  17.629  0.00  0.00    +0.000 OA
ENDROOT
BRANCH   1  16
ATOM     13  N   UNL     1       7.200   4.321  14.463  0.00  0.00    +0.000 NA
ATOM     14  C   UNL     1       7.505   4.617  15.893  0.00  0.00    +0.000 C 
ATOM     15  C   UNL     1       6.777   5.853  16.485  0.00  0.00    +0.000 C 
ATOM     16  N   UNL     1       5.325   5.754  16.239  0.00  0.00    +0.000 N 
ATOM     17  C   UNL     1       4.964   5.474  14.841  0.00  0.00    +0.000 C 
ATOM     18  C   UNL     1       5.725   4.235  14.327  0.00  0.00    +0.000 C 
BRANCH  13  20
ATOM     19  C   UNL     1       7.578   5.099  12.105  0.00  0.00    +0.000 C 
ATOM     20  C   UNL     1       7.806   5.342  13.593  0.00  0.00    +0.000 C 
ENDBRANCH  13  20
ENDBRANCH   1  16
TORSDOF 2
ENDMDL
