MODEL 1
REMARK VINA RESULT:      -8.5      0.000      0.000
REMARK  Name = 
REMARK  8 active torsions:
REMARK  status: ('A' for Active; 'I' for Inactive)
REMARK    1  A    between atoms: C_1  and  C_2
REMARK    2  A    between atoms: C_5  and  N_6
REMARK    3  A    between atoms: C_7  and  C_9
REMARK    4  A    between atoms: C_9  and  N_10
REMARK    5  A    between atoms: N_10  and  C_11
REMARK    6  A    between atoms: C_12  and  C_14
REMARK    7  A    between atoms: C_14  and  C_15
REMARK    8  A    between atoms: C_14  and  C_21
REMARK                            x       y       z     vdW  Elec       q    Type
REMARK                         _______ _______ _______ _____ _____    ______ ____
ROOT
ATOM      1  N   UNL     1       6.605   6.007  18.449  0.00  0.00    +0.000 N 
ATOM      2  C   UNL     1       7.783   5.987  19.308  0.00  0.00    +0.000 C 
ATOM      3  C   UNL     1       5.413   5.454  18.937  0.00  0.00    +0.000 C 
ATOM      4  O   UNL     1       5.364   4.963  20.070  0.00  0.00    +0.000 OA
ENDROOT
BRANCH   1   5
ATOM      5  C   UNL     1       6.793   6.587  17.111  0.00  0.00    +0.000 C 
BRANCH   5   7
ATOM      6  N   UNL     1       6.397   5.606  14.889  0.00  0.00    +0.000 N 
ATOM      7  C   UNL     1       7.083   5.472  16.086  0.00  0.00    +0.000 C 
ATOM      8  O   UNL     1       7.864   4.565  16.362  0.00  0.00    +0.000 OA
ATOM      9  H   UNL     1       5.951   6.494  14.694  0.00  0.00    +0.000 HD
BRANCH   6  14
ATOM     10  C   UNL     1       6.457   1.759  10.629  0.00  0.00    +0.000 C 
ATOM     11  C   UNL     1       6.423   2.773  11.735  0.00  0.00    +0.000 A 
ATOM     12  C   UNL     1       5.338   2.830  12.610  0.00  0.00    +0.000 A 
ATOM     13  C   UNL     1       5.311   3.763  13.649  0.00  0.00    +0.000 A 
ATOM     14  C   UNL     1       6.369   4.653  13.843  0.00  0.00    +0.000 A 
ATOM     15  C   UNL     1       7.445   4.618  12.948  0.00  0.00    +0.000 A 
ATOM     16  C   UNL     1       7.478   3.676  11.909  0.00  0.00    +0.000 A 
ENDBRANCH   6  14
ENDBRANCH   5   7
ENDBRANCH   1   5
BRANCH   3  17
ATOM     17  C   UNL     1       4.143   5.576  18.059  0.00  0.00    +0.000 C 
BRANCH  17  18
ATOM     18  C   UNL     1       3.278   4.314  17.962  0.00  0.00    +0.000 A 
ATOM     19  C   UNL     1       3.848   3.038  17.809  0.00  0.00    +0.000 A 
ATOM     20  C   UNL     1       3.070   1.888  17.957  0.00  0.00    +0.000 A 
ATOM     21  C   UNL     1       1.712   1.993  18.248  0.00  0.00    +0.000 A 
ATOM     22  C   UNL     1       1.119   3.250  18.346  0.00  0.00    +0.000 A 
ATOM     23  C   UNL     1       1.893   4.402  18.195  0.00  0.00    +0.000 A 
ENDBRANCH  17  18
BRANCH  17  24
ATOM     24  C   UNL     1       3.275   6.779  18.458  0.00  0.00    +0.000 A 
ATOM     25  C   UNL     1       3.032   7.801  17.525  0.00  0.00    +0.000 A 
ATOM     26  C   UNL     1       2.180   8.863  17.836  0.00  0.00    +0.000 A 
ATOM     27  C   UNL     1       1.556   8.916  19.081  0.00  0.00    +0.000 A 
ATOM     28  C   UNL     1       1.780   7.907  20.014  0.00  0.00    +0.000 A 
ATOM     29  C   UNL     1       2.629   6.844  19.705  0.00  0.00    +0.000 A 
ENDBRANCH  17  24
ENDBRANCH   3  17
TORSDOF 6
ENDMDL
MODEL 2
REMARK VINA RESULT:      -7.9      3.906      8.335
REMARK  Name = 
REMARK  8 active torsions:
REMARK  status: ('A' for Active; 'I' for Inactive)
REMARK    1  A    between atoms: C_1  and  C_2
REMARK    2  A    between atoms: C_5  and  N_6
REMARK    3  A    between atoms: C_7  and  C_9
REMARK    4  A    between atoms: C_9  and  N_10
REMARK    5  A    between atoms: N_10  and  C_11
REMARK    6  A    between atoms: C_12  and  C_14
REMARK    7  A    between atoms: C_14  and  C_15
REMARK    8  A    between atoms: C_14  and  C_21
REMARK                            x       y       z     vdW  Elec       q    Type
REMARK                         _______ _______ _______ _____ _____    ______ ____
ROOT
ATOM      1  N   UNL     1       1.733   8.227  19.606  0.00  0.00    +0.000 N 
ATOM      2  C   UNL     1       1.193   8.950  20.752  0.00  0.00    +0.000 C 
ATOM      3  C   UNL     1       2.190   6.916  19.798  0.00  0.00    +0.000 C 
ATOM      4  O   UNL     1       2.135   6.387  20.913  0.00  0.00    +0.000 OA
ENDROOT
BRANCH   1   5
ATOM      5  C   UNL     1       1.777   8.971  18.338  0.00  0.00    +0.000 C 
BRANCH   5   7
ATOM      6  N   UNL     1      -0.617   9.436  18.013  0.00  0.00    +0.000 N 
ATOM      7  C   UNL     1       0.624   9.992  18.282  0.00  0.00    +0.000 C 
ATOM      8  O   UNL     1       0.844  11.187  18.468  0.00  0.00    +0.000 OA
ATOM      9  H   UNL     1      -0.713   8.430  18.088  0.00  0.00    +0.000 HD
BRANCH   6  14
ATOM     10  C   UNL     1      -5.487  12.255  16.882  0.00  0.00    +0.000 C 
ATOM     11  C   UNL     1      -4.204  11.537  17.181  0.00  0.00    +0.000 A 
ATOM     12  C   UNL     1      -3.570  11.703  18.412  0.00  0.00    +0.000 A 
ATOM     13  C   UNL     1      -2.384  11.024  18.699  0.00  0.00    +0.000 A 
ATOM     14  C   UNL     1      -1.809  10.158  17.766  0.00  0.00    +0.000 A 
ATOM     15  C   UNL     1      -2.427  10.012  16.519  0.00  0.00    +0.000 A 
ATOM     16  C   UNL     1      -3.624  10.688  16.233  0.00  0.00    +0.000 A 
ENDBRANCH   6  14
ENDBRANCH   5   7
ENDBRANCH   1   5
BRANCH   3  17
ATOM     17  C   UNL     1       2.661   6.122  18.554  0.00  0.00    +0.000 C 
BRANCH  17  18
ATOM     18  C   UNL     1       4.170   6.148  18.282  0.00  0.00    +0.000 A 
ATOM     19  C   UNL     1       5.081   5.470  19.110  0.00  0.00    +0.000 A 
ATOM     20  C   UNL     1       6.412   5.309  18.722  0.00  0.00    +0.000 A 
ATOM     21  C   UNL     1       6.858   5.832  17.510  0.00  0.00    +0.000 A 
ATOM     22  C   UNL     1       5.982   6.557  16.705  0.00  0.00    +0.000 A 
ATOM     23  C   UNL     1       4.651   6.724  17.092  0.00  0.00    +0.000 A 
ENDBRANCH  17  18
BRANCH  17  24
ATOM     24  C   UNL     1       2.154   4.673  18.563  0.00  0.00    +0.000 A 
ATOM     25  C   UNL     1       2.664   3.752  17.633  0.00  0.00    +0.000 A 
ATOM     26  C   UNL     1       2.281   2.410  17.673  0.00  0.00    +0.000 A 
ATOM     27  C   UNL     1       1.385   1.969  18.646  0.00  0.00    +0.000 A 
ATOM     28  C   UNL     1       0.876   2.866  19.580  0.00  0.00    +0.000 A 
ATOM     29  C   UNL     1       1.260   4.207  19.543  0.00  0.00    +0.000 A 
ENDBRANCH  17  24
ENDBRANCH   3  17
TORSDOF 6
ENDMDL
MODEL 3
REMARK VINA RESULT:      -7.9      3.779      8.303
REMARK  Name = 
REMARK  8 active torsions:
REMARK  status: ('A' for Active; 'I' for Inactive)
REMARK    1  A    between atoms: C_1  and  C_2
REMARK    2  A    between atoms: C_5  and  N_6
REMARK    3  A    between atoms: C_7  and  C_9
REMARK    4  A    between atoms: C_9  and  N_10
REMARK    5  A    between atoms: N_10  and  C_11
REMARK    6  A    between atoms: C_12  and  C_14
REMARK    7  A    between atoms: C_14  and  C_15
REMARK    8  A    between atoms: C_14  and  C_21
REMARK                            x       y       z     vdW  Elec       q    Type
REMARK                         _______ _______ _______ _____ _____    ______ ____
ROOT
ATOM      1  N   UNL     1       1.929   8.080  19.493  0.00  0.00    +0.000 N 
ATOM      2  C   UNL     1       1.390   8.820  20.629  0.00  0.00    +0.000 C 
ATOM      3  C   UNL     1       2.422   6.786  19.713  0.00  0.00    +0.000 C 
ATOM      4  O   UNL     1       2.399   6.287  20.842  0.00  0.00    +0.000 OA
ENDROOT
BRANCH   1   5
ATOM      5  C   UNL     1       1.934   8.790  18.205  0.00  0.00    +0.000 C 
BRANCH   5   7
ATOM      6  N   UNL     1      -0.459   9.296  17.933  0.00  0.00    +0.000 N 
ATOM      7  C   UNL     1       0.797   9.831  18.170  0.00  0.00    +0.000 C 
ATOM      8  O   UNL     1       1.043  11.023  18.344  0.00  0.00    +0.000 OA
ATOM      9  H   UNL     1      -0.571   8.293  18.017  0.00  0.00    +0.000 HD
BRANCH   6  14
ATOM     10  C   UNL     1      -5.305  12.194  16.901  0.00  0.00    +0.000 C 
ATOM     11  C   UNL     1      -4.028  11.455  17.173  0.00  0.00    +0.000 A 
ATOM     12  C   UNL     1      -3.351  11.633  18.380  0.00  0.00    +0.000 A 
ATOM     13  C   UNL     1      -2.170  10.934  18.643  0.00  0.00    +0.000 A 
ATOM     14  C   UNL     1      -1.643  10.038  17.709  0.00  0.00    +0.000 A 
ATOM     15  C   UNL     1      -2.305   9.881  16.486  0.00  0.00    +0.000 A 
ATOM     16  C   UNL     1      -3.496  10.575  16.225  0.00  0.00    +0.000 A 
ENDBRANCH   6  14
ENDBRANCH   5   7
ENDBRANCH   1   5
BRANCH   3  17
ATOM     17  C   UNL     1       2.893   5.972  18.482  0.00  0.00    +0.000 C 
BRANCH  17  18
ATOM     18  C   UNL     1       4.401   6.001  18.204  0.00  0.00    +0.000 A 
ATOM     19  C   UNL     1       4.944   6.762  17.156  0.00  0.00    +0.000 A 
ATOM     20  C   UNL     1       6.322   6.963  17.061  0.00  0.00    +0.000 A 
ATOM     21  C   UNL     1       7.179   6.399  18.002  0.00  0.00    +0.000 A 
ATOM     22  C   UNL     1       6.663   5.594  19.016  0.00  0.00    +0.000 A 
ATOM     23  C   UNL     1       5.285   5.387  19.111  0.00  0.00    +0.000 A 
ENDBRANCH  17  18
BRANCH  17  24
ATOM     24  C   UNL     1       2.394   4.519  18.522  0.00  0.00    +0.000 A 
ATOM     25  C   UNL     1       1.324   4.175  19.365  0.00  0.00    +0.000 A 
ATOM     26  C   UNL     1       0.799   2.881  19.359  0.00  0.00    +0.000 A 
ATOM     27  C   UNL     1       1.333   1.915  18.509  0.00  0.00    +0.000 A 
ATOM     28  C   UNL     1       2.389   2.241  17.662  0.00  0.00    +0.000 A 
ATOM     29  C   UNL     1       2.913   3.534  17.665  0.00  0.00    +0.000 A 
ENDBRANCH  17  24
ENDBRANCH   3  17
TORSDOF 6
ENDMDL
MODEL 4
REMARK VINA RESULT:      -7.9      3.947      8.356
REMARK  Name = 
REMARK  8 active torsions:
REMARK  status: ('A' for Active; 'I' for Inactive)
REMARK    1  A    between atoms: C_1  and  C_2
REMARK    2  A    between atoms: C_5  and  N_6
REMARK    3  A    between atoms: C_7  and  C_9
REMARK    4  A    between atoms: C_9  and  N_10
REMARK    5  A    between atoms: N_10  and  C_11
REMARK    6  A    between atoms: C_12  and  C_14
REMARK    7  A    between atoms: C_14  and  C_15
REMARK    8  A    between atoms: C_14  and  C_21
REMARK                            x       y       z     vdW  Elec       q    Type
REMARK                         _______ _______ _______ _____ _____    ______ ____
ROOT
ATOM      1  N   UNL     1       1.761   8.314  19.493  0.00  0.00    +0.000 N 
ATOM      2  C   UNL     1       1.268   9.115  20.608  0.00  0.00    +0.000 C 
ATOM      3  C   UNL     1       2.250   7.027  19.759  0.00  0.00    +0.000 C 
ATOM      4  O   UNL     1       2.261   6.585  20.912  0.00  0.00    +0.000 OA
ENDROOT
BRANCH   1   5
ATOM      5  C   UNL     1       1.728   8.960  18.172  0.00  0.00    +0.000 C 
BRANCH   5   7
ATOM      6  N   UNL     1      -0.668   9.382  17.802  0.00  0.00    +0.000 N 
ATOM      7  C   UNL     1       0.556   9.960  18.100  0.00  0.00    +0.000 C 
ATOM      8  O   UNL     1       0.750  11.157  18.298  0.00  0.00    +0.000 OA
ATOM      9  H   UNL     1      -0.747   8.375  17.869  0.00  0.00    +0.000 HD
BRANCH   6  14
ATOM     10  C   UNL     1      -5.507  12.324  16.867  0.00  0.00    +0.000 C 
ATOM     11  C   UNL     1      -4.252  11.537  17.106  0.00  0.00    +0.000 A 
ATOM     12  C   UNL     1      -3.664  10.813  16.069  0.00  0.00    +0.000 A 
ATOM     13  C   UNL     1      -2.487  10.091  16.284  0.00  0.00    +0.000 A 
ATOM     14  C   UNL     1      -1.868  10.084  17.537  0.00  0.00    +0.000 A 
ATOM     15  C   UNL     1      -2.473  10.786  18.586  0.00  0.00    +0.000 A 
ATOM     16  C   UNL     1      -3.650  11.518  18.368  0.00  0.00    +0.000 A 
ENDBRANCH   6  14
ENDBRANCH   5   7
ENDBRANCH   1   5
BRANCH   3  17
ATOM     17  C   UNL     1       2.670   6.148  18.556  0.00  0.00    +0.000 C 
BRANCH  17  18
ATOM     18  C   UNL     1       4.178   6.068  18.287  0.00  0.00    +0.000 A 
ATOM     19  C   UNL     1       4.788   6.818  17.268  0.00  0.00    +0.000 A 
ATOM     20  C   UNL     1       6.179   6.913  17.188  0.00  0.00    +0.000 A 
ATOM     21  C   UNL     1       6.981   6.252  18.115  0.00  0.00    +0.000 A 
ATOM     22  C   UNL     1       6.395   5.458  19.098  0.00  0.00    +0.000 A 
ATOM     23  C   UNL     1       5.004   5.357  19.178  0.00  0.00    +0.000 A 
ENDBRANCH  17  18
BRANCH  17  24
ATOM     24  C   UNL     1       2.075   4.735  18.633  0.00  0.00    +0.000 A 
ATOM     25  C   UNL     1       2.397   3.790  17.644  0.00  0.00    +0.000 A 
ATOM     26  C   UNL     1       1.934   2.476  17.736  0.00  0.00    +0.000 A 
ATOM     27  C   UNL     1       1.147   2.086  18.817  0.00  0.00    +0.000 A 
ATOM     28  C   UNL     1       0.825   3.008  19.810  0.00  0.00    +0.000 A 
ATOM     29  C   UNL     1       1.288   4.321  19.721  0.00  0.00    +0.000 A 
ENDBRANCH  17  24
ENDBRANCH   3  17
TORSDOF 6
ENDMDL
MODEL 5
REMARK VINA RESULT:      -7.7      3.002      6.437
REMARK  Name = 
REMARK  8 active torsions:
REMARK  status: ('A' for Active; 'I' for Inactive)
REMARK    1  A    between atoms: C_1  and  C_2
REMARK    2  A    between atoms: C_5  and  N_6
REMARK    3  A    between atoms: C_7  and  C_9
REMARK    4  A    between atoms: C_9  and  N_10
REMARK    5  A    between atoms: N_10  and  C_11
REMARK    6  A    between atoms: C_12  and  C_14
REMARK    7  A    between atoms: C_14  and  C_15
REMARK    8  A    between atoms: C_14  and  C_21
REMARK                            x       y       z     vdW  Elec       q    Type
REMARK                         _______ _______ _______ _____ _____    ______ ____
ROOT
ATOM      1  N   UNL     1       6.393   5.079  17.245  0.00  0.00    +0.000 N 
ATOM      2  C   UNL     1       7.163   4.678  16.073  0.00  0.00    +0.000 C 
ATOM      3  C   UNL     1       5.019   4.802  17.268  0.00  0.00    +0.000 C 
ATOM      4  O   UNL     1       4.476   4.230  16.318  0.00  0.00    +0.000 OA
ENDROOT
BRANCH   1   5
ATOM      5  C   UNL     1       7.142   5.781  18.298  0.00  0.00    +0.000 C 
BRANCH   5   7
ATOM      6  N   UNL     1       8.293   7.915  18.718  0.00  0.00    +0.000 N 
ATOM      7  C   UNL     1       7.472   7.217  17.845  0.00  0.00    +0.000 C 
ATOM      8  O   UNL     1       7.018   7.654  16.790  0.00  0.00    +0.000 OA
ATOM      9  H   UNL     1       8.773   7.391  19.439  0.00  0.00    +0.000 HD
BRANCH   6  14
ATOM     10  C   UNL     1       9.795  13.445  18.399  0.00  0.00    +0.000 C 
ATOM     11  C   UNL     1       9.382  12.005  18.485  0.00  0.00    +0.000 A 
ATOM     12  C   UNL     1       8.469  11.476  17.573  0.00  0.00    +0.000 A 
ATOM     13  C   UNL     1       8.093  10.132  17.642  0.00  0.00    +0.000 A 
ATOM     14  C   UNL     1       8.628   9.286  18.616  0.00  0.00    +0.000 A 
ATOM     15  C   UNL     1       9.522   9.822  19.550  0.00  0.00    +0.000 A 
ATOM     16  C   UNL     1       9.906  11.170  19.477  0.00  0.00    +0.000 A 
ENDBRANCH   6  14
ENDBRANCH   5   7
ENDBRANCH   1   5
BRANCH   3  17
ATOM     17  C   UNL     1       4.234   5.136  18.561  0.00  0.00    +0.000 C 
BRANCH  17  18
ATOM     18  C   UNL     1       3.547   6.506  18.584  0.00  0.00    +0.000 A 
ATOM     19  C   UNL     1       3.626   7.391  17.496  0.00  0.00    +0.000 A 
ATOM     20  C   UNL     1       2.811   8.523  17.437  0.00  0.00    +0.000 A 
ATOM     21  C   UNL     1       1.915   8.796  18.467  0.00  0.00    +0.000 A 
ATOM     22  C   UNL     1       1.864   7.961  19.581  0.00  0.00    +0.000 A 
ATOM     23  C   UNL     1       2.681   6.830  19.645  0.00  0.00    +0.000 A 
ENDBRANCH  17  18
BRANCH  17  24
ATOM     24  C   UNL     1       3.226   4.037  18.929  0.00  0.00    +0.000 A 
ATOM     25  C   UNL     1       3.428   3.267  20.087  0.00  0.00    +0.000 A 
ATOM     26  C   UNL     1       2.485   2.319  20.487  0.00  0.00    +0.000 A 
ATOM     27  C   UNL     1       1.326   2.128  19.738  0.00  0.00    +0.000 A 
ATOM     28  C   UNL     1       1.106   2.887  18.591  0.00  0.00    +0.000 A 
ATOM     29  C   UNL     1       2.046   3.836  18.192  0.00  0.00    +0.000 A 
ENDBRANCH  17  24
ENDBRANCH   3  17
TORSDOF 6
ENDMDL
MODEL 6
REMARK VINA RESULT:      -7.7      3.597      8.854
REMARK  Name = 
REMARK  8 active torsions:
REMARK  status: ('A' for Active; 'I' for Inactive)
REMARK    1  A    between atoms: C_1  and  C_2
REMARK    2  A    between atoms: C_5  and  N_6
REMARK    3  A    between atoms: C_7  and  C_9
REMARK    4  A    between atoms: C_9  and  N_10
REMARK    5  A    between atoms: N_10  and  C_11
REMARK    6  A    between atoms: C_12  and  C_14
REMARK    7  A    between atoms: C_14  and  C_15
REMARK    8  A    between atoms: C_14  and  C_21
REMARK                            x       y       z     vdW  Elec       q    Type
REMARK                         _______ _______ _______ _____ _____    ______ ____
ROOT
ATOM      1  N   UNL     1       2.221   7.707  19.254  0.00  0.00    +0.000 N 
ATOM      2  C   UNL     1       1.732   8.947  18.662  0.00  0.00    +0.000 C 
ATOM      3  C   UNL     1       3.167   6.955  18.542  0.00  0.00    +0.000 C 
ATOM      4  O   UNL     1       3.575   7.338  17.441  0.00  0.00    +0.000 OA
ENDROOT
BRANCH   1   5
ATOM      5  C   UNL     1       1.638   7.338  20.553  0.00  0.00    +0.000 C 
BRANCH   5   7
ATOM      6  N   UNL     1      -0.059   9.045  21.060  0.00  0.00    +0.000 N 
ATOM      7  C   UNL     1       1.228   8.606  21.328  0.00  0.00    +0.000 C 
ATOM      8  O   UNL     1       2.017   9.142  22.103  0.00  0.00    +0.000 OA
ATOM      9  H   UNL     1      -0.685   8.415  20.574  0.00  0.00    +0.000 HD
BRANCH   6  14
ATOM     10  C   UNL     1      -2.421  13.990  22.768  0.00  0.00    +0.000 C 
ATOM     11  C   UNL     1      -1.788  12.701  22.335  0.00  0.00    +0.000 A 
ATOM     12  C   UNL     1      -1.541  11.688  23.262  0.00  0.00    +0.000 A 
ATOM     13  C   UNL     1      -0.965  10.480  22.859  0.00  0.00    +0.000 A 
ATOM     14  C   UNL     1      -0.630  10.255  21.522  0.00  0.00    +0.000 A 
ATOM     15  C   UNL     1      -0.850  11.282  20.595  0.00  0.00    +0.000 A 
ATOM     16  C   UNL     1      -1.437  12.491  20.998  0.00  0.00    +0.000 A 
ENDBRANCH   6  14
ENDBRANCH   5   7
ENDBRANCH   1   5
BRANCH   3  17
ATOM     17  C   UNL     1       3.758   5.698  19.227  0.00  0.00    +0.000 C 
BRANCH  17  18
ATOM     18  C   UNL     1       2.821   4.487  19.312  0.00  0.00    +0.000 A 
ATOM     19  C   UNL     1       2.668   3.754  20.500  0.00  0.00    +0.000 A 
ATOM     20  C   UNL     1       1.647   2.809  20.629  0.00  0.00    +0.000 A 
ATOM     21  C   UNL     1       0.773   2.574  19.570  0.00  0.00    +0.000 A 
ATOM     22  C   UNL     1       0.946   3.250  18.365  0.00  0.00    +0.000 A 
ATOM     23  C   UNL     1       1.968   4.192  18.232  0.00  0.00    +0.000 A 
ENDBRANCH  17  18
BRANCH  17  24
ATOM     24  C   UNL     1       5.102   5.280  18.612  0.00  0.00    +0.000 A 
ATOM     25  C   UNL     1       5.124   4.611  17.377  0.00  0.00    +0.000 A 
ATOM     26  C   UNL     1       6.334   4.293  16.759  0.00  0.00    +0.000 A 
ATOM     27  C   UNL     1       7.540   4.642  17.365  0.00  0.00    +0.000 A 
ATOM     28  C   UNL     1       7.537   5.311  18.586  0.00  0.00    +0.000 A 
ATOM     29  C   UNL     1       6.328   5.631  19.203  0.00  0.00    +0.000 A 
ENDBRANCH  17  24
ENDBRANCH   3  17
TORSDOF 6
ENDMDL
MODEL 7
REMARK VINA RESULT:      -7.7      3.715      8.225
REMARK  Name = 
REMARK  8 active torsions:
REMARK  status: ('A' for Active; 'I' for Inactive)
REMARK    1  A    between atoms: C_1  and  C_2
REMARK    2  A    between atoms: C_5  and  N_6
REMARK    3  A    between atoms: C_7  and  C_9
REMARK    4  A    between atoms: C_9  and  N_10
REMARK    5  A    between atoms: N_10  and  C_11
REMARK    6  A    between atoms: C_12  and  C_14
REMARK    7  A    between atoms: C_14  and  C_15
REMARK    8  A    between atoms: C_14  and  C_21
REMARK                            x       y       z     vdW  Elec       q    Type
REMARK                         _______ _______ _______ _____ _____    ______ ____
ROOT
ATOM      1  N   UNL     1       1.953   7.973  19.432  0.00  0.00    +0.000 N 
ATOM      2  C   UNL     1       1.358   8.642  20.582  0.00  0.00    +0.000 C 
ATOM      3  C   UNL     1       2.432   6.665  19.594  0.00  0.00    +0.000 C 
ATOM      4  O   UNL     1       2.349   6.095  20.687  0.00  0.00    +0.000 OA
ENDROOT
BRANCH   1   5
ATOM      5  C   UNL     1       2.027   8.763  18.194  0.00  0.00    +0.000 C 
BRANCH   5   7
ATOM      6  N   UNL     1      -0.365   9.199  17.815  0.00  0.00    +0.000 N 
ATOM      7  C   UNL     1       0.858   9.767  18.136  0.00  0.00    +0.000 C 
ATOM      8  O   UNL     1       1.053  10.958  18.363  0.00  0.00    +0.000 OA
ATOM      9  H   UNL     1      -0.446   8.190  17.857  0.00  0.00    +0.000 HD
BRANCH   6  14
ATOM     10  C   UNL     1      -5.182  12.183  16.899  0.00  0.00    +0.000 C 
ATOM     11  C   UNL     1      -3.933  11.385  17.134  0.00  0.00    +0.000 A 
ATOM     12  C   UNL     1      -3.401  10.589  16.119  0.00  0.00    +0.000 A 
ATOM     13  C   UNL     1      -2.230   9.856  16.330  0.00  0.00    +0.000 A 
ATOM     14  C   UNL     1      -1.561   9.909  17.556  0.00  0.00    +0.000 A 
ATOM     15  C   UNL     1      -2.110  10.684  18.584  0.00  0.00    +0.000 A 
ATOM     16  C   UNL     1      -3.281  11.426  18.371  0.00  0.00    +0.000 A 
ENDBRANCH   6  14
ENDBRANCH   5   7
ENDBRANCH   1   5
BRANCH   3  17
ATOM     17  C   UNL     1       2.964   5.927  18.341  0.00  0.00    +0.000 C 
BRANCH  17  18
ATOM     18  C   UNL     1       4.458   6.114  18.045  0.00  0.00    +0.000 A 
ATOM     19  C   UNL     1       5.446   5.736  18.970  0.00  0.00    +0.000 A 
ATOM     20  C   UNL     1       6.791   5.694  18.598  0.00  0.00    +0.000 A 
ATOM     21  C   UNL     1       7.171   6.039  17.303  0.00  0.00    +0.000 A 
ATOM     22  C   UNL     1       6.211   6.471  16.391  0.00  0.00    +0.000 A 
ATOM     23  C   UNL     1       4.865   6.518  16.761  0.00  0.00    +0.000 A 
ENDBRANCH  17  18
BRANCH  17  24
ATOM     24  C   UNL     1       2.615   4.432  18.355  0.00  0.00    +0.000 A 
ATOM     25  C   UNL     1       1.321   4.024  18.721  0.00  0.00    +0.000 A 
ATOM     26  C   UNL     1       0.954   2.678  18.663  0.00  0.00    +0.000 A 
ATOM     27  C   UNL     1       1.873   1.722  18.235  0.00  0.00    +0.000 A 
ATOM     28  C   UNL     1       3.157   2.110  17.861  0.00  0.00    +0.000 A 
ATOM     29  C   UNL     1       3.524   3.454  17.916  0.00  0.00    +0.000 A 
ENDBRANCH  17  24
ENDBRANCH   3  17
TORSDOF 6
ENDMDL
MODEL 8
REMARK VINA RESULT:      -7.6      4.142      9.347
REMARK  Name = 
REMARK  8 active torsions:
REMARK  status: ('A' for Active; 'I' for Inactive)
REMARK    1  A    between atoms: C_1  and  C_2
REMARK    2  A    between atoms: C_5  and  N_6
REMARK    3  A    between atoms: C_7  and  C_9
REMARK    4  A    between atoms: C_9  and  N_10
REMARK    5  A    between atoms: N_10  and  C_11
REMARK    6  A    between atoms: C_12  and  C_14
REMARK    7  A    between atoms: C_14  and  C_15
REMARK    8  A    between atoms: C_14  and  C_21
REMARK                            x       y       z     vdW  Elec       q    Type
REMARK                         _______ _______ _______ _____ _____    ______ ____
ROOT
ATOM      1  N   UNL     1       1.732   8.590  19.374  0.00  0.00    +0.000 N 
ATOM      2  C   UNL     1       1.190   9.823  18.816  0.00  0.00    +0.000 C 
ATOM      3  C   UNL     1       2.369   7.689  18.508  0.00  0.00    +0.000 C 
ATOM      4  O   UNL     1       2.468   7.937  17.303  0.00  0.00    +0.000 OA
ENDROOT
BRANCH   1   5
ATOM      5  C   UNL     1       1.525   8.389  20.816  0.00  0.00    +0.000 C 
BRANCH   5   7
ATOM      6  N   UNL     1       0.112  10.353  21.263  0.00  0.00    +0.000 N 
ATOM      7  C   UNL     1       0.160   8.968  21.240  0.00  0.00    +0.000 C 
ATOM      8  O   UNL     1      -0.771   8.218  21.523  0.00  0.00    +0.000 OA
ATOM      9  H   UNL     1       0.862  10.862  20.812  0.00  0.00    +0.000 HD
BRANCH   6  14
ATOM     10  C   UNL     1      -4.308  13.534  23.079  0.00  0.00    +0.000 C 
ATOM     11  C   UNL     1      -3.140  12.712  22.618  0.00  0.00    +0.000 A 
ATOM     12  C   UNL     1      -2.456  11.891  23.515  0.00  0.00    +0.000 A 
ATOM     13  C   UNL     1      -1.377  11.113  23.085  0.00  0.00    +0.000 A 
ATOM     14  C   UNL     1      -0.964  11.133  21.751  0.00  0.00    +0.000 A 
ATOM     15  C   UNL     1      -1.630  11.979  20.857  0.00  0.00    +0.000 A 
ATOM     16  C   UNL     1      -2.719  12.754  21.285  0.00  0.00    +0.000 A 
ENDBRANCH   6  14
ENDBRANCH   5   7
ENDBRANCH   1   5
BRANCH   3  17
ATOM     17  C   UNL     1       3.033   6.435  19.129  0.00  0.00    +0.000 C 
BRANCH  17  18
ATOM     18  C   UNL     1       2.135   5.197  19.245  0.00  0.00    +0.000 A 
ATOM     19  C   UNL     1       1.834   4.396  18.131  0.00  0.00    +0.000 A 
ATOM     20  C   UNL     1       1.215   3.155  18.292  0.00  0.00    +0.000 A 
ATOM     21  C   UNL     1       0.876   2.700  19.564  0.00  0.00    +0.000 A 
ATOM     22  C   UNL     1       1.115   3.507  20.674  0.00  0.00    +0.000 A 
ATOM     23  C   UNL     1       1.730   4.751  20.517  0.00  0.00    +0.000 A 
ENDBRANCH  17  18
BRANCH  17  24
ATOM     24  C   UNL     1       4.347   6.065  18.425  0.00  0.00    +0.000 A 
ATOM     25  C   UNL     1       5.346   5.378  19.135  0.00  0.00    +0.000 A 
ATOM     26  C   UNL     1       6.515   4.959  18.496  0.00  0.00    +0.000 A 
ATOM     27  C   UNL     1       6.700   5.218  17.139  0.00  0.00    +0.000 A 
ATOM     28  C   UNL     1       5.717   5.892  16.419  0.00  0.00    +0.000 A 
ATOM     29  C   UNL     1       4.548   6.309  17.055  0.00  0.00    +0.000 A 
ENDBRANCH  17  24
ENDBRANCH   3  17
TORSDOF 6
ENDMDL
MODEL 9
REMARK VINA RESULT:      -7.6      4.077      9.360
REMARK  Name = 
REMARK  8 active torsions:
REMARK  status: ('A' for Active; 'I' for Inactive)
REMARK    1  A    between atoms: C_1  and  C_2
REMARK    2  A    between atoms: C_5  and  N_6
REMARK    3  A    between atoms: C_7  and  C_9
REMARK    4  A    between atoms: C_9  and  N_10
REMARK    5  A    between atoms: N_10  and  C_11
REMARK    6  A    between atoms: C_12  and  C_14
REMARK    7  A    between atoms: C_14  and  C_15
REMARK    8  A    between atoms: C_14  and  C_21
REMARK                            x       y       z     vdW  Elec       q    Type
REMARK                         _______ _______ _______ _____ _____    ______ ____
ROOT
ATOM      1  N   UNL     1       1.636   8.421  19.551  0.00  0.00    +0.000 N 
ATOM      2  C   UNL     1       1.103   9.701  19.098  0.00  0.00    +0.000 C 
ATOM      3  C   UNL     1       2.403   7.662  18.656  0.00  0.00    +0.000 C 
ATOM      4  O   UNL     1       2.620   8.071  17.511  0.00  0.00    +0.000 OA
ENDROOT
BRANCH   1   5
ATOM      5  C   UNL     1       1.283   8.026  20.923  0.00  0.00    +0.000 C 
BRANCH   5   7
ATOM      6  N   UNL     1      -0.145   9.940  21.515  0.00  0.00    +0.000 N 
ATOM      7  C   UNL     1       1.042   9.278  21.789  0.00  0.00    +0.000 C 
ATOM      8  O   UNL     1       1.866   9.615  22.636  0.00  0.00    +0.000 OA
ATOM      9  H   UNL     1      -0.838   9.461  20.953  0.00  0.00    +0.000 HD
BRANCH   6  14
ATOM     10  C   UNL     1      -1.813  14.911  23.852  0.00  0.00    +0.000 C 
ATOM     11  C   UNL     1      -1.382  13.619  23.222  0.00  0.00    +0.000 A 
ATOM     12  C   UNL     1      -0.383  13.605  22.248  0.00  0.00    +0.000 A 
ATOM     13  C   UNL     1       0.030  12.402  21.670  0.00  0.00    +0.000 A 
ATOM     14  C   UNL     1      -0.539  11.187  22.058  0.00  0.00    +0.000 A 
ATOM     15  C   UNL     1      -1.562  11.201  23.013  0.00  0.00    +0.000 A 
ATOM     16  C   UNL     1      -1.972  12.408  23.600  0.00  0.00    +0.000 A 
ENDBRANCH   6  14
ENDBRANCH   5   7
ENDBRANCH   1   5
BRANCH   3  17
ATOM     17  C   UNL     1       3.051   6.358  19.182  0.00  0.00    +0.000 C 
BRANCH  17  18
ATOM     18  C   UNL     1       2.137   5.127  19.211  0.00  0.00    +0.000 A 
ATOM     19  C   UNL     1       1.916   4.345  18.065  0.00  0.00    +0.000 A 
ATOM     20  C   UNL     1       1.277   3.107  18.160  0.00  0.00    +0.000 A 
ATOM     21  C   UNL     1       0.839   2.637  19.395  0.00  0.00    +0.000 A 
ATOM     22  C   UNL     1       0.999   3.426  20.533  0.00  0.00    +0.000 A 
ATOM     23  C   UNL     1       1.634   4.666  20.441  0.00  0.00    +0.000 A 
ENDBRANCH  17  18
BRANCH  17  24
ATOM     24  C   UNL     1       4.360   6.024  18.449  0.00  0.00    +0.000 A 
ATOM     25  C   UNL     1       5.400   5.383  19.143  0.00  0.00    +0.000 A 
ATOM     26  C   UNL     1       6.566   4.996  18.480  0.00  0.00    +0.000 A 
ATOM     27  C   UNL     1       6.707   5.239  17.116  0.00  0.00    +0.000 A 
ATOM     28  C   UNL     1       5.683   5.866  16.411  0.00  0.00    +0.000 A 
ATOM     29  C   UNL     1       4.516   6.252  17.071  0.00  0.00    +0.000 A 
ENDBRANCH  17  24
ENDBRANCH   3  17
TORSDOF 6
ENDMDL
