MODEL 1
REMARK VINA RESULT:      -8.8      0.000      0.000
REMARK  Name = 
REMARK  4 active torsions:
REMARK  status: ('A' for Active; 'I' for Inactive)
REMARK    1  A    between atoms: C_16  and  C_17
REMARK    2  A    between atoms: C_17  and  N_18
REMARK    3  A    between atoms: N_18  and  C_19
REMARK    4  A    between atoms: C_22  and  O_23
REMARK                            x       y       z     vdW  Elec       q    Type
REMARK                         _______ _______ _______ _____ _____    ______ ____
ROOT
ATOM      1  O   UNL     1       0.823  12.436  18.543  0.00  0.00    +0.000 OA
ATOM      2  C   UNL     1       1.128  11.255  18.675  0.00  0.00    +0.000 A 
ATOM      3  N   UNL     1       1.790  10.543  17.701  0.00  0.00    +0.000 N 
ATOM      4  N   UNL     1       2.165   9.231  17.776  0.00  0.00    +0.000 NA
ATOM      5  C   UNL     1       1.874   8.580  18.864  0.00  0.00    +0.000 A 
ATOM      6  C   UNL     1       1.172   9.185  19.988  0.00  0.00    +0.000 A 
ATOM      7  C   UNL     1       0.886   8.433  21.118  0.00  0.00    +0.000 A 
ATOM      8  C   UNL     1       0.209   9.027  22.183  0.00  0.00    +0.000 A 
ATOM      9  C   UNL     1      -0.175  10.366  22.108  0.00  0.00    +0.000 A 
ATOM     10  C   UNL     1       0.121  11.118  20.964  0.00  0.00    +0.000 A 
ATOM     11  C   UNL     1       0.796  10.517  19.901  0.00  0.00    +0.000 A 
ATOM     12  O   UNL     1       1.241   7.117  21.259  0.00  0.00    +0.000 OA
ATOM     13  C   UNL     1       1.909   6.516  20.216  0.00  0.00    +0.000 A 
ATOM     14  C   UNL     1       2.247   5.175  20.396  0.00  0.00    +0.000 A 
ATOM     15  C   UNL     1       2.900   4.479  19.378  0.00  0.00    +0.000 A 
ATOM     16  C   UNL     1       3.218   5.118  18.171  0.00  0.00    +0.000 A 
ATOM     17  C   UNL     1       2.897   6.472  18.006  0.00  0.00    +0.000 A 
ATOM     18  C   UNL     1       2.243   7.163  19.028  0.00  0.00    +0.000 A 
ATOM     19  H   UNL     1       2.030  11.031  16.844  0.00  0.00    +0.000 HD
ENDROOT
BRANCH  16  20
ATOM     20  C   UNL     1       3.833   4.340  17.035  0.00  0.00    +0.000 C 
BRANCH  20  21
ATOM     21  N   UNL     1       5.239   4.049  17.288  0.00  0.00    +0.000 NA
ATOM     22  H   UNL     1       5.661   3.706  16.426  0.00  0.00    +0.000 HD
BRANCH  21  23
ATOM     23  C   UNL     1       6.012   5.186  17.790  0.00  0.00    +0.000 C 
ATOM     24  C   UNL     1       7.324   4.776  18.477  0.00  0.00    +0.000 C 
ATOM     25  C   UNL     1       7.971   5.983  19.143  0.00  0.00    +0.000 C 
ATOM     26  C   UNL     1       8.184   7.139  18.164  0.00  0.00    +0.000 C 
ATOM     27  C   UNL     1       6.941   7.474  17.336  0.00  0.00    +0.000 C 
ATOM     28  C   UNL     1       6.304   6.237  16.708  0.00  0.00    +0.000 C 
BRANCH  26  29
ATOM     29  O   UNL     1       8.582   8.293  18.896  0.00  0.00    +0.000 OA
ATOM     30  H   UNL     1       8.833   8.981  18.254  0.00  0.00    +0.000 HD
ENDBRANCH  26  29
ENDBRANCH  21  23
ENDBRANCH  20  21
ENDBRANCH  16  20
TORSDOF 4
ENDMDL
MODEL 2
REMARK VINA RESULT:      -8.5      2.439      3.498
REMARK  Name = 
REMARK  4 active torsions:
REMARK  status: ('A' for Active; 'I' for Inactive)
REMARK    1  A    between atoms: C_16  and  C_17
REMARK    2  A    between atoms: C_17  and  N_18
REMARK    3  A    between atoms: N_18  and  C_19
REMARK    4  A    between atoms: C_22  and  O_23
REMARK                            x       y       z     vdW  Elec       q    Type
REMARK                         _______ _______ _______ _____ _____    ______ ____
ROOT
ATOM      1  O   UNL     1      -1.744  11.370  23.478  0.00  0.00    +0.000 OA
ATOM      2  C   UNL     1      -1.048  10.769  22.665  0.00  0.00    +0.000 A 
ATOM      3  N   UNL     1      -0.439   9.568  22.951  0.00  0.00    +0.000 N 
ATOM      4  N   UNL     1       0.344   8.840  22.101  0.00  0.00    +0.000 NA
ATOM      5  C   UNL     1       0.544   9.313  20.906  0.00  0.00    +0.000 A 
ATOM      6  C   UNL     1      -0.025  10.574  20.446  0.00  0.00    +0.000 A 
ATOM      7  C   UNL     1       0.232  11.028  19.160  0.00  0.00    +0.000 A 
ATOM      8  C   UNL     1      -0.316  12.238  18.739  0.00  0.00    +0.000 A 
ATOM      9  C   UNL     1      -1.116  12.984  19.606  0.00  0.00    +0.000 A 
ATOM     10  C   UNL     1      -1.372  12.515  20.901  0.00  0.00    +0.000 A 
ATOM     11  C   UNL     1      -0.818  11.305  21.318  0.00  0.00    +0.000 A 
ATOM     12  O   UNL     1       1.002  10.342  18.258  0.00  0.00    +0.000 OA
ATOM     13  C   UNL     1       1.551   9.145  18.659  0.00  0.00    +0.000 A 
ATOM     14  C   UNL     1       2.332   8.482  17.714  0.00  0.00    +0.000 A 
ATOM     15  C   UNL     1       2.952   7.275  18.045  0.00  0.00    +0.000 A 
ATOM     16  C   UNL     1       2.797   6.726  19.326  0.00  0.00    +0.000 A 
ATOM     17  C   UNL     1       1.991   7.385  20.262  0.00  0.00    +0.000 A 
ATOM     18  C   UNL     1       1.374   8.592  19.926  0.00  0.00    +0.000 A 
ATOM     19  H   UNL     1      -0.583   9.176  23.876  0.00  0.00    +0.000 HD
ENDROOT
BRANCH  16  20
ATOM     20  C   UNL     1       3.546   5.475  19.714  0.00  0.00    +0.000 C 
BRANCH  20  21
ATOM     21  N   UNL     1       3.636   4.540  18.601  0.00  0.00    +0.000 NA
ATOM     22  H   UNL     1       2.724   4.484  18.147  0.00  0.00    +0.000 HD
BRANCH  21  23
ATOM     23  C   UNL     1       4.655   4.877  17.606  0.00  0.00    +0.000 C 
ATOM     24  C   UNL     1       6.085   4.867  18.169  0.00  0.00    +0.000 C 
ATOM     25  C   UNL     1       7.062   5.416  17.138  0.00  0.00    +0.000 C 
ATOM     26  C   UNL     1       6.976   4.671  15.805  0.00  0.00    +0.000 C 
ATOM     27  C   UNL     1       5.544   4.513  15.286  0.00  0.00    +0.000 C 
ATOM     28  C   UNL     1       4.589   3.988  16.354  0.00  0.00    +0.000 C 
BRANCH  26  29
ATOM     29  O   UNL     1       7.748   5.372  14.836  0.00  0.00    +0.000 OA
ATOM     30  H   UNL     1       7.904   4.769  14.088  0.00  0.00    +0.000 HD
ENDBRANCH  26  29
ENDBRANCH  21  23
ENDBRANCH  20  21
ENDBRANCH  16  20
TORSDOF 4
ENDMDL
MODEL 3
REMARK VINA RESULT:      -8.3      1.552      2.005
REMARK  Name = 
REMARK  4 active torsions:
REMARK  status: ('A' for Active; 'I' for Inactive)
REMARK    1  A    between atoms: C_16  and  C_17
REMARK    2  A    between atoms: C_17  and  N_18
REMARK    3  A    between atoms: N_18  and  C_19
REMARK    4  A    between atoms: C_22  and  O_23
REMARK                            x       y       z     vdW  Elec       q    Type
REMARK                         _______ _______ _______ _____ _____    ______ ____
ROOT
ATOM      1  O   UNL     1       1.312  12.174  18.355  0.00  0.00    +0.000 OA
ATOM      2  C   UNL     1       1.443  10.974  18.574  0.00  0.00    +0.000 A 
ATOM      3  N   UNL     1       1.944  10.096  17.639  0.00  0.00    +0.000 N 
ATOM      4  N   UNL     1       2.122   8.752  17.810  0.00  0.00    +0.000 NA
ATOM      5  C   UNL     1       1.789   8.239  18.958  0.00  0.00    +0.000 A 
ATOM      6  C   UNL     1       1.238   9.028  20.052  0.00  0.00    +0.000 A 
ATOM      7  C   UNL     1       0.895   8.418  21.250  0.00  0.00    +0.000 A 
ATOM      8  C   UNL     1       0.366   9.188  22.285  0.00  0.00    +0.000 A 
ATOM      9  C   UNL     1       0.184  10.561  22.112  0.00  0.00    +0.000 A 
ATOM     10  C   UNL     1       0.535  11.168  20.900  0.00  0.00    +0.000 A 
ATOM     11  C   UNL     1       1.062  10.391  19.867  0.00  0.00    +0.000 A 
ATOM     12  O   UNL     1       1.056   7.078  21.486  0.00  0.00    +0.000 OA
ATOM     13  C   UNL     1       1.577   6.303  20.475  0.00  0.00    +0.000 A 
ATOM     14  C   UNL     1       1.719   4.945  20.754  0.00  0.00    +0.000 A 
ATOM     15  C   UNL     1       2.212   4.080  19.775  0.00  0.00    +0.000 A 
ATOM     16  C   UNL     1       2.565   4.569  18.508  0.00  0.00    +0.000 A 
ATOM     17  C   UNL     1       2.443   5.939  18.244  0.00  0.00    +0.000 A 
ATOM     18  C   UNL     1       1.948   6.799  19.226  0.00  0.00    +0.000 A 
ATOM     19  H   UNL     1       2.214  10.475  16.738  0.00  0.00    +0.000 HD
ENDROOT
BRANCH  16  20
ATOM     20  C   UNL     1       3.003   3.621  17.421  0.00  0.00    +0.000 C 
BRANCH  20  21
ATOM     21  N   UNL     1       4.341   3.101  17.674  0.00  0.00    +0.000 NA
ATOM     22  H   UNL     1       4.312   2.083  17.611  0.00  0.00    +0.000 HD
BRANCH  21  23
ATOM     23  C   UNL     1       5.373   3.616  16.774  0.00  0.00    +0.000 C 
ATOM     24  C   UNL     1       4.813   4.166  15.453  0.00  0.00    +0.000 C 
ATOM     25  C   UNL     1       5.949   4.498  14.495  0.00  0.00    +0.000 C 
ATOM     26  C   UNL     1       6.969   5.453  15.116  0.00  0.00    +0.000 C 
ATOM     27  C   UNL     1       7.433   5.028  16.511  0.00  0.00    +0.000 C 
ATOM     28  C   UNL     1       6.269   4.676  17.434  0.00  0.00    +0.000 C 
BRANCH  26  29
ATOM     29  O   UNL     1       8.099   5.541  14.256  0.00  0.00    +0.000 OA
ATOM     30  H   UNL     1       7.918   4.996  13.470  0.00  0.00    +0.000 HD
ENDBRANCH  26  29
ENDBRANCH  21  23
ENDBRANCH  20  21
ENDBRANCH  16  20
TORSDOF 4
ENDMDL
MODEL 4
REMARK VINA RESULT:      -8.2      2.558      3.877
REMARK  Name = 
REMARK  4 active torsions:
REMARK  status: ('A' for Active; 'I' for Inactive)
REMARK    1  A    between atoms: C_16  and  C_17
REMARK    2  A    between atoms: C_17  and  N_18
REMARK    3  A    between atoms: N_18  and  C_19
REMARK    4  A    between atoms: C_22  and  O_23
REMARK                            x       y       z     vdW  Elec       q    Type
REMARK                         _______ _______ _______ _____ _____    ______ ____
ROOT
ATOM      1  O   UNL     1      -1.942  12.178  23.736  0.00  0.00    +0.000 OA
ATOM      2  C   UNL     1      -1.291  11.548  22.909  0.00  0.00    +0.000 A 
ATOM      3  N   UNL     1      -0.785  10.292  23.159  0.00  0.00    +0.000 N 
ATOM      4  N   UNL     1      -0.057   9.530  22.291  0.00  0.00    +0.000 NA
ATOM      5  C   UNL     1       0.191  10.023  21.113  0.00  0.00    +0.000 A 
ATOM      6  C   UNL     1      -0.267  11.339  20.691  0.00  0.00    +0.000 A 
ATOM      7  C   UNL     1       0.037  11.812  19.422  0.00  0.00    +0.000 A 
ATOM      8  C   UNL     1      -0.406  13.076  19.036  0.00  0.00    +0.000 A 
ATOM      9  C   UNL     1      -1.150  13.856  19.922  0.00  0.00    +0.000 A 
ATOM     10  C   UNL     1      -1.455  13.370  21.199  0.00  0.00    +0.000 A 
ATOM     11  C   UNL     1      -1.005  12.106  21.581  0.00  0.00    +0.000 A 
ATOM     12  O   UNL     1       0.756  11.093  18.503  0.00  0.00    +0.000 OA
ATOM     13  C   UNL     1       1.202   9.843  18.869  0.00  0.00    +0.000 A 
ATOM     14  C   UNL     1       1.934   9.148  17.907  0.00  0.00    +0.000 A 
ATOM     15  C   UNL     1       2.450   7.885  18.204  0.00  0.00    +0.000 A 
ATOM     16  C   UNL     1       2.239   7.309  19.465  0.00  0.00    +0.000 A 
ATOM     17  C   UNL     1       1.481   8.003  20.417  0.00  0.00    +0.000 A 
ATOM     18  C   UNL     1       0.968   9.267  20.116  0.00  0.00    +0.000 A 
ATOM     19  H   UNL     1      -0.969   9.885  24.070  0.00  0.00    +0.000 HD
ENDROOT
BRANCH  16  20
ATOM     20  C   UNL     1       2.879   5.990  19.817  0.00  0.00    +0.000 C 
BRANCH  20  21
ATOM     21  N   UNL     1       2.866   5.072  18.686  0.00  0.00    +0.000 NA
ATOM     22  H   UNL     1       2.274   5.464  17.954  0.00  0.00    +0.000 HD
BRANCH  21  23
ATOM     23  C   UNL     1       4.188   4.771  18.135  0.00  0.00    +0.000 C 
ATOM     24  C   UNL     1       4.426   5.387  16.747  0.00  0.00    +0.000 C 
ATOM     25  C   UNL     1       5.732   4.871  16.157  0.00  0.00    +0.000 C 
ATOM     26  C   UNL     1       6.921   5.106  17.090  0.00  0.00    +0.000 C 
ATOM     27  C   UNL     1       6.665   4.654  18.530  0.00  0.00    +0.000 C 
ATOM     28  C   UNL     1       5.336   5.167  19.077  0.00  0.00    +0.000 C 
BRANCH  26  29
ATOM     29  O   UNL     1       8.051   4.410  16.577  0.00  0.00    +0.000 OA
ATOM     30  H   UNL     1       8.805   4.589  17.168  0.00  0.00    +0.000 HD
ENDBRANCH  26  29
ENDBRANCH  21  23
ENDBRANCH  20  21
ENDBRANCH  16  20
TORSDOF 4
ENDMDL
MODEL 5
REMARK VINA RESULT:      -8.2      3.219      8.483
REMARK  Name = 
REMARK  4 active torsions:
REMARK  status: ('A' for Active; 'I' for Inactive)
REMARK    1  A    between atoms: C_16  and  C_17
REMARK    2  A    between atoms: C_17  and  N_18
REMARK    3  A    between atoms: N_18  and  C_19
REMARK    4  A    between atoms: C_22  and  O_23
REMARK                            x       y       z     vdW  Elec       q    Type
REMARK                         _______ _______ _______ _____ _____    ______ ____
ROOT
ATOM      1  O   UNL     1       3.187   2.571  20.790  0.00  0.00    +0.000 OA
ATOM      2  C   UNL     1       2.926   3.723  20.455  0.00  0.00    +0.000 A 
ATOM      3  N   UNL     1       2.096   4.541  21.188  0.00  0.00    +0.000 N 
ATOM      4  N   UNL     1       1.761   5.830  20.883  0.00  0.00    +0.000 NA
ATOM      5  C   UNL     1       2.265   6.346  19.801  0.00  0.00    +0.000 A 
ATOM      6  C   UNL     1       3.157   5.613  18.912  0.00  0.00    +0.000 A 
ATOM      7  C   UNL     1       3.655   6.219  17.767  0.00  0.00    +0.000 A 
ATOM      8  C   UNL     1       4.504   5.501  16.925  0.00  0.00    +0.000 A 
ATOM      9  C   UNL     1       4.846   4.184  17.235  0.00  0.00    +0.000 A 
ATOM     10  C   UNL     1       4.340   3.582  18.394  0.00  0.00    +0.000 A 
ATOM     11  C   UNL     1       3.489   4.305  19.230  0.00  0.00    +0.000 A 
ATOM     12  O   UNL     1       3.364   7.510  17.409  0.00  0.00    +0.000 OA
ATOM     13  C   UNL     1       2.527   8.232  18.230  0.00  0.00    +0.000 A 
ATOM     14  C   UNL     1       2.252   9.538  17.827  0.00  0.00    +0.000 A 
ATOM     15  C   UNL     1       1.390  10.333  18.585  0.00  0.00    +0.000 A 
ATOM     16  C   UNL     1       0.794   9.825  19.748  0.00  0.00    +0.000 A 
ATOM     17  C   UNL     1       1.095   8.520  20.160  0.00  0.00    +0.000 A 
ATOM     18  C   UNL     1       1.957   7.729  19.398  0.00  0.00    +0.000 A 
ATOM     19  H   UNL     1       1.693   4.161  22.039  0.00  0.00    +0.000 HD
ENDROOT
BRANCH  16  20
ATOM     20  C   UNL     1      -0.213  10.649  20.510  0.00  0.00    +0.000 C 
BRANCH  20  21
ATOM     21  N   UNL     1      -0.732  11.742  19.698  0.00  0.00    +0.000 NA
ATOM     22  H   UNL     1      -0.048  11.964  18.975  0.00  0.00    +0.000 HD
BRANCH  21  23
ATOM     23  C   UNL     1      -2.029  11.473  19.076  0.00  0.00    +0.000 C 
ATOM     24  C   UNL     1      -3.153  12.386  19.588  0.00  0.00    +0.000 C 
ATOM     25  C   UNL     1      -4.499  11.920  19.049  0.00  0.00    +0.000 C 
ATOM     26  C   UNL     1      -4.506  11.818  17.522  0.00  0.00    +0.000 C 
ATOM     27  C   UNL     1      -3.308  11.053  16.956  0.00  0.00    +0.000 C 
ATOM     28  C   UNL     1      -1.980  11.528  17.541  0.00  0.00    +0.000 C 
BRANCH  26  29
ATOM     29  O   UNL     1      -5.707  11.175  17.111  0.00  0.00    +0.000 OA
ATOM     30  H   UNL     1      -6.255  11.031  17.903  0.00  0.00    +0.000 HD
ENDBRANCH  26  29
ENDBRANCH  21  23
ENDBRANCH  20  21
ENDBRANCH  16  20
TORSDOF 4
ENDMDL
MODEL 6
REMARK VINA RESULT:      -8.1      2.616      3.778
REMARK  Name = 
REMARK  4 active torsions:
REMARK  status: ('A' for Active; 'I' for Inactive)
REMARK    1  A    between atoms: C_16  and  C_17
REMARK    2  A    between atoms: C_17  and  N_18
REMARK    3  A    between atoms: N_18  and  C_19
REMARK    4  A    between atoms: C_22  and  O_23
REMARK                            x       y       z     vdW  Elec       q    Type
REMARK                         _______ _______ _______ _____ _____    ______ ____
ROOT
ATOM      1  O   UNL     1      -1.580  11.513  23.780  0.00  0.00    +0.000 OA
ATOM      2  C   UNL     1      -0.948  10.918  22.912  0.00  0.00    +0.000 A 
ATOM      3  N   UNL     1      -0.387   9.678  23.119  0.00  0.00    +0.000 N 
ATOM      4  N   UNL     1       0.325   8.954  22.205  0.00  0.00    +0.000 NA
ATOM      5  C   UNL     1       0.499   9.473  21.025  0.00  0.00    +0.000 A 
ATOM      6  C   UNL     1      -0.025  10.778  20.646  0.00  0.00    +0.000 A 
ATOM      7  C   UNL     1       0.202  11.279  19.372  0.00  0.00    +0.000 A 
ATOM      8  C   UNL     1      -0.303  12.532  19.027  0.00  0.00    +0.000 A 
ATOM      9  C   UNL     1      -1.030  13.273  19.960  0.00  0.00    +0.000 A 
ATOM     10  C   UNL     1      -1.257  12.758  21.242  0.00  0.00    +0.000 A 
ATOM     11  C   UNL     1      -0.746  11.505  21.581  0.00  0.00    +0.000 A 
ATOM     12  O   UNL     1       0.901  10.600  18.408  0.00  0.00    +0.000 OA
ATOM     13  C   UNL     1       1.407   9.361  18.733  0.00  0.00    +0.000 A 
ATOM     14  C   UNL     1       2.117   8.707  17.727  0.00  0.00    +0.000 A 
ATOM     15  C   UNL     1       2.690   7.458  17.978  0.00  0.00    +0.000 A 
ATOM     16  C   UNL     1       2.559   6.858  19.238  0.00  0.00    +0.000 A 
ATOM     17  C   UNL     1       1.824   7.511  20.236  0.00  0.00    +0.000 A 
ATOM     18  C   UNL     1       1.254   8.759  19.980  0.00  0.00    +0.000 A 
ATOM     19  H   UNL     1      -0.513   9.252  24.031  0.00  0.00    +0.000 HD
ENDROOT
BRANCH  16  20
ATOM     20  C   UNL     1       3.261   5.558  19.539  0.00  0.00    +0.000 C 
BRANCH  20  21
ATOM     21  N   UNL     1       4.707   5.691  19.414  0.00  0.00    +0.000 NA
ATOM     22  H   UNL     1       5.145   5.277  20.236  0.00  0.00    +0.000 HD
BRANCH  21  23
ATOM     23  C   UNL     1       5.269   5.086  18.206  0.00  0.00    +0.000 C 
ATOM     24  C   UNL     1       4.241   4.294  17.384  0.00  0.00    +0.000 C 
ATOM     25  C   UNL     1       4.935   3.535  16.260  0.00  0.00    +0.000 C 
ATOM     26  C   UNL     1       5.778   4.456  15.375  0.00  0.00    +0.000 C 
ATOM     27  C   UNL     1       6.703   5.384  16.166  0.00  0.00    +0.000 C 
ATOM     28  C   UNL     1       5.979   6.104  17.300  0.00  0.00    +0.000 C 
BRANCH  26  29
ATOM     29  O   UNL     1       6.560   3.656  14.495  0.00  0.00    +0.000 OA
ATOM     30  H   UNL     1       6.502   2.733  14.800  0.00  0.00    +0.000 HD
ENDBRANCH  26  29
ENDBRANCH  21  23
ENDBRANCH  20  21
ENDBRANCH  16  20
TORSDOF 4
ENDMDL
MODEL 7
REMARK VINA RESULT:      -8.0      3.428      5.034
REMARK  Name = 
REMARK  4 active torsions:
REMARK  status: ('A' for Active; 'I' for Inactive)
REMARK    1  A    between atoms: C_16  and  C_17
REMARK    2  A    between atoms: C_17  and  N_18
REMARK    3  A    between atoms: N_18  and  C_19
REMARK    4  A    between atoms: C_22  and  O_23
REMARK                            x       y       z     vdW  Elec       q    Type
REMARK                         _______ _______ _______ _____ _____    ______ ____
ROOT
ATOM      1  O   UNL     1      -2.484  12.135  23.883  0.00  0.00    +0.000 OA
ATOM      2  C   UNL     1      -1.779  11.601  23.033  0.00  0.00    +0.000 A 
ATOM      3  N   UNL     1      -1.207  10.361  23.212  0.00  0.00    +0.000 N 
ATOM      4  N   UNL     1      -0.416   9.702  22.315  0.00  0.00    +0.000 NA
ATOM      5  C   UNL     1      -0.169  10.288  21.180  0.00  0.00    +0.000 A 
ATOM      6  C   UNL     1      -0.693  11.603  20.835  0.00  0.00    +0.000 A 
ATOM      7  C   UNL     1      -0.387  12.177  19.609  0.00  0.00    +0.000 A 
ATOM      8  C   UNL     1      -0.894  13.437  19.297  0.00  0.00    +0.000 A 
ATOM      9  C   UNL     1      -1.702  14.113  20.213  0.00  0.00    +0.000 A 
ATOM     10  C   UNL     1      -2.008  13.524  21.446  0.00  0.00    +0.000 A 
ATOM     11  C   UNL     1      -1.495  12.263  21.753  0.00  0.00    +0.000 A 
ATOM     12  O   UNL     1       0.393  11.565  18.664  0.00  0.00    +0.000 OA
ATOM     13  C   UNL     1       0.902  10.319  18.957  0.00  0.00    +0.000 A 
ATOM     14  C   UNL     1       1.695   9.734  17.971  0.00  0.00    +0.000 A 
ATOM     15  C   UNL     1       2.276   8.484  18.196  0.00  0.00    +0.000 A 
ATOM     16  C   UNL     1       2.069   7.813  19.409  0.00  0.00    +0.000 A 
ATOM     17  C   UNL     1       1.251   8.396  20.385  0.00  0.00    +0.000 A 
ATOM     18  C   UNL     1       0.673   9.647  20.156  0.00  0.00    +0.000 A 
ATOM     19  H   UNL     1      -1.388   9.883  24.089  0.00  0.00    +0.000 HD
ENDROOT
BRANCH  16  20
ATOM     20  C   UNL     1       2.776   6.511  19.690  0.00  0.00    +0.000 C 
BRANCH  20  21
ATOM     21  N   UNL     1       1.829   5.434  19.945  0.00  0.00    +0.000 NA
ATOM     22  H   UNL     1       0.977   5.616  19.415  0.00  0.00    +0.000 HD
BRANCH  21  23
ATOM     23  C   UNL     1       2.328   4.097  19.621  0.00  0.00    +0.000 C 
ATOM     24  C   UNL     1       1.864   3.588  18.248  0.00  0.00    +0.000 C 
ATOM     25  C   UNL     1       2.253   2.127  18.066  0.00  0.00    +0.000 C 
ATOM     26  C   UNL     1       3.751   1.897  18.278  0.00  0.00    +0.000 C 
ATOM     27  C   UNL     1       4.291   2.532  19.561  0.00  0.00    +0.000 C 
ATOM     28  C   UNL     1       3.857   3.987  19.721  0.00  0.00    +0.000 C 
BRANCH  26  29
ATOM     29  O   UNL     1       4.000   0.496  18.311  0.00  0.00    +0.000 OA
ATOM     30  H   UNL     1       4.420   0.288  19.164  0.00  0.00    +0.000 HD
ENDBRANCH  26  29
ENDBRANCH  21  23
ENDBRANCH  20  21
ENDBRANCH  16  20
TORSDOF 4
ENDMDL
MODEL 8
REMARK VINA RESULT:      -8.0      1.624      1.979
REMARK  Name = 
REMARK  4 active torsions:
REMARK  status: ('A' for Active; 'I' for Inactive)
REMARK    1  A    between atoms: C_16  and  C_17
REMARK    2  A    between atoms: C_17  and  N_18
REMARK    3  A    between atoms: N_18  and  C_19
REMARK    4  A    between atoms: C_22  and  O_23
REMARK                            x       y       z     vdW  Elec       q    Type
REMARK                         _______ _______ _______ _____ _____    ______ ____
ROOT
ATOM      1  O   UNL     1       1.322  12.420  18.358  0.00  0.00    +0.000 OA
ATOM      2  C   UNL     1       1.446  11.222  18.595  0.00  0.00    +0.000 A 
ATOM      3  N   UNL     1       2.018  10.342  17.705  0.00  0.00    +0.000 N 
ATOM      4  N   UNL     1       2.193   9.001  17.897  0.00  0.00    +0.000 NA
ATOM      5  C   UNL     1       1.784   8.493  19.022  0.00  0.00    +0.000 A 
ATOM      6  C   UNL     1       1.152   9.285  20.069  0.00  0.00    +0.000 A 
ATOM      7  C   UNL     1       0.730   8.681  21.245  0.00  0.00    +0.000 A 
ATOM      8  C   UNL     1       0.124   9.454  22.234  0.00  0.00    +0.000 A 
ATOM      9  C   UNL     1      -0.056  10.824  22.038  0.00  0.00    +0.000 A 
ATOM     10  C   UNL     1       0.376  11.426  20.850  0.00  0.00    +0.000 A 
ATOM     11  C   UNL     1       0.979  10.646  19.863  0.00  0.00    +0.000 A 
ATOM     12  O   UNL     1       0.884   7.344  21.502  0.00  0.00    +0.000 OA
ATOM     13  C   UNL     1       1.481   6.566  20.535  0.00  0.00    +0.000 A 
ATOM     14  C   UNL     1       1.612   5.211  20.834  0.00  0.00    +0.000 A 
ATOM     15  C   UNL     1       2.179   4.344  19.898  0.00  0.00    +0.000 A 
ATOM     16  C   UNL     1       2.617   4.826  18.656  0.00  0.00    +0.000 A 
ATOM     17  C   UNL     1       2.504   6.194  18.373  0.00  0.00    +0.000 A 
ATOM     18  C   UNL     1       1.935   7.056  19.312  0.00  0.00    +0.000 A 
ATOM     19  H   UNL     1       2.348  10.716  16.821  0.00  0.00    +0.000 HD
ENDROOT
BRANCH  16  20
ATOM     20  C   UNL     1       3.137   3.874  17.609  0.00  0.00    +0.000 C 
BRANCH  20  21
ATOM     21  N   UNL     1       4.577   3.684  17.730  0.00  0.00    +0.000 NA
ATOM     22  H   UNL     1       4.773   2.684  17.760  0.00  0.00    +0.000 HD
BRANCH  21  23
ATOM     23  C   UNL     1       5.362   4.302  16.661  0.00  0.00    +0.000 C 
ATOM     24  C   UNL     1       6.780   4.702  17.097  0.00  0.00    +0.000 C 
ATOM     25  C   UNL     1       7.461   5.510  16.001  0.00  0.00    +0.000 C 
ATOM     26  C   UNL     1       7.470   4.775  14.660  0.00  0.00    +0.000 C 
ATOM     27  C   UNL     1       6.102   4.213  14.263  0.00  0.00    +0.000 C 
ATOM     28  C   UNL     1       5.438   3.434  15.395  0.00  0.00    +0.000 C 
BRANCH  26  29
ATOM     29  O   UNL     1       7.918   5.670  13.648  0.00  0.00    +0.000 OA
ATOM     30  H   UNL     1       7.692   5.281  12.784  0.00  0.00    +0.000 HD
ENDBRANCH  26  29
ENDBRANCH  21  23
ENDBRANCH  20  21
ENDBRANCH  16  20
TORSDOF 4
ENDMDL
MODEL 9
REMARK VINA RESULT:      -7.9      3.199      8.267
REMARK  Name = 
REMARK  4 active torsions:
REMARK  status: ('A' for Active; 'I' for Inactive)
REMARK    1  A    between atoms: C_16  and  C_17
REMARK    2  A    between atoms: C_17  and  N_18
REMARK    3  A    between atoms: N_18  and  C_19
REMARK    4  A    between atoms: C_22  and  O_23
REMARK                            x       y       z     vdW  Elec       q    Type
REMARK                         _______ _______ _______ _____ _____    ______ ____
ROOT
ATOM      1  O   UNL     1       2.374   1.781  21.858  0.00  0.00    +0.000 OA
ATOM      2  C   UNL     1       2.371   2.848  21.252  0.00  0.00    +0.000 A 
ATOM      3  N   UNL     1       1.833   4.001  21.777  0.00  0.00    +0.000 N 
ATOM      4  N   UNL     1       1.794   5.222  21.166  0.00  0.00    +0.000 NA
ATOM      5  C   UNL     1       2.309   5.320  19.976  0.00  0.00    +0.000 A 
ATOM      6  C   UNL     1       2.914   4.194  19.276  0.00  0.00    +0.000 A 
ATOM      7  C   UNL     1       3.439   4.363  18.003  0.00  0.00    +0.000 A 
ATOM      8  C   UNL     1       4.010   3.273  17.347  0.00  0.00    +0.000 A 
ATOM      9  C   UNL     1       4.050   2.025  17.970  0.00  0.00    +0.000 A 
ATOM     10  C   UNL     1       3.519   1.865  19.256  0.00  0.00    +0.000 A 
ATOM     11  C   UNL     1       2.946   2.959  19.905  0.00  0.00    +0.000 A 
ATOM     12  O   UNL     1       3.439   5.562  17.340  0.00  0.00    +0.000 OA
ATOM     13  C   UNL     1       2.879   6.648  17.975  0.00  0.00    +0.000 A 
ATOM     14  C   UNL     1       2.893   7.848  17.264  0.00  0.00    +0.000 A 
ATOM     15  C   UNL     1       2.320   8.993  17.819  0.00  0.00    +0.000 A 
ATOM     16  C   UNL     1       1.726   8.946  19.089  0.00  0.00    +0.000 A 
ATOM     17  C   UNL     1       1.737   7.743  19.807  0.00  0.00    +0.000 A 
ATOM     18  C   UNL     1       2.311   6.600  19.246  0.00  0.00    +0.000 A 
ATOM     19  H   UNL     1       1.428   3.950  22.706  0.00  0.00    +0.000 HD
ENDROOT
BRANCH  16  20
ATOM     20  C   UNL     1       1.020  10.157  19.645  0.00  0.00    +0.000 C 
BRANCH  20  21
ATOM     21  N   UNL     1       0.358  10.918  18.594  0.00  0.00    +0.000 NA
ATOM     22  H   UNL     1       0.733  10.625  17.692  0.00  0.00    +0.000 HD
BRANCH  21  23
ATOM     23  C   UNL     1      -1.100  10.790  18.579  0.00  0.00    +0.000 C 
ATOM     24  C   UNL     1      -1.832  12.137  18.683  0.00  0.00    +0.000 C 
ATOM     25  C   UNL     1      -3.328  11.913  18.860  0.00  0.00    +0.000 C 
ATOM     26  C   UNL     1      -3.917  11.033  17.756  0.00  0.00    +0.000 C 
ATOM     27  C   UNL     1      -3.119   9.752  17.505  0.00  0.00    +0.000 C 
ATOM     28  C   UNL     1      -1.622  10.013  17.360  0.00  0.00    +0.000 C 
BRANCH  26  29
ATOM     29  O   UNL     1      -5.253  10.690  18.105  0.00  0.00    +0.000 OA
ATOM     30  H   UNL     1      -5.814  11.467  17.936  0.00  0.00    +0.000 HD
ENDBRANCH  26  29
ENDBRANCH  21  23
ENDBRANCH  20  21
ENDBRANCH  16  20
TORSDOF 4
ENDMDL
