MODEL 1
REMARK VINA RESULT:      -6.8      0.000      0.000
REMARK  Name = 
REMARK  1 active torsions:
REMARK  status: ('A' for Active; 'I' for Inactive)
REMARK    1  A    between atoms: C_8  and  N_9
REMARK                            x       y       z     vdW  Elec       q    Type
REMARK                         _______ _______ _______ _____ _____    ______ ____
ROOT
ATOM      1  F   UNL     1       1.928   4.616  17.887  0.00  0.00    +0.000 F 
ATOM      2  C   UNL     1       2.116   3.949  19.052  0.00  0.00    +0.000 A 
ATOM      3  C   UNL     1       1.099   3.946  20.014  0.00  0.00    +0.000 A 
ATOM      4  C   UNL     1       1.273   3.261  21.219  0.00  0.00    +0.000 A 
ATOM      5  C   UNL     1       2.473   2.598  21.475  0.00  0.00    +0.000 A 
ATOM      6  C   UNL     1       3.495   2.600  20.525  0.00  0.00    +0.000 A 
ATOM      7  F   UNL     1       4.665   1.988  20.840  0.00  0.00    +0.000 F 
ATOM      8  C   UNL     1       3.317   3.256  19.285  0.00  0.00    +0.000 A 
ENDROOT
BRANCH   8   9
ATOM      9  N   UNL     1       4.332   3.280  18.287  0.00  0.00    +0.000 NA
ATOM     10  C   UNL     1       5.388   4.028  18.301  0.00  0.00    +0.000 C 
ATOM     11  N   UNL     1       6.281   4.105  17.228  0.00  0.00    +0.000 N 
ATOM     12  C   UNL     1       7.245   5.141  17.504  0.00  0.00    +0.000 C 
ATOM     13  C   UNL     1       7.016   5.521  18.989  0.00  0.00    +0.000 C 
ATOM     14  N   UNL     1       5.798   4.851  19.363  0.00  0.00    +0.000 N 
ATOM     15  H   UNL     1       6.171   3.620  16.325  0.00  0.00    +0.000 HD
ATOM     16  H   UNL     1       5.387   4.888  20.306  0.00  0.00    +0.000 HD
ENDBRANCH   8   9
TORSDOF 1
ENDMDL
MODEL 2
REMARK VINA RESULT:      -6.7      1.644      1.887
REMARK  Name = 
REMARK  1 active torsions:
REMARK  status: ('A' for Active; 'I' for Inactive)
REMARK    1  A    between atoms: C_8  and  N_9
REMARK                            x       y       z     vdW  Elec       q    Type
REMARK                         _______ _______ _______ _____ _____    ______ ____
ROOT
ATOM      1  F   UNL     1       3.227   5.478  20.474  0.00  0.00    +0.000 F 
ATOM      2  C   UNL     1       2.704   4.330  19.977  0.00  0.00    +0.000 A 
ATOM      3  C   UNL     1       1.323   4.111  20.059  0.00  0.00    +0.000 A 
ATOM      4  C   UNL     1       0.766   2.937  19.548  0.00  0.00    +0.000 A 
ATOM      5  C   UNL     1       1.589   1.968  18.976  0.00  0.00    +0.000 A 
ATOM      6  C   UNL     1       2.967   2.174  18.895  0.00  0.00    +0.000 A 
ATOM      7  F   UNL     1       3.735   1.180  18.380  0.00  0.00    +0.000 F 
ATOM      8  C   UNL     1       3.539   3.375  19.372  0.00  0.00    +0.000 A 
ENDROOT
BRANCH   8   9
ATOM      9  N   UNL     1       4.940   3.627  19.306  0.00  0.00    +0.000 NA
ATOM     10  C   UNL     1       5.569   4.135  18.296  0.00  0.00    +0.000 C 
ATOM     11  N   UNL     1       6.962   4.234  18.239  0.00  0.00    +0.000 N 
ATOM     12  C   UNL     1       7.338   4.691  16.923  0.00  0.00    +0.000 C 
ATOM     13  C   UNL     1       6.010   5.123  16.251  0.00  0.00    +0.000 C 
ATOM     14  N   UNL     1       4.974   4.658  17.136  0.00  0.00    +0.000 N 
ATOM     15  H   UNL     1       7.615   3.885  18.957  0.00  0.00    +0.000 HD
ATOM     16  H   UNL     1       3.969   4.813  16.977  0.00  0.00    +0.000 HD
ENDBRANCH   8   9
TORSDOF 1
ENDMDL
MODEL 3
REMARK VINA RESULT:      -6.7      1.663      2.160
REMARK  Name = 
REMARK  1 active torsions:
REMARK  status: ('A' for Active; 'I' for Inactive)
REMARK    1  A    between atoms: C_8  and  N_9
REMARK                            x       y       z     vdW  Elec       q    Type
REMARK                         _______ _______ _______ _____ _____    ______ ____
ROOT
ATOM      1  F   UNL     1       3.673   1.354  18.093  0.00  0.00    +0.000 F 
ATOM      2  C   UNL     1       2.898   2.248  18.756  0.00  0.00    +0.000 A 
ATOM      3  C   UNL     1       1.516   2.040  18.826  0.00  0.00    +0.000 A 
ATOM      4  C   UNL     1       0.702   2.947  19.508  0.00  0.00    +0.000 A 
ATOM      5  C   UNL     1       1.265   4.077  20.100  0.00  0.00    +0.000 A 
ATOM      6  C   UNL     1       2.641   4.296  20.031  0.00  0.00    +0.000 A 
ATOM      7  F   UNL     1       3.138   5.437  20.575  0.00  0.00    +0.000 F 
ATOM      8  C   UNL     1       3.481   3.365  19.378  0.00  0.00    +0.000 A 
ENDROOT
BRANCH   8   9
ATOM      9  N   UNL     1       4.891   3.549  19.287  0.00  0.00    +0.000 NA
ATOM     10  C   UNL     1       5.511   4.181  18.344  0.00  0.00    +0.000 C 
ATOM     11  N   UNL     1       6.905   4.214  18.238  0.00  0.00    +0.000 N 
ATOM     12  C   UNL     1       7.258   4.859  16.997  0.00  0.00    +0.000 C 
ATOM     13  C   UNL     1       5.934   5.467  16.468  0.00  0.00    +0.000 C 
ATOM     14  N   UNL     1       4.906   4.919  17.314  0.00  0.00    +0.000 N 
ATOM     15  H   UNL     1       7.561   3.717  18.858  0.00  0.00    +0.000 HD
ATOM     16  H   UNL     1       3.906   5.151  17.229  0.00  0.00    +0.000 HD
ENDBRANCH   8   9
TORSDOF 1
ENDMDL
MODEL 4
REMARK VINA RESULT:      -6.7      0.469      2.270
REMARK  Name = 
REMARK  1 active torsions:
REMARK  status: ('A' for Active; 'I' for Inactive)
REMARK    1  A    between atoms: C_8  and  N_9
REMARK                            x       y       z     vdW  Elec       q    Type
REMARK                         _______ _______ _______ _____ _____    ______ ____
ROOT
ATOM      1  F   UNL     1       4.538   1.838  20.291  0.00  0.00    +0.000 F 
ATOM      2  C   UNL     1       3.433   2.620  20.219  0.00  0.00    +0.000 A 
ATOM      3  C   UNL     1       2.565   2.687  21.315  0.00  0.00    +0.000 A 
ATOM      4  C   UNL     1       1.425   3.491  21.261  0.00  0.00    +0.000 A 
ATOM      5  C   UNL     1       1.136   4.211  20.102  0.00  0.00    +0.000 A 
ATOM      6  C   UNL     1       1.991   4.146  19.002  0.00  0.00    +0.000 A 
ATOM      7  F   UNL     1       1.642   4.820  17.876  0.00  0.00    +0.000 F 
ATOM      8  C   UNL     1       3.170   3.368  19.058  0.00  0.00    +0.000 A 
ENDROOT
BRANCH   8   9
ATOM      9  N   UNL     1       4.072   3.277  17.959  0.00  0.00    +0.000 NA
ATOM     10  C   UNL     1       5.219   3.869  17.872  0.00  0.00    +0.000 C 
ATOM     11  N   UNL     1       6.000   3.848  16.713  0.00  0.00    +0.000 N 
ATOM     12  C   UNL     1       7.125   4.732  16.900  0.00  0.00    +0.000 C 
ATOM     13  C   UNL     1       7.104   5.099  18.405  0.00  0.00    +0.000 C 
ATOM     14  N   UNL     1       5.848   4.596  18.896  0.00  0.00    +0.000 N 
ATOM     15  H   UNL     1       5.731   3.408  15.820  0.00  0.00    +0.000 HD
ATOM     16  H   UNL     1       5.544   4.665  19.877  0.00  0.00    +0.000 HD
ENDBRANCH   8   9
TORSDOF 1
ENDMDL
MODEL 5
REMARK VINA RESULT:      -6.6      1.465      2.646
REMARK  Name = 
REMARK  1 active torsions:
REMARK  status: ('A' for Active; 'I' for Inactive)
REMARK    1  A    between atoms: C_8  and  N_9
REMARK                            x       y       z     vdW  Elec       q    Type
REMARK                         _______ _______ _______ _____ _____    ______ ____
ROOT
ATOM      1  F   UNL     1       4.739   2.217  20.037  0.00  0.00    +0.000 F 
ATOM      2  C   UNL     1       3.481   2.722  20.007  0.00  0.00    +0.000 A 
ATOM      3  C   UNL     1       2.702   2.696  21.170  0.00  0.00    +0.000 A 
ATOM      4  C   UNL     1       1.406   3.216  21.159  0.00  0.00    +0.000 A 
ATOM      5  C   UNL     1       0.876   3.740  19.981  0.00  0.00    +0.000 A 
ATOM      6  C   UNL     1       1.643   3.765  18.815  0.00  0.00    +0.000 A 
ATOM      7  F   UNL     1       1.067   4.234  17.678  0.00  0.00    +0.000 F 
ATOM      8  C   UNL     1       2.971   3.279  18.822  0.00  0.00    +0.000 A 
ENDROOT
BRANCH   8   9
ATOM      9  N   UNL     1       3.788   3.288  17.655  0.00  0.00    +0.000 NA
ATOM     10  C   UNL     1       4.368   4.327  17.147  0.00  0.00    +0.000 C 
ATOM     11  N   UNL     1       5.047   4.298  15.926  0.00  0.00    +0.000 N 
ATOM     12  C   UNL     1       5.429   5.646  15.579  0.00  0.00    +0.000 C 
ATOM     13  C   UNL     1       5.146   6.486  16.851  0.00  0.00    +0.000 C 
ATOM     14  N   UNL     1       4.413   5.607  17.724  0.00  0.00    +0.000 N 
ATOM     15  H   UNL     1       5.119   3.481  15.303  0.00  0.00    +0.000 HD
ATOM     16  H   UNL     1       4.095   5.867  18.668  0.00  0.00    +0.000 HD
ENDBRANCH   8   9
TORSDOF 1
ENDMDL
MODEL 6
REMARK VINA RESULT:      -6.5      1.434      2.372
REMARK  Name = 
REMARK  1 active torsions:
REMARK  status: ('A' for Active; 'I' for Inactive)
REMARK    1  A    between atoms: C_8  and  N_9
REMARK                            x       y       z     vdW  Elec       q    Type
REMARK                         _______ _______ _______ _____ _____    ______ ____
ROOT
ATOM      1  F   UNL     1       3.410   1.197  18.293  0.00  0.00    +0.000 F 
ATOM      2  C   UNL     1       2.786   2.290  18.797  0.00  0.00    +0.000 A 
ATOM      3  C   UNL     1       1.963   2.154  19.922  0.00  0.00    +0.000 A 
ATOM      4  C   UNL     1       1.316   3.270  20.459  0.00  0.00    +0.000 A 
ATOM      5  C   UNL     1       1.470   4.519  19.858  0.00  0.00    +0.000 A 
ATOM      6  C   UNL     1       2.283   4.664  18.733  0.00  0.00    +0.000 A 
ATOM      7  F   UNL     1       2.359   5.887  18.149  0.00  0.00    +0.000 F 
ATOM      8  C   UNL     1       2.975   3.550  18.203  0.00  0.00    +0.000 A 
ENDROOT
BRANCH   8   9
ATOM      9  N   UNL     1       3.817   3.654  17.059  0.00  0.00    +0.000 NA
ATOM     10  C   UNL     1       5.069   3.981  17.069  0.00  0.00    +0.000 C 
ATOM     11  N   UNL     1       5.808   4.197  15.902  0.00  0.00    +0.000 N 
ATOM     12  C   UNL     1       7.110   4.699  16.269  0.00  0.00    +0.000 C 
ATOM     13  C   UNL     1       7.195   4.518  17.806  0.00  0.00    +0.000 C 
ATOM     14  N   UNL     1       5.862   4.157  18.214  0.00  0.00    +0.000 N 
ATOM     15  H   UNL     1       5.433   4.161  14.943  0.00  0.00    +0.000 HD
ATOM     16  H   UNL     1       5.596   3.945  19.186  0.00  0.00    +0.000 HD
ENDBRANCH   8   9
TORSDOF 1
ENDMDL
MODEL 7
REMARK VINA RESULT:      -6.5      1.452      2.465
REMARK  Name = 
REMARK  1 active torsions:
REMARK  status: ('A' for Active; 'I' for Inactive)
REMARK    1  A    between atoms: C_8  and  N_9
REMARK                            x       y       z     vdW  Elec       q    Type
REMARK                         _______ _______ _______ _____ _____    ______ ____
ROOT
ATOM      1  F   UNL     1       4.106   1.601  19.639  0.00  0.00    +0.000 F 
ATOM      2  C   UNL     1       3.314   2.680  19.860  0.00  0.00    +0.000 A 
ATOM      3  C   UNL     1       1.976   2.487  20.226  0.00  0.00    +0.000 A 
ATOM      4  C   UNL     1       1.148   3.586  20.463  0.00  0.00    +0.000 A 
ATOM      5  C   UNL     1       1.647   4.879  20.311  0.00  0.00    +0.000 A 
ATOM      6  C   UNL     1       2.977   5.081  19.941  0.00  0.00    +0.000 A 
ATOM      7  F   UNL     1       3.404   6.356  19.752  0.00  0.00    +0.000 F 
ATOM      8  C   UNL     1       3.838   3.978  19.737  0.00  0.00    +0.000 A 
ENDROOT
BRANCH   8   9
ATOM      9  N   UNL     1       5.202   4.139  19.362  0.00  0.00    +0.000 NA
ATOM     10  C   UNL     1       5.637   4.339  18.160  0.00  0.00    +0.000 C 
ATOM     11  N   UNL     1       6.997   4.356  17.836  0.00  0.00    +0.000 N 
ATOM     12  C   UNL     1       7.127   4.438  16.401  0.00  0.00    +0.000 C 
ATOM     13  C   UNL     1       5.699   4.741  15.883  0.00  0.00    +0.000 C 
ATOM     14  N   UNL     1       4.841   4.570  17.026  0.00  0.00    +0.000 N 
ATOM     15  H   UNL     1       7.769   4.175  18.494  0.00  0.00    +0.000 HD
ATOM     16  H   UNL     1       3.823   4.723  17.011  0.00  0.00    +0.000 HD
ENDBRANCH   8   9
TORSDOF 1
ENDMDL
MODEL 8
REMARK VINA RESULT:      -6.5      1.387      2.792
REMARK  Name = 
REMARK  1 active torsions:
REMARK  status: ('A' for Active; 'I' for Inactive)
REMARK    1  A    between atoms: C_8  and  N_9
REMARK                            x       y       z     vdW  Elec       q    Type
REMARK                         _______ _______ _______ _____ _____    ______ ____
ROOT
ATOM      1  F   UNL     1       4.189   2.210  20.484  0.00  0.00    +0.000 F 
ATOM      2  C   UNL     1       3.253   2.771  19.680  0.00  0.00    +0.000 A 
ATOM      3  C   UNL     1       2.120   2.030  19.323  0.00  0.00    +0.000 A 
ATOM      4  C   UNL     1       1.143   2.594  18.499  0.00  0.00    +0.000 A 
ATOM      5  C   UNL     1       1.308   3.890  18.011  0.00  0.00    +0.000 A 
ATOM      6  C   UNL     1       2.436   4.634  18.356  0.00  0.00    +0.000 A 
ATOM      7  F   UNL     1       2.581   5.870  17.814  0.00  0.00    +0.000 F 
ATOM      8  C   UNL     1       3.414   4.090  19.222  0.00  0.00    +0.000 A 
ENDROOT
BRANCH   8   9
ATOM      9  N   UNL     1       4.579   4.816  19.602  0.00  0.00    +0.000 NA
ATOM     10  C   UNL     1       5.697   4.845  18.952  0.00  0.00    +0.000 C 
ATOM     11  N   UNL     1       6.847   5.468  19.444  0.00  0.00    +0.000 N 
ATOM     12  C   UNL     1       7.946   5.176  18.555  0.00  0.00    +0.000 C 
ATOM     13  C   UNL     1       7.294   4.525  17.309  0.00  0.00    +0.000 C 
ATOM     14  N   UNL     1       5.926   4.282  17.686  0.00  0.00    +0.000 N 
ATOM     15  H   UNL     1       6.933   5.919  20.367  0.00  0.00    +0.000 HD
ATOM     16  H   UNL     1       5.220   3.872  17.058  0.00  0.00    +0.000 HD
ENDBRANCH   8   9
TORSDOF 1
ENDMDL
MODEL 9
REMARK VINA RESULT:      -6.5      1.318      1.724
REMARK  Name = 
REMARK  1 active torsions:
REMARK  status: ('A' for Active; 'I' for Inactive)
REMARK    1  A    between atoms: C_8  and  N_9
REMARK                            x       y       z     vdW  Elec       q    Type
REMARK                         _______ _______ _______ _____ _____    ______ ____
ROOT
ATOM      1  F   UNL     1       2.688   5.777  17.759  0.00  0.00    +0.000 F 
ATOM      2  C   UNL     1       2.454   4.576  18.343  0.00  0.00    +0.000 A 
ATOM      3  C   UNL     1       1.307   3.853  17.992  0.00  0.00    +0.000 A 
ATOM      4  C   UNL     1       1.052   2.611  18.579  0.00  0.00    +0.000 A 
ATOM      5  C   UNL     1       1.929   2.101  19.536  0.00  0.00    +0.000 A 
ATOM      6  C   UNL     1       3.071   2.817  19.897  0.00  0.00    +0.000 A 
ATOM      7  F   UNL     1       3.866   2.308  20.873  0.00  0.00    +0.000 F 
ATOM      8  C   UNL     1       3.362   4.056  19.281  0.00  0.00    +0.000 A 
ENDROOT
BRANCH   8   9
ATOM      9  N   UNL     1       4.517   4.818  19.618  0.00  0.00    +0.000 NA
ATOM     10  C   UNL     1       5.629   4.838  18.956  0.00  0.00    +0.000 C 
ATOM     11  N   UNL     1       6.773   5.501  19.409  0.00  0.00    +0.000 N 
ATOM     12  C   UNL     1       7.867   5.190  18.521  0.00  0.00    +0.000 C 
ATOM     13  C   UNL     1       7.214   4.475  17.311  0.00  0.00    +0.000 C 
ATOM     14  N   UNL     1       5.855   4.225  17.712  0.00  0.00    +0.000 N 
ATOM     15  H   UNL     1       6.860   5.992  20.311  0.00  0.00    +0.000 HD
ATOM     16  H   UNL     1       5.150   3.778  17.110  0.00  0.00    +0.000 HD
ENDBRANCH   8   9
TORSDOF 1
ENDMDL
