MODEL 1
REMARK VINA RESULT:      -8.1      0.000      0.000
REMARK  Name = 
REMARK  7 active torsions:
REMARK  status: ('A' for Active; 'I' for Inactive)
REMARK    1  A    between atoms: C_1  and  C_2
REMARK    2  A    between atoms: C_2  and  O_3
REMARK    3  A    between atoms: O_3  and  C_4
REMARK    4  A    between atoms: C_4  and  C_6
REMARK    5  A    between atoms: C_11  and  C_12
REMARK    6  A    between atoms: C_13  and  C_14
REMARK    7  A    between atoms: C_14  and  C_15
REMARK                            x       y       z     vdW  Elec       q    Type
REMARK                         _______ _______ _______ _____ _____    ______ ____
ROOT
ATOM      1  C   UNL     1       5.508   5.141  15.755  0.00  0.00    +0.000 A 
ATOM      2  C   UNL     1       5.370   6.477  16.126  0.00  0.00    +0.000 A 
ATOM      3  C   UNL     1       4.492   6.822  17.153  0.00  0.00    +0.000 A 
ATOM      4  C   UNL     1       3.751   5.869  17.839  0.00  0.00    +0.000 A 
ATOM      5  N   UNL     1       2.966   6.292  18.834  0.00  0.00    +0.000 NA
ATOM      6  C   UNL     1       2.281   5.393  19.581  0.00  0.00    +0.000 A 
ATOM      7  C   UNL     1       1.469   6.002  20.687  0.00  0.00    +0.000 C 
ATOM      8  C   UNL     1       2.347   4.015  19.360  0.00  0.00    +0.000 A 
ATOM      9  C   UNL     1       3.124   3.595  18.262  0.00  0.00    +0.000 A 
ATOM     10 CL   UNL     1       3.201   1.896  17.870  0.00  0.00    +0.000 Cl
ATOM     11  C   UNL     1       3.869   4.517  17.482  0.00  0.00    +0.000 A 
ATOM     12  C   UNL     1       4.743   4.171  16.417  0.00  0.00    +0.000 A 
ENDROOT
BRANCH   1  13
ATOM     13  C   UNL     1       6.518   4.687  14.767  0.00  0.00    +0.000 C 
ATOM     14  O   UNL     1       7.556   5.283  14.539  0.00  0.00    +0.000 OA
BRANCH  13  15
ATOM     15  O   UNL     1       6.033   3.626  14.076  0.00  0.00    +0.000 OA
BRANCH  15  17
ATOM     16  C   UNL     1       5.048   3.235  11.938  0.00  0.00    +0.000 C 
ATOM     17  C   UNL     1       6.319   3.627  12.671  0.00  0.00    +0.000 C 
ENDBRANCH  15  17
ENDBRANCH  13  15
ENDBRANCH   1  13
BRANCH   8  18
ATOM     18  C   UNL     1       1.662   3.033  20.283  0.00  0.00    +0.000 C 
ATOM     19  C   UNL     1       2.467   2.674  21.522  0.00  0.00    +0.000 C 
ENDBRANCH   8  18
TORSDOF 4
ENDMDL
MODEL 2
REMARK VINA RESULT:      -7.5      1.053      1.168
REMARK  Name = 
REMARK  7 active torsions:
REMARK  status: ('A' for Active; 'I' for Inactive)
REMARK    1  A    between atoms: C_1  and  C_2
REMARK    2  A    between atoms: C_2  and  O_3
REMARK    3  A    between atoms: O_3  and  C_4
REMARK    4  A    between atoms: C_4  and  C_6
REMARK    5  A    between atoms: C_11  and  C_12
REMARK    6  A    between atoms: C_13  and  C_14
REMARK    7  A    between atoms: C_14  and  C_15
REMARK                            x       y       z     vdW  Elec       q    Type
REMARK                         _______ _______ _______ _____ _____    ______ ____
ROOT
ATOM      1  C   UNL     1       5.702   5.245  16.413  0.00  0.00    +0.000 A 
ATOM      2  C   UNL     1       5.184   6.532  16.285  0.00  0.00    +0.000 A 
ATOM      3  C   UNL     1       4.178   6.962  17.151  0.00  0.00    +0.000 A 
ATOM      4  C   UNL     1       3.678   6.148  18.160  0.00  0.00    +0.000 A 
ATOM      5  N   UNL     1       2.744   6.661  18.965  0.00  0.00    +0.000 NA
ATOM      6  C   UNL     1       2.280   5.933  20.009  0.00  0.00    +0.000 A 
ATOM      7  C   UNL     1       1.261   6.644  20.852  0.00  0.00    +0.000 C 
ATOM      8  C   UNL     1       2.731   4.642  20.294  0.00  0.00    +0.000 A 
ATOM      9  C   UNL     1       3.664   4.093  19.392  0.00  0.00    +0.000 A 
ATOM     10 CL   UNL     1       4.224   2.457  19.632  0.00  0.00    +0.000 Cl
ATOM     11  C   UNL     1       4.182   4.846  18.307  0.00  0.00    +0.000 A 
ATOM     12  C   UNL     1       5.185   4.402  17.406  0.00  0.00    +0.000 A 
ENDROOT
BRANCH   1  13
ATOM     13  C   UNL     1       6.861   4.769  15.617  0.00  0.00    +0.000 C 
ATOM     14  O   UNL     1       7.923   4.431  16.107  0.00  0.00    +0.000 OA
BRANCH  13  15
ATOM     15  O   UNL     1       6.597   4.920  14.295  0.00  0.00    +0.000 OA
BRANCH  15  17
ATOM     16  C   UNL     1       6.454   3.599  12.313  0.00  0.00    +0.000 C 
ATOM     17  C   UNL     1       5.864   3.847  13.691  0.00  0.00    +0.000 C 
ENDBRANCH  15  17
ENDBRANCH  13  15
ENDBRANCH   1  13
BRANCH   8  18
ATOM     18  C   UNL     1       2.277   3.902  21.532  0.00  0.00    +0.000 C 
ATOM     19  C   UNL     1       1.215   2.845  21.274  0.00  0.00    +0.000 C 
ENDBRANCH   8  18
TORSDOF 4
ENDMDL
MODEL 3
REMARK VINA RESULT:      -7.1      2.682      4.075
REMARK  Name = 
REMARK  7 active torsions:
REMARK  status: ('A' for Active; 'I' for Inactive)
REMARK    1  A    between atoms: C_1  and  C_2
REMARK    2  A    between atoms: C_2  and  O_3
REMARK    3  A    between atoms: O_3  and  C_4
REMARK    4  A    between atoms: C_4  and  C_6
REMARK    5  A    between atoms: C_11  and  C_12
REMARK    6  A    between atoms: C_13  and  C_14
REMARK    7  A    between atoms: C_14  and  C_15
REMARK                            x       y       z     vdW  Elec       q    Type
REMARK                         _______ _______ _______ _____ _____    ______ ____
ROOT
ATOM      1  C   UNL     1       5.895   3.732  12.893  0.00  0.00    +0.000 A 
ATOM      2  C   UNL     1       7.063   4.485  12.793  0.00  0.00    +0.000 A 
ATOM      3  C   UNL     1       7.557   5.147  13.917  0.00  0.00    +0.000 A 
ATOM      4  C   UNL     1       6.927   5.071  15.152  0.00  0.00    +0.000 A 
ATOM      5  N   UNL     1       7.497   5.707  16.179  0.00  0.00    +0.000 NA
ATOM      6  C   UNL     1       6.963   5.601  17.419  0.00  0.00    +0.000 A 
ATOM      7  C   UNL     1       7.724   6.336  18.485  0.00  0.00    +0.000 C 
ATOM      8  C   UNL     1       5.817   4.849  17.689  0.00  0.00    +0.000 A 
ATOM      9  C   UNL     1       5.191   4.244  16.581  0.00  0.00    +0.000 A 
ATOM     10 CL   UNL     1       3.712   3.347  16.819  0.00  0.00    +0.000 Cl
ATOM     11  C   UNL     1       5.748   4.321  15.279  0.00  0.00    +0.000 A 
ATOM     12  C   UNL     1       5.232   3.671  14.127  0.00  0.00    +0.000 A 
ENDROOT
BRANCH   1  13
ATOM     13  C   UNL     1       5.387   2.895  11.778  0.00  0.00    +0.000 C 
ATOM     14  O   UNL     1       5.676   1.722  11.628  0.00  0.00    +0.000 OA
BRANCH  13  15
ATOM     15  O   UNL     1       4.701   3.672  10.903  0.00  0.00    +0.000 OA
BRANCH  15  17
ATOM     16  C   UNL     1       2.794   4.159   9.554  0.00  0.00    +0.000 C 
ATOM     17  C   UNL     1       3.358   3.251  10.632  0.00  0.00    +0.000 C 
ENDBRANCH  15  17
ENDBRANCH  13  15
ENDBRANCH   1  13
BRANCH   8  18
ATOM     18  C   UNL     1       5.312   4.657  19.102  0.00  0.00    +0.000 C 
ATOM     19  C   UNL     1       4.146   5.559  19.477  0.00  0.00    +0.000 C 
ENDBRANCH   8  18
TORSDOF 4
ENDMDL
MODEL 4
REMARK VINA RESULT:      -6.8      0.974      1.201
REMARK  Name = 
REMARK  7 active torsions:
REMARK  status: ('A' for Active; 'I' for Inactive)
REMARK    1  A    between atoms: C_1  and  C_2
REMARK    2  A    between atoms: C_2  and  O_3
REMARK    3  A    between atoms: O_3  and  C_4
REMARK    4  A    between atoms: C_4  and  C_6
REMARK    5  A    between atoms: C_11  and  C_12
REMARK    6  A    between atoms: C_13  and  C_14
REMARK    7  A    between atoms: C_14  and  C_15
REMARK                            x       y       z     vdW  Elec       q    Type
REMARK                         _______ _______ _______ _____ _____    ______ ____
ROOT
ATOM      1  C   UNL     1       5.184   5.121  15.876  0.00  0.00    +0.000 A 
ATOM      2  C   UNL     1       5.271   6.460  16.251  0.00  0.00    +0.000 A 
ATOM      3  C   UNL     1       4.479   6.939  17.294  0.00  0.00    +0.000 A 
ATOM      4  C   UNL     1       3.605   6.115  17.992  0.00  0.00    +0.000 A 
ATOM      5  N   UNL     1       2.917   6.655  19.002  0.00  0.00    +0.000 NA
ATOM      6  C   UNL     1       2.109   5.876  19.760  0.00  0.00    +0.000 A 
ATOM      7  C   UNL     1       1.424   6.604  20.881  0.00  0.00    +0.000 C 
ATOM      8  C   UNL     1       1.947   4.507  19.536  0.00  0.00    +0.000 A 
ATOM      9  C   UNL     1       2.626   3.971  18.424  0.00  0.00    +0.000 A 
ATOM     10 CL   UNL     1       2.420   2.283  18.029  0.00  0.00    +0.000 Cl
ATOM     11  C   UNL     1       3.497   4.763  17.632  0.00  0.00    +0.000 A 
ATOM     12  C   UNL     1       4.284   4.285  16.551  0.00  0.00    +0.000 A 
ENDROOT
BRANCH   1  13
ATOM     13  C   UNL     1       6.091   4.514  14.870  0.00  0.00    +0.000 C 
ATOM     14  O   UNL     1       6.302   3.317  14.785  0.00  0.00    +0.000 OA
BRANCH  13  15
ATOM     15  O   UNL     1       6.739   5.494  14.193  0.00  0.00    +0.000 OA
BRANCH  15  17
ATOM     16  C   UNL     1       7.380   4.987  11.950  0.00  0.00    +0.000 C 
ATOM     17  C   UNL     1       7.846   5.057  13.394  0.00  0.00    +0.000 C 
ENDBRANCH  15  17
ENDBRANCH  13  15
ENDBRANCH   1  13
BRANCH   8  18
ATOM     18  C   UNL     1       1.128   3.644  20.471  0.00  0.00    +0.000 C 
ATOM     19  C   UNL     1       1.938   2.960  21.560  0.00  0.00    +0.000 C 
ENDBRANCH   8  18
TORSDOF 4
ENDMDL
MODEL 5
REMARK VINA RESULT:      -6.7      1.281      2.156
REMARK  Name = 
REMARK  7 active torsions:
REMARK  status: ('A' for Active; 'I' for Inactive)
REMARK    1  A    between atoms: C_1  and  C_2
REMARK    2  A    between atoms: C_2  and  O_3
REMARK    3  A    between atoms: O_3  and  C_4
REMARK    4  A    between atoms: C_4  and  C_6
REMARK    5  A    between atoms: C_11  and  C_12
REMARK    6  A    between atoms: C_13  and  C_14
REMARK    7  A    between atoms: C_14  and  C_15
REMARK                            x       y       z     vdW  Elec       q    Type
REMARK                         _______ _______ _______ _____ _____    ______ ____
ROOT
ATOM      1  C   UNL     1       5.166   5.382  16.144  0.00  0.00    +0.000 A 
ATOM      2  C   UNL     1       5.014   6.737  16.429  0.00  0.00    +0.000 A 
ATOM      3  C   UNL     1       4.110   7.140  17.412  0.00  0.00    +0.000 A 
ATOM      4  C   UNL     1       3.356   6.226  18.137  0.00  0.00    +0.000 A 
ATOM      5  N   UNL     1       2.546   6.704  19.085  0.00  0.00    +0.000 NA
ATOM      6  C   UNL     1       1.847   5.849  19.869  0.00  0.00    +0.000 A 
ATOM      7  C   UNL     1       1.005   6.520  20.916  0.00  0.00    +0.000 C 
ATOM      8  C   UNL     1       1.924   4.461  19.734  0.00  0.00    +0.000 A 
ATOM      9  C   UNL     1       2.728   3.979  18.683  0.00  0.00    +0.000 A 
ATOM     10 CL   UNL     1       2.822   2.259  18.397  0.00  0.00    +0.000 Cl
ATOM     11  C   UNL     1       3.489   4.855  17.866  0.00  0.00    +0.000 A 
ATOM     12  C   UNL     1       4.389   4.450  16.846  0.00  0.00    +0.000 A 
ENDROOT
BRANCH   1  13
ATOM     13  C   UNL     1       6.201   4.875  15.210  0.00  0.00    +0.000 C 
ATOM     14  O   UNL     1       5.948   4.294  14.170  0.00  0.00    +0.000 OA
BRANCH  13  15
ATOM     15  O   UNL     1       7.428   5.022  15.769  0.00  0.00    +0.000 OA
BRANCH  15  17
ATOM     16  C   UNL     1       7.743   5.475  18.091  0.00  0.00    +0.000 C 
ATOM     17  C   UNL     1       7.601   4.386  17.042  0.00  0.00    +0.000 C 
ENDBRANCH  15  17
ENDBRANCH  13  15
ENDBRANCH   1  13
BRANCH   8  18
ATOM     18  C   UNL     1       1.220   3.532  20.699  0.00  0.00    +0.000 C 
ATOM     19  C   UNL     1       2.094   3.041  21.842  0.00  0.00    +0.000 C 
ENDBRANCH   8  18
TORSDOF 4
ENDMDL
MODEL 6
REMARK VINA RESULT:      -6.4      2.770      4.177
REMARK  Name = 
REMARK  7 active torsions:
REMARK  status: ('A' for Active; 'I' for Inactive)
REMARK    1  A    between atoms: C_1  and  C_2
REMARK    2  A    between atoms: C_2  and  O_3
REMARK    3  A    between atoms: O_3  and  C_4
REMARK    4  A    between atoms: C_4  and  C_6
REMARK    5  A    between atoms: C_11  and  C_12
REMARK    6  A    between atoms: C_13  and  C_14
REMARK    7  A    between atoms: C_14  and  C_15
REMARK                            x       y       z     vdW  Elec       q    Type
REMARK                         _______ _______ _______ _____ _____    ______ ____
ROOT
ATOM      1  C   UNL     1       5.938   3.713  12.820  0.00  0.00    +0.000 A 
ATOM      2  C   UNL     1       7.151   4.386  12.699  0.00  0.00    +0.000 A 
ATOM      3  C   UNL     1       7.633   5.140  13.770  0.00  0.00    +0.000 A 
ATOM      4  C   UNL     1       6.945   5.233  14.973  0.00  0.00    +0.000 A 
ATOM      5  N   UNL     1       7.506   5.946  15.954  0.00  0.00    +0.000 NA
ATOM      6  C   UNL     1       6.910   6.005  17.169  0.00  0.00    +0.000 A 
ATOM      7  C   UNL     1       7.665   6.810  18.187  0.00  0.00    +0.000 C 
ATOM      8  C   UNL     1       5.711   5.350  17.459  0.00  0.00    +0.000 A 
ATOM      9  C   UNL     1       5.101   4.662  16.392  0.00  0.00    +0.000 A 
ATOM     10 CL   UNL     1       3.562   3.878  16.648  0.00  0.00    +0.000 Cl
ATOM     11  C   UNL     1       5.719   4.566  15.118  0.00  0.00    +0.000 A 
ATOM     12  C   UNL     1       5.217   3.823  14.017  0.00  0.00    +0.000 A 
ENDROOT
BRANCH   1  13
ATOM     13  C   UNL     1       5.432   2.788  11.776  0.00  0.00    +0.000 C 
ATOM     14  O   UNL     1       4.302   2.832  11.323  0.00  0.00    +0.000 OA
BRANCH  13  15
ATOM     15  O   UNL     1       6.355   1.823  11.537  0.00  0.00    +0.000 OA
BRANCH  15  17
ATOM     16  C   UNL     1       6.183  -0.556  11.454  0.00  0.00    +0.000 C 
ATOM     17  C   UNL     1       5.910   0.740  10.711  0.00  0.00    +0.000 C 
ENDBRANCH  15  17
ENDBRANCH  13  15
ENDBRANCH   1  13
BRANCH   8  18
ATOM     18  C   UNL     1       5.133   5.341  18.857  0.00  0.00    +0.000 C 
ATOM     19  C   UNL     1       5.047   3.961  19.488  0.00  0.00    +0.000 C 
ENDBRANCH   8  18
TORSDOF 4
ENDMDL
MODEL 7
REMARK VINA RESULT:      -6.4      4.358      6.517
REMARK  Name = 
REMARK  7 active torsions:
REMARK  status: ('A' for Active; 'I' for Inactive)
REMARK    1  A    between atoms: C_1  and  C_2
REMARK    2  A    between atoms: C_2  and  O_3
REMARK    3  A    between atoms: O_3  and  C_4
REMARK    4  A    between atoms: C_4  and  C_6
REMARK    5  A    between atoms: C_11  and  C_12
REMARK    6  A    between atoms: C_13  and  C_14
REMARK    7  A    between atoms: C_14  and  C_15
REMARK                            x       y       z     vdW  Elec       q    Type
REMARK                         _______ _______ _______ _____ _____    ______ ____
ROOT
ATOM      1  C   UNL     1       1.462   8.465  19.759  0.00  0.00    +0.000 A 
ATOM      2  C   UNL     1       2.017   8.918  18.564  0.00  0.00    +0.000 A 
ATOM      3  C   UNL     1       2.844   8.074  17.822  0.00  0.00    +0.000 A 
ATOM      4  C   UNL     1       3.126   6.776  18.229  0.00  0.00    +0.000 A 
ATOM      5  N   UNL     1       3.897   6.031  17.432  0.00  0.00    +0.000 NA
ATOM      6  C   UNL     1       4.139   4.736  17.747  0.00  0.00    +0.000 A 
ATOM      7  C   UNL     1       4.989   4.006  16.748  0.00  0.00    +0.000 C 
ATOM      8  C   UNL     1       3.619   4.124  18.891  0.00  0.00    +0.000 A 
ATOM      9  C   UNL     1       2.869   4.946  19.753  0.00  0.00    +0.000 A 
ATOM     10 CL   UNL     1       2.245   4.280  21.241  0.00  0.00    +0.000 Cl
ATOM     11  C   UNL     1       2.581   6.297  19.430  0.00  0.00    +0.000 A 
ATOM     12  C   UNL     1       1.763   7.168  20.197  0.00  0.00    +0.000 A 
ENDROOT
BRANCH   1  13
ATOM     13  C   UNL     1       0.470   9.256  20.528  0.00  0.00    +0.000 C 
ATOM     14  O   UNL     1      -0.176   8.809  21.459  0.00  0.00    +0.000 OA
BRANCH  13  15
ATOM     15  O   UNL     1       0.299  10.465  19.939  0.00  0.00    +0.000 OA
BRANCH  15  17
ATOM     16  C   UNL     1      -1.376  10.383  18.240  0.00  0.00    +0.000 C 
ATOM     17  C   UNL     1      -1.061  10.823  19.659  0.00  0.00    +0.000 C 
ENDBRANCH  15  17
ENDBRANCH  13  15
ENDBRANCH   1  13
BRANCH   8  18
ATOM     18  C   UNL     1       3.814   2.647  19.154  0.00  0.00    +0.000 C 
ATOM     19  C   UNL     1       2.719   1.761  18.580  0.00  0.00    +0.000 C 
ENDBRANCH   8  18
TORSDOF 4
ENDMDL
MODEL 8
REMARK VINA RESULT:      -6.3      4.236      6.784
REMARK  Name = 
REMARK  7 active torsions:
REMARK  status: ('A' for Active; 'I' for Inactive)
REMARK    1  A    between atoms: C_1  and  C_2
REMARK    2  A    between atoms: C_2  and  O_3
REMARK    3  A    between atoms: O_3  and  C_4
REMARK    4  A    between atoms: C_4  and  C_6
REMARK    5  A    between atoms: C_11  and  C_12
REMARK    6  A    between atoms: C_13  and  C_14
REMARK    7  A    between atoms: C_14  and  C_15
REMARK                            x       y       z     vdW  Elec       q    Type
REMARK                         _______ _______ _______ _____ _____    ______ ____
ROOT
ATOM      1  C   UNL     1       1.603   8.769  19.316  0.00  0.00    +0.000 A 
ATOM      2  C   UNL     1       2.197   9.086  18.098  0.00  0.00    +0.000 A 
ATOM      3  C   UNL     1       3.018   8.153  17.464  0.00  0.00    +0.000 A 
ATOM      4  C   UNL     1       3.255   6.895  18.004  0.00  0.00    +0.000 A 
ATOM      5  N   UNL     1       4.022   6.054  17.305  0.00  0.00    +0.000 NA
ATOM      6  C   UNL     1       4.221   4.792  17.754  0.00  0.00    +0.000 A 
ATOM      7  C   UNL     1       5.073   3.945  16.853  0.00  0.00    +0.000 C 
ATOM      8  C   UNL     1       3.659   4.310  18.938  0.00  0.00    +0.000 A 
ATOM      9  C   UNL     1       2.912   5.233  19.696  0.00  0.00    +0.000 A 
ATOM     10 CL   UNL     1       2.236   4.735  21.226  0.00  0.00    +0.000 Cl
ATOM     11  C   UNL     1       2.669   6.552  19.233  0.00  0.00    +0.000 A 
ATOM     12  C   UNL     1       1.858   7.515  19.889  0.00  0.00    +0.000 A 
ENDROOT
BRANCH   1  13
ATOM     13  C   UNL     1       0.616   9.658  19.978  0.00  0.00    +0.000 C 
ATOM     14  O   UNL     1      -0.289  10.221  19.388  0.00  0.00    +0.000 OA
BRANCH  13  15
ATOM     15  O   UNL     1       0.976   9.853  21.271  0.00  0.00    +0.000 OA
BRANCH  15  17
ATOM     16  C   UNL     1      -0.072   9.486  23.384  0.00  0.00    +0.000 C 
ATOM     17  C   UNL     1      -0.064  10.342  22.129  0.00  0.00    +0.000 C 
ENDBRANCH  15  17
ENDBRANCH  13  15
ENDBRANCH   1  13
BRANCH   8  18
ATOM     18  C   UNL     1       3.807   2.863  19.352  0.00  0.00    +0.000 C 
ATOM     19  C   UNL     1       2.694   1.954  18.853  0.00  0.00    +0.000 C 
ENDBRANCH   8  18
TORSDOF 4
ENDMDL
MODEL 9
REMARK VINA RESULT:      -6.3      5.294      7.495
REMARK  Name = 
REMARK  7 active torsions:
REMARK  status: ('A' for Active; 'I' for Inactive)
REMARK    1  A    between atoms: C_1  and  C_2
REMARK    2  A    between atoms: C_2  and  O_3
REMARK    3  A    between atoms: O_3  and  C_4
REMARK    4  A    between atoms: C_4  and  C_6
REMARK    5  A    between atoms: C_11  and  C_12
REMARK    6  A    between atoms: C_13  and  C_14
REMARK    7  A    between atoms: C_14  and  C_15
REMARK                            x       y       z     vdW  Elec       q    Type
REMARK                         _______ _______ _______ _____ _____    ______ ____
ROOT
ATOM      1  C   UNL     1       2.081   7.308  19.708  0.00  0.00    +0.000 A 
ATOM      2  C   UNL     1       2.182   7.929  18.465  0.00  0.00    +0.000 A 
ATOM      3  C   UNL     1       1.623   9.193  18.276  0.00  0.00    +0.000 A 
ATOM      4  C   UNL     1       0.973   9.871  19.299  0.00  0.00    +0.000 A 
ATOM      5  N   UNL     1       0.504  11.093  19.034  0.00  0.00    +0.000 NA
ATOM      6  C   UNL     1      -0.071  11.823  20.019  0.00  0.00    +0.000 A 
ATOM      7  C   UNL     1      -0.520  13.191  19.591  0.00  0.00    +0.000 C 
ATOM      8  C   UNL     1      -0.209  11.356  21.328  0.00  0.00    +0.000 A 
ATOM      9  C   UNL     1       0.227  10.039  21.570  0.00  0.00    +0.000 A 
ATOM     10 CL   UNL     1       0.024   9.350  23.161  0.00  0.00    +0.000 Cl
ATOM     11  C   UNL     1       0.855   9.265  20.560  0.00  0.00    +0.000 A 
ATOM     12  C   UNL     1       1.401   7.967  20.742  0.00  0.00    +0.000 A 
ENDROOT
BRANCH   1  13
ATOM     13  C   UNL     1       2.766   6.029  20.019  0.00  0.00    +0.000 C 
ATOM     14  O   UNL     1       3.770   5.643  19.447  0.00  0.00    +0.000 OA
BRANCH  13  15
ATOM     15  O   UNL     1       2.022   5.319  20.903  0.00  0.00    +0.000 OA
BRANCH  15  17
ATOM     16  C   UNL     1       1.419   3.036  21.251  0.00  0.00    +0.000 C 
ATOM     17  C   UNL     1       1.265   4.240  20.338  0.00  0.00    +0.000 C 
ENDBRANCH  15  17
ENDBRANCH  13  15
ENDBRANCH   1  13
BRANCH   8  18
ATOM     18  C   UNL     1      -0.750  12.239  22.430  0.00  0.00    +0.000 C 
ATOM     19  C   UNL     1      -2.238  12.070  22.691  0.00  0.00    +0.000 C 
ENDBRANCH   8  18
TORSDOF 4
ENDMDL
