MODEL 1
REMARK VINA RESULT:      -9.6      0.000      0.000
REMARK  Name = 
REMARK  6 active torsions:
REMARK  status: ('A' for Active; 'I' for Inactive)
REMARK    1  A    between atoms: C_1  and  N_2
REMARK    2  A    between atoms: C_9  and  O_10
REMARK    3  A    between atoms: O_10  and  C_11
REMARK    4  A    between atoms: C_11  and  C_12
REMARK    5  A    between atoms: C_16  and  N_17
REMARK    6  A    between atoms: C_19  and  C_20
REMARK                            x       y       z     vdW  Elec       q    Type
REMARK                         _______ _______ _______ _____ _____    ______ ____
ROOT
ATOM      1  C   UNL     1       1.387   9.253  18.973  0.00  0.00    +0.000 A 
ATOM      2  C   UNL     1       1.132   9.151  20.334  0.00  0.00    +0.000 A 
ATOM      3  N   UNL     1       1.447   8.072  21.086  0.00  0.00    +0.000 NA
ATOM      4  C   UNL     1       2.022   7.022  20.450  0.00  0.00    +0.000 A 
ATOM      5  C   UNL     1       2.284   7.002  19.087  0.00  0.00    +0.000 A 
ATOM      6  C   UNL     1       1.963   8.147  18.342  0.00  0.00    +0.000 A 
ENDROOT
BRANCH   5   7
ATOM      7  N   UNL     1       2.835   5.856  18.451  0.00  0.00    +0.000 N 
ATOM      8  C   UNL     1       3.967   5.879  17.661  0.00  0.00    +0.000 A 
ATOM      9  C   UNL     1       4.264   4.607  17.210  0.00  0.00    +0.000 A 
ATOM     10  C   UNL     1       3.244   3.759  17.727  0.00  0.00    +0.000 A 
ATOM     11  C   UNL     1       2.948   2.398  17.656  0.00  0.00    +0.000 A 
ATOM     12  N   UNL     1       1.871   1.903  18.304  0.00  0.00    +0.000 NA
ATOM     13  C   UNL     1       1.115   2.766  19.005  0.00  0.00    +0.000 A 
ATOM     14  N   UNL     1       1.292   4.088  19.148  0.00  0.00    +0.000 NA
ATOM     15  C   UNL     1       2.370   4.546  18.476  0.00  0.00    +0.000 A 
BRANCH   9  16
ATOM     16  C   UNL     1       5.430   4.230  16.353  0.00  0.00    +0.000 C 
ATOM     17  C   UNL     1       5.138   4.296  14.853  0.00  0.00    +0.000 C 
ATOM     18  C   UNL     1       6.520   4.330  14.215  0.00  0.00    +0.000 C 
ATOM     19  C   UNL     1       7.435   5.017  15.227  0.00  0.00    +0.000 C 
ATOM     20  C   UNL     1       6.620   5.182  16.506  0.00  0.00    +0.000 C 
ENDBRANCH   9  16
ENDBRANCH   5   7
BRANCH   1  21
ATOM     21  C   UNL     1       1.075  10.517  18.221  0.00  0.00    +0.000 C 
BRANCH  21  22
ATOM     22  O   UNL     1       0.108  11.292  18.933  0.00  0.00    +0.000 OA
BRANCH  22  31
ATOM     23  C   UNL     1      -6.171  14.246  20.969  0.00  0.00    +0.000 C 
ATOM     24  N   UNL     1      -6.681  13.316  19.981  0.00  0.00    +0.000 N 
ATOM     25  C   UNL     1      -5.718  12.520  19.332  0.00  0.00    +0.000 A 
ATOM     26  C   UNL     1      -6.184  11.655  18.348  0.00  0.00    +0.000 A 
ATOM     27  C   UNL     1      -5.282  10.879  17.637  0.00  0.00    +0.000 A 
ATOM     28  C   UNL     1      -3.923  10.972  17.926  0.00  0.00    +0.000 A 
ATOM     29  C   UNL     1      -2.988  10.207  17.218  0.00  0.00    +0.000 A 
ATOM     30  C   UNL     1      -1.631  10.292  17.520  0.00  0.00    +0.000 A 
ATOM     31  C   UNL     1      -1.199  11.138  18.538  0.00  0.00    +0.000 A 
ATOM     32  C   UNL     1      -2.147  11.909  19.233  0.00  0.00    +0.000 A 
ATOM     33  C   UNL     1      -3.512  11.856  18.946  0.00  0.00    +0.000 A 
ATOM     34  N   UNL     1      -4.402  12.620  19.622  0.00  0.00    +0.000 NA
ATOM     35  H   UNL     1      -7.413  12.718  20.351  0.00  0.00    +0.000 HD
ENDBRANCH  22  31
ENDBRANCH  21  22
ENDBRANCH   1  21
TORSDOF 5
ENDMDL
MODEL 2
REMARK VINA RESULT:      -9.3      1.161      1.272
REMARK  Name = 
REMARK  6 active torsions:
REMARK  status: ('A' for Active; 'I' for Inactive)
REMARK    1  A    between atoms: C_1  and  N_2
REMARK    2  A    between atoms: C_9  and  O_10
REMARK    3  A    between atoms: O_10  and  C_11
REMARK    4  A    between atoms: C_11  and  C_12
REMARK    5  A    between atoms: C_16  and  N_17
REMARK    6  A    between atoms: C_19  and  C_20
REMARK                            x       y       z     vdW  Elec       q    Type
REMARK                         _______ _______ _______ _____ _____    ______ ____
ROOT
ATOM      1  C   UNL     1       0.812   9.570  19.498  0.00  0.00    +0.000 A 
ATOM      2  C   UNL     1       0.709   9.751  20.871  0.00  0.00    +0.000 A 
ATOM      3  N   UNL     1       1.219   8.899  21.788  0.00  0.00    +0.000 NA
ATOM      4  C   UNL     1       1.843   7.789  21.322  0.00  0.00    +0.000 A 
ATOM      5  C   UNL     1       1.966   7.490  19.972  0.00  0.00    +0.000 A 
ATOM      6  C   UNL     1       1.444   8.408  19.048  0.00  0.00    +0.000 A 
ENDROOT
BRANCH   5   7
ATOM      7  N   UNL     1       2.577   6.286  19.529  0.00  0.00    +0.000 N 
ATOM      8  C   UNL     1       3.675   6.237  18.693  0.00  0.00    +0.000 A 
ATOM      9  C   UNL     1       4.049   4.926  18.467  0.00  0.00    +0.000 A 
ATOM     10  C   UNL     1       3.115   4.123  19.181  0.00  0.00    +0.000 A 
ATOM     11  C   UNL     1       2.920   2.755  19.375  0.00  0.00    +0.000 A 
ATOM     12  N   UNL     1       1.908   2.319  20.155  0.00  0.00    +0.000 NA
ATOM     13  C   UNL     1       1.116   3.244  20.725  0.00  0.00    +0.000 A 
ATOM     14  N   UNL     1       1.198   4.579  20.615  0.00  0.00    +0.000 NA
ATOM     15  C   UNL     1       2.213   4.975  19.817  0.00  0.00    +0.000 A 
BRANCH   9  16
ATOM     16  C   UNL     1       5.207   4.474  17.636  0.00  0.00    +0.000 C 
ATOM     17  C   UNL     1       4.831   4.121  16.196  0.00  0.00    +0.000 C 
ATOM     18  C   UNL     1       6.161   4.146  15.456  0.00  0.00    +0.000 C 
ATOM     19  C   UNL     1       7.032   5.167  16.187  0.00  0.00    +0.000 C 
ATOM     20  C   UNL     1       6.271   5.561  17.448  0.00  0.00    +0.000 C 
ENDBRANCH   9  16
ENDBRANCH   5   7
BRANCH   1  21
ATOM     21  C   UNL     1       0.283  10.602  18.540  0.00  0.00    +0.000 C 
BRANCH  21  22
ATOM     22  O   UNL     1      -0.517   9.979  17.533  0.00  0.00    +0.000 OA
BRANCH  22  31
ATOM     23  C   UNL     1      -4.947  13.815  21.771  0.00  0.00    +0.000 C 
ATOM     24  N   UNL     1      -5.849  13.599  20.656  0.00  0.00    +0.000 N 
ATOM     25  C   UNL     1      -5.328  12.856  19.580  0.00  0.00    +0.000 A 
ATOM     26  C   UNL     1      -6.163  12.677  18.482  0.00  0.00    +0.000 A 
ATOM     27  C   UNL     1      -5.694  11.997  17.370  0.00  0.00    +0.000 A 
ATOM     28  C   UNL     1      -4.395  11.494  17.372  0.00  0.00    +0.000 A 
ATOM     29  C   UNL     1      -3.891  10.811  16.259  0.00  0.00    +0.000 A 
ATOM     30  C   UNL     1      -2.597  10.296  16.272  0.00  0.00    +0.000 A 
ATOM     31  C   UNL     1      -1.799  10.455  17.401  0.00  0.00    +0.000 A 
ATOM     32  C   UNL     1      -2.313  11.154  18.507  0.00  0.00    +0.000 A 
ATOM     33  C   UNL     1      -3.601  11.692  18.521  0.00  0.00    +0.000 A 
ATOM     34  N   UNL     1      -4.065  12.373  19.595  0.00  0.00    +0.000 NA
ATOM     35  H   UNL     1      -6.733  13.193  20.944  0.00  0.00    +0.000 HD
ENDBRANCH  22  31
ENDBRANCH  21  22
ENDBRANCH   1  21
TORSDOF 5
ENDMDL
MODEL 3
REMARK VINA RESULT:      -9.3      1.545      2.328
REMARK  Name = 
REMARK  6 active torsions:
REMARK  status: ('A' for Active; 'I' for Inactive)
REMARK    1  A    between atoms: C_1  and  N_2
REMARK    2  A    between atoms: C_9  and  O_10
REMARK    3  A    between atoms: O_10  and  C_11
REMARK    4  A    between atoms: C_11  and  C_12
REMARK    5  A    between atoms: C_16  and  N_17
REMARK    6  A    between atoms: C_19  and  C_20
REMARK                            x       y       z     vdW  Elec       q    Type
REMARK                         _______ _______ _______ _____ _____    ______ ____
ROOT
ATOM      1  C   UNL     1       1.610   9.291  19.241  0.00  0.00    +0.000 A 
ATOM      2  C   UNL     1       1.104   9.086  20.518  0.00  0.00    +0.000 A 
ATOM      3  N   UNL     1       1.194   7.917  21.190  0.00  0.00    +0.000 NA
ATOM      4  C   UNL     1       1.795   6.882  20.553  0.00  0.00    +0.000 A 
ATOM      5  C   UNL     1       2.299   6.965  19.263  0.00  0.00    +0.000 A 
ATOM      6  C   UNL     1       2.207   8.200  18.603  0.00  0.00    +0.000 A 
ENDROOT
BRANCH   5   7
ATOM      7  N   UNL     1       2.868   5.838  18.611  0.00  0.00    +0.000 N 
ATOM      8  C   UNL     1       4.026   5.881  17.860  0.00  0.00    +0.000 A 
ATOM      9  C   UNL     1       4.335   4.622  17.381  0.00  0.00    +0.000 A 
ATOM     10  C   UNL     1       3.298   3.762  17.840  0.00  0.00    +0.000 A 
ATOM     11  C   UNL     1       3.003   2.404  17.719  0.00  0.00    +0.000 A 
ATOM     12  N   UNL     1       1.905   1.893  18.316  0.00  0.00    +0.000 NA
ATOM     13  C   UNL     1       1.128   2.736  19.018  0.00  0.00    +0.000 A 
ATOM     14  N   UNL     1       1.302   4.053  19.206  0.00  0.00    +0.000 NA
ATOM     15  C   UNL     1       2.401   4.528  18.583  0.00  0.00    +0.000 A 
BRANCH   9  16
ATOM     16  C   UNL     1       5.528   4.268  16.551  0.00  0.00    +0.000 C 
ATOM     17  C   UNL     1       5.239   4.212  15.050  0.00  0.00    +0.000 C 
ATOM     18  C   UNL     1       6.618   4.297  14.412  0.00  0.00    +0.000 C 
ATOM     19  C   UNL     1       7.480   5.112  15.374  0.00  0.00    +0.000 C 
ATOM     20  C   UNL     1       6.650   5.307  16.639  0.00  0.00    +0.000 C 
ENDBRANCH   9  16
ENDBRANCH   5   7
BRANCH   1  21
ATOM     21  C   UNL     1       1.537  10.644  18.588  0.00  0.00    +0.000 C 
BRANCH  21  22
ATOM     22  O   UNL     1       0.836  11.563  19.429  0.00  0.00    +0.000 OA
BRANCH  22  31
ATOM     23  C   UNL     1      -3.550  10.007  13.893  0.00  0.00    +0.000 C 
ATOM     24  N   UNL     1      -4.537  10.552  14.804  0.00  0.00    +0.000 N 
ATOM     25  C   UNL     1      -4.049  10.989  16.050  0.00  0.00    +0.000 A 
ATOM     26  C   UNL     1      -4.989  11.473  16.953  0.00  0.00    +0.000 A 
ATOM     27  C   UNL     1      -4.580  11.872  18.216  0.00  0.00    +0.000 A 
ATOM     28  C   UNL     1      -3.232  11.791  18.557  0.00  0.00    +0.000 A 
ATOM     29  C   UNL     1      -2.792  12.179  19.828  0.00  0.00    +0.000 A 
ATOM     30  C   UNL     1      -1.441  12.111  20.160  0.00  0.00    +0.000 A 
ATOM     31  C   UNL     1      -0.518  11.659  19.220  0.00  0.00    +0.000 A 
ATOM     32  C   UNL     1      -0.975  11.262  17.952  0.00  0.00    +0.000 A 
ATOM     33  C   UNL     1      -2.324  11.307  17.593  0.00  0.00    +0.000 A 
ATOM     34  N   UNL     1      -2.738  10.904  16.368  0.00  0.00    +0.000 NA
ATOM     35  H   UNL     1      -5.086  11.295  14.382  0.00  0.00    +0.000 HD
ENDBRANCH  22  31
ENDBRANCH  21  22
ENDBRANCH   1  21
TORSDOF 5
ENDMDL
MODEL 4
REMARK VINA RESULT:      -9.3      2.343      4.209
REMARK  Name = 
REMARK  6 active torsions:
REMARK  status: ('A' for Active; 'I' for Inactive)
REMARK    1  A    between atoms: C_1  and  N_2
REMARK    2  A    between atoms: C_9  and  O_10
REMARK    3  A    between atoms: O_10  and  C_11
REMARK    4  A    between atoms: C_11  and  C_12
REMARK    5  A    between atoms: C_16  and  N_17
REMARK    6  A    between atoms: C_19  and  C_20
REMARK                            x       y       z     vdW  Elec       q    Type
REMARK                         _______ _______ _______ _____ _____    ______ ____
ROOT
ATOM      1  C   UNL     1       1.661   5.475  20.338  0.00  0.00    +0.000 A 
ATOM      2  C   UNL     1       0.856   4.346  20.265  0.00  0.00    +0.000 A 
ATOM      3  N   UNL     1       1.181   3.226  19.581  0.00  0.00    +0.000 NA
ATOM      4  C   UNL     1       2.357   3.232  18.906  0.00  0.00    +0.000 A 
ATOM      5  C   UNL     1       3.217   4.321  18.878  0.00  0.00    +0.000 A 
ATOM      6  C   UNL     1       2.859   5.458  19.616  0.00  0.00    +0.000 A 
ENDROOT
BRANCH   5   7
ATOM      7  N   UNL     1       4.413   4.305  18.109  0.00  0.00    +0.000 N 
ATOM      8  C   UNL     1       4.479   3.904  16.789  0.00  0.00    +0.000 A 
ATOM      9  C   UNL     1       5.771   4.027  16.313  0.00  0.00    +0.000 A 
ATOM     10  C   UNL     1       6.548   4.503  17.408  0.00  0.00    +0.000 A 
ATOM     11  C   UNL     1       7.888   4.833  17.609  0.00  0.00    +0.000 A 
ATOM     12  N   UNL     1       8.301   5.286  18.812  0.00  0.00    +0.000 NA
ATOM     13  C   UNL     1       7.380   5.403  19.784  0.00  0.00    +0.000 A 
ATOM     14  N   UNL     1       6.070   5.119  19.716  0.00  0.00    +0.000 NA
ATOM     15  C   UNL     1       5.699   4.656  18.503  0.00  0.00    +0.000 A 
BRANCH   9  16
ATOM     16  C   UNL     1       6.228   3.715  14.924  0.00  0.00    +0.000 C 
ATOM     17  C   UNL     1       5.087   3.604  13.912  0.00  0.00    +0.000 C 
ATOM     18  C   UNL     1       5.782   3.746  12.565  0.00  0.00    +0.000 C 
ATOM     19  C   UNL     1       7.002   4.631  12.810  0.00  0.00    +0.000 C 
ATOM     20  C   UNL     1       7.107   4.815  14.320  0.00  0.00    +0.000 C 
ENDBRANCH   9  16
ENDBRANCH   5   7
BRANCH   1  21
ATOM     21  C   UNL     1       1.265   6.654  21.182  0.00  0.00    +0.000 C 
BRANCH  21  22
ATOM     22  O   UNL     1       1.796   7.860  20.628  0.00  0.00    +0.000 OA
BRANCH  22  31
ATOM     23  C   UNL     1      -2.765  10.874  15.894  0.00  0.00    +0.000 C 
ATOM     24  N   UNL     1      -2.911  11.832  16.973  0.00  0.00    +0.000 N 
ATOM     25  C   UNL     1      -2.144  11.579  18.126  0.00  0.00    +0.000 A 
ATOM     26  C   UNL     1      -2.305  12.461  19.189  0.00  0.00    +0.000 A 
ATOM     27  C   UNL     1      -1.617  12.240  20.372  0.00  0.00    +0.000 A 
ATOM     28  C   UNL     1      -0.767  11.142  20.474  0.00  0.00    +0.000 A 
ATOM     29  C   UNL     1      -0.066  10.889  21.659  0.00  0.00    +0.000 A 
ATOM     30  C   UNL     1       0.794   9.798  21.752  0.00  0.00    +0.000 A 
ATOM     31  C   UNL     1       0.966   8.954  20.658  0.00  0.00    +0.000 A 
ATOM     32  C   UNL     1       0.247   9.213  19.478  0.00  0.00    +0.000 A 
ATOM     33  C   UNL     1      -0.632  10.291  19.357  0.00  0.00    +0.000 A 
ATOM     34  N   UNL     1      -1.323  10.508  18.213  0.00  0.00    +0.000 NA
ATOM     35  H   UNL     1      -2.750  12.787  16.669  0.00  0.00    +0.000 HD
ENDBRANCH  22  31
ENDBRANCH  21  22
ENDBRANCH   1  21
TORSDOF 5
ENDMDL
MODEL 5
REMARK VINA RESULT:      -9.2      3.438      5.379
REMARK  Name = 
REMARK  6 active torsions:
REMARK  status: ('A' for Active; 'I' for Inactive)
REMARK    1  A    between atoms: C_1  and  N_2
REMARK    2  A    between atoms: C_9  and  O_10
REMARK    3  A    between atoms: O_10  and  C_11
REMARK    4  A    between atoms: C_11  and  C_12
REMARK    5  A    between atoms: C_16  and  N_17
REMARK    6  A    between atoms: C_19  and  C_20
REMARK                            x       y       z     vdW  Elec       q    Type
REMARK                         _______ _______ _______ _____ _____    ______ ____
ROOT
ATOM      1  C   UNL     1       1.390   9.264  18.780  0.00  0.00    +0.000 A 
ATOM      2  C   UNL     1       1.147   9.197  20.145  0.00  0.00    +0.000 A 
ATOM      3  N   UNL     1       1.462   8.135  20.920  0.00  0.00    +0.000 NA
ATOM      4  C   UNL     1       2.027   7.066  20.305  0.00  0.00    +0.000 A 
ATOM      5  C   UNL     1       2.276   7.012  18.941  0.00  0.00    +0.000 A 
ATOM      6  C   UNL     1       1.955   8.140  18.170  0.00  0.00    +0.000 A 
ENDROOT
BRANCH   5   7
ATOM      7  N   UNL     1       2.815   5.847  18.329  0.00  0.00    +0.000 N 
ATOM      8  C   UNL     1       3.918   5.850  17.496  0.00  0.00    +0.000 A 
ATOM      9  C   UNL     1       4.211   4.565  17.083  0.00  0.00    +0.000 A 
ATOM     10  C   UNL     1       3.220   3.728  17.670  0.00  0.00    +0.000 A 
ATOM     11  C   UNL     1       2.937   2.362  17.663  0.00  0.00    +0.000 A 
ATOM     12  N   UNL     1       1.891   1.883  18.369  0.00  0.00    +0.000 NA
ATOM     13  C   UNL     1       1.152   2.764  19.065  0.00  0.00    +0.000 A 
ATOM     14  N   UNL     1       1.320   4.093  19.151  0.00  0.00    +0.000 NA
ATOM     15  C   UNL     1       2.366   4.535  18.422  0.00  0.00    +0.000 A 
BRANCH   9  16
ATOM     16  C   UNL     1       5.348   4.166  16.197  0.00  0.00    +0.000 C 
ATOM     17  C   UNL     1       5.130   4.510  14.723  0.00  0.00    +0.000 C 
ATOM     18  C   UNL     1       6.529   4.448  14.125  0.00  0.00    +0.000 C 
ATOM     19  C   UNL     1       7.487   4.828  15.252  0.00  0.00    +0.000 C 
ATOM     20  C   UNL     1       6.651   4.903  16.525  0.00  0.00    +0.000 C 
ENDBRANCH   9  16
ENDBRANCH   5   7
BRANCH   1  21
ATOM     21  C   UNL     1       1.079  10.510  17.999  0.00  0.00    +0.000 C 
BRANCH  21  22
ATOM     22  O   UNL     1       0.439  11.475  18.838  0.00  0.00    +0.000 OA
BRANCH  22  31
ATOM     23  C   UNL     1       7.003  14.311  17.753  0.00  0.00    +0.000 C 
ATOM     24  N   UNL     1       6.267  15.543  17.960  0.00  0.00    +0.000 N 
ATOM     25  C   UNL     1       4.890  15.401  18.214  0.00  0.00    +0.000 A 
ATOM     26  C   UNL     1       4.160  16.574  18.369  0.00  0.00    +0.000 A 
ATOM     27  C   UNL     1       2.790  16.505  18.572  0.00  0.00    +0.000 A 
ATOM     28  C   UNL     1       2.168  15.260  18.627  0.00  0.00    +0.000 A 
ATOM     29  C   UNL     1       0.785  15.160  18.822  0.00  0.00    +0.000 A 
ATOM     30  C   UNL     1       0.170  13.913  18.891  0.00  0.00    +0.000 A 
ATOM     31  C   UNL     1       0.933  12.755  18.772  0.00  0.00    +0.000 A 
ATOM     32  C   UNL     1       2.319  12.870  18.564  0.00  0.00    +0.000 A 
ATOM     33  C   UNL     1       2.964  14.105  18.478  0.00  0.00    +0.000 A 
ATOM     34  N   UNL     1       4.298  14.186  18.264  0.00  0.00    +0.000 NA
ATOM     35  H   UNL     1       6.680  16.126  18.680  0.00  0.00    +0.000 HD
ENDBRANCH  22  31
ENDBRANCH  21  22
ENDBRANCH   1  21
TORSDOF 5
ENDMDL
MODEL 6
REMARK VINA RESULT:      -9.2      0.876      1.174
REMARK  Name = 
REMARK  6 active torsions:
REMARK  status: ('A' for Active; 'I' for Inactive)
REMARK    1  A    between atoms: C_1  and  N_2
REMARK    2  A    between atoms: C_9  and  O_10
REMARK    3  A    between atoms: O_10  and  C_11
REMARK    4  A    between atoms: C_11  and  C_12
REMARK    5  A    between atoms: C_16  and  N_17
REMARK    6  A    between atoms: C_19  and  C_20
REMARK                            x       y       z     vdW  Elec       q    Type
REMARK                         _______ _______ _______ _____ _____    ______ ____
ROOT
ATOM      1  C   UNL     1       0.825   9.894  19.288  0.00  0.00    +0.000 A 
ATOM      2  C   UNL     1       0.623   9.630  20.636  0.00  0.00    +0.000 A 
ATOM      3  N   UNL     1       1.119   8.550  21.279  0.00  0.00    +0.000 NA
ATOM      4  C   UNL     1       1.833   7.664  20.541  0.00  0.00    +0.000 A 
ATOM      5  C   UNL     1       2.061   7.810  19.180  0.00  0.00    +0.000 A 
ATOM      6  C   UNL     1       1.549   8.954  18.549  0.00  0.00    +0.000 A 
ENDROOT
BRANCH   5   7
ATOM      7  N   UNL     1       2.766   6.827  18.433  0.00  0.00    +0.000 N 
ATOM      8  C   UNL     1       3.848   7.101  17.620  0.00  0.00    +0.000 A 
ATOM      9  C   UNL     1       4.330   5.936  17.053  0.00  0.00    +0.000 A 
ATOM     10  C   UNL     1       3.482   4.892  17.521  0.00  0.00    +0.000 A 
ATOM     11  C   UNL     1       3.410   3.511  17.339  0.00  0.00    +0.000 A 
ATOM     12  N   UNL     1       2.454   2.794  17.968  0.00  0.00    +0.000 NA
ATOM     13  C   UNL     1       1.595   3.459  18.761  0.00  0.00    +0.000 A 
ATOM     14  N   UNL     1       1.560   4.777  19.014  0.00  0.00    +0.000 NA
ATOM     15  C   UNL     1       2.521   5.460  18.357  0.00  0.00    +0.000 A 
BRANCH   9  16
ATOM     16  C   UNL     1       5.507   5.828  16.137  0.00  0.00    +0.000 C 
ATOM     17  C   UNL     1       6.700   5.096  16.753  0.00  0.00    +0.000 C 
ATOM     18  C   UNL     1       7.552   4.713  15.551  0.00  0.00    +0.000 C 
ATOM     19  C   UNL     1       6.580   4.527  14.387  0.00  0.00    +0.000 C 
ATOM     20  C   UNL     1       5.217   5.001  14.881  0.00  0.00    +0.000 C 
ENDBRANCH   9  16
ENDBRANCH   5   7
BRANCH   1  21
ATOM     21  C   UNL     1       0.303  11.157  18.661  0.00  0.00    +0.000 C 
BRANCH  21  22
ATOM     22  O   UNL     1      -0.742  11.714  19.462  0.00  0.00    +0.000 OA
BRANCH  22  31
ATOM     23  C   UNL     1      -7.207  14.367  21.322  0.00  0.00    +0.000 C 
ATOM     24  N   UNL     1      -7.635  13.492  20.247  0.00  0.00    +0.000 N 
ATOM     25  C   UNL     1      -6.615  12.765  19.605  0.00  0.00    +0.000 A 
ATOM     26  C   UNL     1      -7.000  11.955  18.543  0.00  0.00    +0.000 A 
ATOM     27  C   UNL     1      -6.038  11.251  17.836  0.00  0.00    +0.000 A 
ATOM     28  C   UNL     1      -4.700  11.359  18.207  0.00  0.00    +0.000 A 
ATOM     29  C   UNL     1      -3.705  10.667  17.506  0.00  0.00    +0.000 A 
ATOM     30  C   UNL     1      -2.370  10.765  17.890  0.00  0.00    +0.000 A 
ATOM     31  C   UNL     1      -2.020  11.553  18.984  0.00  0.00    +0.000 A 
ATOM     32  C   UNL     1      -3.027  12.252  19.671  0.00  0.00    +0.000 A 
ATOM     33  C   UNL     1      -4.372  12.184  19.304  0.00  0.00    +0.000 A 
ATOM     34  N   UNL     1      -5.319  12.879  19.976  0.00  0.00    +0.000 NA
ATOM     35  H   UNL     1      -8.368  12.852  20.536  0.00  0.00    +0.000 HD
ENDBRANCH  22  31
ENDBRANCH  21  22
ENDBRANCH   1  21
TORSDOF 5
ENDMDL
MODEL 7
REMARK VINA RESULT:      -9.2      1.415      1.677
REMARK  Name = 
REMARK  6 active torsions:
REMARK  status: ('A' for Active; 'I' for Inactive)
REMARK    1  A    between atoms: C_1  and  N_2
REMARK    2  A    between atoms: C_9  and  O_10
REMARK    3  A    between atoms: O_10  and  C_11
REMARK    4  A    between atoms: C_11  and  C_12
REMARK    5  A    between atoms: C_16  and  N_17
REMARK    6  A    between atoms: C_19  and  C_20
REMARK                            x       y       z     vdW  Elec       q    Type
REMARK                         _______ _______ _______ _____ _____    ______ ____
ROOT
ATOM      1  C   UNL     1       0.666  10.266  19.473  0.00  0.00    +0.000 A 
ATOM      2  C   UNL     1       0.241  10.185  20.792  0.00  0.00    +0.000 A 
ATOM      3  N   UNL     1       0.561   9.174  21.631  0.00  0.00    +0.000 NA
ATOM      4  C   UNL     1       1.322   8.170  21.128  0.00  0.00    +0.000 A 
ATOM      5  C   UNL     1       1.767   8.131  19.814  0.00  0.00    +0.000 A 
ATOM      6  C   UNL     1       1.434   9.208  18.978  0.00  0.00    +0.000 A 
ENDROOT
BRANCH   5   7
ATOM      7  N   UNL     1       2.514   7.031  19.313  0.00  0.00    +0.000 N 
ATOM      8  C   UNL     1       3.342   7.095  18.209  0.00  0.00    +0.000 A 
ATOM      9  C   UNL     1       3.947   5.872  17.990  0.00  0.00    +0.000 A 
ATOM     10  C   UNL     1       3.445   5.000  18.998  0.00  0.00    +0.000 A 
ATOM     11  C   UNL     1       3.637   3.663  19.345  0.00  0.00    +0.000 A 
ATOM     12  N   UNL     1       2.991   3.138  20.408  0.00  0.00    +0.000 NA
ATOM     13  C   UNL     1       2.174   3.949  21.103  0.00  0.00    +0.000 A 
ATOM     14  N   UNL     1       1.905   5.243  20.870  0.00  0.00    +0.000 NA
ATOM     15  C   UNL     1       2.558   5.726  19.792  0.00  0.00    +0.000 A 
BRANCH   9  16
ATOM     16  C   UNL     1       4.929   5.561  16.906  0.00  0.00    +0.000 C 
ATOM     17  C   UNL     1       6.356   5.344  17.412  0.00  0.00    +0.000 C 
ATOM     18  C   UNL     1       7.042   4.617  16.263  0.00  0.00    +0.000 C 
ATOM     19  C   UNL     1       5.950   3.813  15.561  0.00  0.00    +0.000 C 
ATOM     20  C   UNL     1       4.626   4.245  16.182  0.00  0.00    +0.000 C 
ENDBRANCH   9  16
ENDBRANCH   5   7
BRANCH   1  21
ATOM     21  C   UNL     1       0.331  11.461  18.625  0.00  0.00    +0.000 C 
BRANCH  21  22
ATOM     22  O   UNL     1      -0.703  12.232  19.241  0.00  0.00    +0.000 OA
BRANCH  22  31
ATOM     23  C   UNL     1      -7.313  13.055  22.056  0.00  0.00    +0.000 C 
ATOM     24  N   UNL     1      -7.693  12.489  20.777  0.00  0.00    +0.000 N 
ATOM     25  C   UNL     1      -6.634  12.176  19.905  0.00  0.00    +0.000 A 
ATOM     26  C   UNL     1      -6.981  11.674  18.656  0.00  0.00    +0.000 A 
ATOM     27  C   UNL     1      -5.987  11.393  17.731  0.00  0.00    +0.000 A 
ATOM     28  C   UNL     1      -4.654  11.608  18.072  0.00  0.00    +0.000 A 
ATOM     29  C   UNL     1      -3.629  11.342  17.157  0.00  0.00    +0.000 A 
ATOM     30  C   UNL     1      -2.297  11.544  17.507  0.00  0.00    +0.000 A 
ATOM     31  C   UNL     1      -1.978  12.010  18.780  0.00  0.00    +0.000 A 
ATOM     32  C   UNL     1      -3.017  12.285  19.686  0.00  0.00    +0.000 A 
ATOM     33  C   UNL     1      -4.362  12.104  19.361  0.00  0.00    +0.000 A 
ATOM     34  N   UNL     1      -5.344  12.390  20.249  0.00  0.00    +0.000 NA
ATOM     35  H   UNL     1      -8.295  11.677  20.875  0.00  0.00    +0.000 HD
ENDBRANCH  22  31
ENDBRANCH  21  22
ENDBRANCH   1  21
TORSDOF 5
ENDMDL
MODEL 8
REMARK VINA RESULT:      -9.0      2.880      3.414
REMARK  Name = 
REMARK  6 active torsions:
REMARK  status: ('A' for Active; 'I' for Inactive)
REMARK    1  A    between atoms: C_1  and  N_2
REMARK    2  A    between atoms: C_9  and  O_10
REMARK    3  A    between atoms: O_10  and  C_11
REMARK    4  A    between atoms: C_11  and  C_12
REMARK    5  A    between atoms: C_16  and  N_17
REMARK    6  A    between atoms: C_19  and  C_20
REMARK                            x       y       z     vdW  Elec       q    Type
REMARK                         _______ _______ _______ _____ _____    ______ ____
ROOT
ATOM      1  C   UNL     1       0.947   9.062  20.644  0.00  0.00    +0.000 A 
ATOM      2  C   UNL     1       0.891   9.932  19.564  0.00  0.00    +0.000 A 
ATOM      3  N   UNL     1       1.405   9.660  18.344  0.00  0.00    +0.000 NA
ATOM      4  C   UNL     1       2.036   8.470  18.190  0.00  0.00    +0.000 A 
ATOM      5  C   UNL     1       2.186   7.545  19.213  0.00  0.00    +0.000 A 
ATOM      6  C   UNL     1       1.621   7.851  20.461  0.00  0.00    +0.000 A 
ENDROOT
BRANCH   5   7
ATOM      7  N   UNL     1       2.907   6.334  19.023  0.00  0.00    +0.000 N 
ATOM      8  C   UNL     1       3.842   6.139  18.026  0.00  0.00    +0.000 A 
ATOM      9  C   UNL     1       4.386   4.872  18.119  0.00  0.00    +0.000 A 
ATOM     10  C   UNL     1       3.732   4.244  19.216  0.00  0.00    +0.000 A 
ATOM     11  C   UNL     1       3.803   2.997  19.837  0.00  0.00    +0.000 A 
ATOM     12  N   UNL     1       3.023   2.726  20.906  0.00  0.00    +0.000 NA
ATOM     13  C   UNL     1       2.194   3.694  21.334  0.00  0.00    +0.000 A 
ATOM     14  N   UNL     1       2.033   4.925  20.824  0.00  0.00    +0.000 NA
ATOM     15  C   UNL     1       2.820   5.153  19.751  0.00  0.00    +0.000 A 
BRANCH   9  16
ATOM     16  C   UNL     1       5.449   4.306  17.231  0.00  0.00    +0.000 C 
ATOM     17  C   UNL     1       4.990   4.082  15.789  0.00  0.00    +0.000 C 
ATOM     18  C   UNL     1       6.292   3.958  15.009  0.00  0.00    +0.000 C 
ATOM     19  C   UNL     1       7.315   4.810  15.758  0.00  0.00    +0.000 C 
ATOM     20  C   UNL     1       6.649   5.242  17.060  0.00  0.00    +0.000 C 
ENDBRANCH   9  16
ENDBRANCH   5   7
BRANCH   1  21
ATOM     21  C   UNL     1       0.286   9.406  21.950  0.00  0.00    +0.000 C 
BRANCH  21  22
ATOM     22  O   UNL     1       0.537  10.771  22.289  0.00  0.00    +0.000 OA
BRANCH  22  31
ATOM     23  C   UNL     1      -1.325  17.002  19.126  0.00  0.00    +0.000 C 
ATOM     24  N   UNL     1      -2.489  16.835  19.975  0.00  0.00    +0.000 N 
ATOM     25  C   UNL     1      -2.498  15.684  20.784  0.00  0.00    +0.000 A 
ATOM     26  C   UNL     1      -3.627  15.483  21.571  0.00  0.00    +0.000 A 
ATOM     27  C   UNL     1      -3.722  14.343  22.354  0.00  0.00    +0.000 A 
ATOM     28  C   UNL     1      -2.679  13.420  22.347  0.00  0.00    +0.000 A 
ATOM     29  C   UNL     1      -2.750  12.255  23.120  0.00  0.00    +0.000 A 
ATOM     30  C   UNL     1      -1.699  11.342  23.122  0.00  0.00    +0.000 A 
ATOM     31  C   UNL     1      -0.564  11.590  22.354  0.00  0.00    +0.000 A 
ATOM     32  C   UNL     1      -0.510  12.757  21.573  0.00  0.00    +0.000 A 
ATOM     33  C   UNL     1      -1.552  13.686  21.540  0.00  0.00    +0.000 A 
ATOM     34  N   UNL     1      -1.479  14.795  20.768  0.00  0.00    +0.000 NA
ATOM     35  H   UNL     1      -2.668  17.650  20.553  0.00  0.00    +0.000 HD
ENDBRANCH  22  31
ENDBRANCH  21  22
ENDBRANCH   1  21
TORSDOF 5
ENDMDL
MODEL 9
REMARK VINA RESULT:      -9.0      1.962      2.836
REMARK  Name = 
REMARK  6 active torsions:
REMARK  status: ('A' for Active; 'I' for Inactive)
REMARK    1  A    between atoms: C_1  and  N_2
REMARK    2  A    between atoms: C_9  and  O_10
REMARK    3  A    between atoms: O_10  and  C_11
REMARK    4  A    between atoms: C_11  and  C_12
REMARK    5  A    between atoms: C_16  and  N_17
REMARK    6  A    between atoms: C_19  and  C_20
REMARK                            x       y       z     vdW  Elec       q    Type
REMARK                         _______ _______ _______ _____ _____    ______ ____
ROOT
ATOM      1  C   UNL     1       0.959   9.368  20.394  0.00  0.00    +0.000 A 
ATOM      2  C   UNL     1       0.981  10.219  19.297  0.00  0.00    +0.000 A 
ATOM      3  N   UNL     1       1.536   9.907  18.105  0.00  0.00    +0.000 NA
ATOM      4  C   UNL     1       2.130   8.692  17.999  0.00  0.00    +0.000 A 
ATOM      5  C   UNL     1       2.200   7.780  19.043  0.00  0.00    +0.000 A 
ATOM      6  C   UNL     1       1.594   8.130  20.260  0.00  0.00    +0.000 A 
ENDROOT
BRANCH   5   7
ATOM      7  N   UNL     1       2.883   6.541  18.905  0.00  0.00    +0.000 N 
ATOM      8  C   UNL     1       3.825   6.281  17.929  0.00  0.00    +0.000 A 
ATOM      9  C   UNL     1       4.326   5.001  18.073  0.00  0.00    +0.000 A 
ATOM     10  C   UNL     1       3.636   4.433  19.181  0.00  0.00    +0.000 A 
ATOM     11  C   UNL     1       3.657   3.206  19.846  0.00  0.00    +0.000 A 
ATOM     12  N   UNL     1       2.854   2.999  20.911  0.00  0.00    +0.000 NA
ATOM     13  C   UNL     1       2.053   4.008  21.294  0.00  0.00    +0.000 A 
ATOM     14  N   UNL     1       1.939   5.225  20.740  0.00  0.00    +0.000 NA
ATOM     15  C   UNL     1       2.747   5.389  19.671  0.00  0.00    +0.000 A 
BRANCH   9  16
ATOM     16  C   UNL     1       5.380   4.371  17.220  0.00  0.00    +0.000 C 
ATOM     17  C   UNL     1       4.926   4.090  15.787  0.00  0.00    +0.000 C 
ATOM     18  C   UNL     1       6.230   3.900  15.024  0.00  0.00    +0.000 C 
ATOM     19  C   UNL     1       7.268   4.762  15.740  0.00  0.00    +0.000 C 
ATOM     20  C   UNL     1       6.603   5.270  17.015  0.00  0.00    +0.000 C 
ENDBRANCH   9  16
ENDBRANCH   5   7
BRANCH   1  21
ATOM     21  C   UNL     1       0.255   9.759  21.663  0.00  0.00    +0.000 C 
BRANCH  21  22
ATOM     22  O   UNL     1       0.387  11.164  21.890  0.00  0.00    +0.000 OA
BRANCH  22  31
ATOM     23  C   UNL     1      -5.317  12.118  17.548  0.00  0.00    +0.000 C 
ATOM     24  N   UNL     1      -5.725  12.988  18.634  0.00  0.00    +0.000 N 
ATOM     25  C   UNL     1      -4.834  13.074  19.719  0.00  0.00    +0.000 A 
ATOM     26  C   UNL     1      -5.230  13.868  20.790  0.00  0.00    +0.000 A 
ATOM     27  C   UNL     1      -4.420  13.956  21.912  0.00  0.00    +0.000 A 
ATOM     28  C   UNL     1      -3.217  13.255  21.945  0.00  0.00    +0.000 A 
ATOM     29  C   UNL     1      -2.384  13.318  23.068  0.00  0.00    +0.000 A 
ATOM     30  C   UNL     1      -1.175  12.627  23.091  0.00  0.00    +0.000 A 
ATOM     31  C   UNL     1      -0.786  11.873  21.987  0.00  0.00    +0.000 A 
ATOM     32  C   UNL     1      -1.638  11.808  20.871  0.00  0.00    +0.000 A 
ATOM     33  C   UNL     1      -2.861  12.479  20.822  0.00  0.00    +0.000 A 
ATOM     34  N   UNL     1      -3.669  12.388  19.739  0.00  0.00    +0.000 NA
ATOM     35  H   UNL     1      -5.955  13.924  18.316  0.00  0.00    +0.000 HD
ENDBRANCH  22  31
ENDBRANCH  21  22
ENDBRANCH   1  21
TORSDOF 5
ENDMDL
