MODEL 1
REMARK VINA RESULT:      -5.7      0.000      0.000
REMARK  Name = 
REMARK  18 active torsions:
REMARK  status: ('A' for Active; 'I' for Inactive)
REMARK    1  A    between atoms: C_1  and  C_2
REMARK    2  A    between atoms: C_2  and  C_3
REMARK    3  A    between atoms: C_4  and  O_5
REMARK    4  A    between atoms: N_10  and  C_11
REMARK    5  A    between atoms: C_11  and  C_12
REMARK    6  A    between atoms: C_12  and  O_13
REMARK    7  A    between atoms: O_13  and  C_14
REMARK    8  A    between atoms: C_14  and  C_15
REMARK    9  A    between atoms: C_15  and  O_16
REMARK   10  A    between atoms: O_16  and  C_17
REMARK   11  A    between atoms: C_17  and  C_18
REMARK   12  A    between atoms: C_18  and  O_19
REMARK   13  A    between atoms: O_19  and  C_20
REMARK   14  A    between atoms: C_20  and  C_22
REMARK   15  A    between atoms: C_22  and  C_23
REMARK   16  A    between atoms: C_23  and  C_24
REMARK   17  A    between atoms: C_24  and  C_26
REMARK   18  A    between atoms: C_26  and  N_27
REMARK                            x       y       z     vdW  Elec       q    Type
REMARK                         _______ _______ _______ _____ _____    ______ ____
ROOT
ATOM      1  C   UNL     1       6.530   6.988  17.200  0.00  0.00    +0.000 C 
ENDROOT
BRANCH   1   2
ATOM      2  O   UNL     1       5.931   5.879  16.509  0.00  0.00    +0.000 OA
BRANCH   2   3
ATOM      3  C   UNL     1       5.815   4.755  17.387  0.00  0.00    +0.000 C 
BRANCH   3   4
ATOM      4  C   UNL     1       4.516   3.978  17.142  0.00  0.00    +0.000 C 
BRANCH   4  11
ATOM      5  C   UNL     1       2.725   4.487  18.927  0.00  0.00    +0.000 A 
ATOM      6  C   UNL     1       2.157   4.189  20.127  0.00  0.00    +0.000 A 
ATOM      7  C   UNL     1       2.727   3.085  20.968  0.00  0.00    +0.000 A 
ATOM      8  O   UNL     1       2.254   2.768  22.059  0.00  0.00    +0.000 OA
ATOM      9  C   UNL     1       3.882   2.344  20.434  0.00  0.00    +0.000 A 
ATOM     10  C   UNL     1       4.333   2.695  19.233  0.00  0.00    +0.000 A 
ATOM     11  N   UNL     1       3.824   3.712  18.434  0.00  0.00    +0.000 N 
BRANCH   6  12
ATOM     12  O   UNL     1       1.038   4.819  20.633  0.00  0.00    +0.000 OA
ATOM     13  H   UNL     1       1.184   4.924  21.588  0.00  0.00    +0.000 HD
ENDBRANCH   6  12
BRANCH   5  15
ATOM     14  C   UNL     1       2.810   7.048  18.269  0.00  0.00    +0.000 C 
ATOM     15  C   UNL     1       2.226   5.647  18.058  0.00  0.00    +0.000 C 
ENDBRANCH   5  15
ENDBRANCH   4  11
ENDBRANCH   3   4
ENDBRANCH   2   3
ENDBRANCH   1   2
BRANCH   1  16
ATOM     16  C   UNL     1       7.575   6.512  18.213  0.00  0.00    +0.000 C 
BRANCH  16  17
ATOM     17  O   UNL     1       8.415   7.565  18.695  0.00  0.00    +0.000 OA
BRANCH  17  18
ATOM     18  C   UNL     1       8.203   8.812  18.032  0.00  0.00    +0.000 C 
BRANCH  18  19
ATOM     19  C   UNL     1       8.952   9.917  18.774  0.00  0.00    +0.000 C 
BRANCH  19  20
ATOM     20  O   UNL     1       9.288  11.005  17.902  0.00  0.00    +0.000 OA
BRANCH  20  21
ATOM     21  C   UNL     1      10.470  11.619  18.170  0.00  0.00    +0.000 C 
ATOM     22  O   UNL     1      11.356  11.175  18.890  0.00  0.00    +0.000 OA
BRANCH  21  23
ATOM     23  C   UNL     1      10.519  12.958  17.478  0.00  0.00    +0.000 C 
BRANCH  23  24
ATOM     24  C   UNL     1       9.316  13.811  17.854  0.00  0.00    +0.000 C 
BRANCH  24  25
ATOM     25  C   UNL     1       9.451  14.439  19.231  0.00  0.00    +0.000 C 
ATOM     26  O   UNL     1      10.403  15.158  19.539  0.00  0.00    +0.000 OA
BRANCH  25  27
ATOM     27  C   UNL     1       8.359  14.073  20.236  0.00  0.00    +0.000 C 
BRANCH  27  28
ATOM     28  N   UNL     1       8.765  12.900  21.016  0.00  0.00    +0.000 NA
ATOM     29  H   UNL     1       8.089  12.774  21.774  0.00  0.00    +0.000 HD
ATOM     30  H   UNL     1       9.667  13.074  21.454  0.00  0.00    +0.000 HD
ENDBRANCH  27  28
ENDBRANCH  25  27
ENDBRANCH  24  25
ENDBRANCH  23  24
ENDBRANCH  21  23
ENDBRANCH  20  21
ENDBRANCH  19  20
ENDBRANCH  18  19
ENDBRANCH  17  18
ENDBRANCH  16  17
ENDBRANCH   1  16
TORSDOF 17
ENDMDL
MODEL 2
REMARK VINA RESULT:      -5.6      5.228      8.622
REMARK  Name = 
REMARK  18 active torsions:
REMARK  status: ('A' for Active; 'I' for Inactive)
REMARK    1  A    between atoms: C_1  and  C_2
REMARK    2  A    between atoms: C_2  and  C_3
REMARK    3  A    between atoms: C_4  and  O_5
REMARK    4  A    between atoms: N_10  and  C_11
REMARK    5  A    between atoms: C_11  and  C_12
REMARK    6  A    between atoms: C_12  and  O_13
REMARK    7  A    between atoms: O_13  and  C_14
REMARK    8  A    between atoms: C_14  and  C_15
REMARK    9  A    between atoms: C_15  and  O_16
REMARK   10  A    between atoms: O_16  and  C_17
REMARK   11  A    between atoms: C_17  and  C_18
REMARK   12  A    between atoms: C_18  and  O_19
REMARK   13  A    between atoms: O_19  and  C_20
REMARK   14  A    between atoms: C_20  and  C_22
REMARK   15  A    between atoms: C_22  and  C_23
REMARK   16  A    between atoms: C_23  and  C_24
REMARK   17  A    between atoms: C_24  and  C_26
REMARK   18  A    between atoms: C_26  and  N_27
REMARK                            x       y       z     vdW  Elec       q    Type
REMARK                         _______ _______ _______ _____ _____    ______ ____
ROOT
ATOM      1  C   UNL     1       3.238   6.463  17.828  0.00  0.00    +0.000 C 
ENDROOT
BRANCH   1   2
ATOM      2  O   UNL     1       2.144   7.349  17.544  0.00  0.00    +0.000 OA
BRANCH   2   3
ATOM      3  C   UNL     1       2.403   8.647  18.089  0.00  0.00    +0.000 C 
BRANCH   3   4
ATOM      4  C   UNL     1       1.123   9.485  18.192  0.00  0.00    +0.000 C 
BRANCH   4  11
ATOM      5  C   UNL     1      -0.189  10.651  20.081  0.00  0.00    +0.000 A 
ATOM      6  C   UNL     1      -0.478  10.757  21.406  0.00  0.00    +0.000 A 
ATOM      7  C   UNL     1       0.224   9.875  22.396  0.00  0.00    +0.000 A 
ATOM      8  O   UNL     1       0.002   9.924  23.605  0.00  0.00    +0.000 OA
ATOM      9  C   UNL     1       1.195   8.899  21.873  0.00  0.00    +0.000 A 
ATOM     10  C   UNL     1       1.372   8.856  20.557  0.00  0.00    +0.000 A 
ATOM     11  N   UNL     1       0.735   9.660  19.619  0.00  0.00    +0.000 N 
BRANCH   6  12
ATOM     12  O   UNL     1      -1.425  11.617  21.927  0.00  0.00    +0.000 OA
ATOM     13  H   UNL     1      -1.023  12.038  22.704  0.00  0.00    +0.000 HD
ENDBRANCH   6  12
BRANCH   5  15
ATOM     14  C   UNL     1      -0.207  12.948  18.768  0.00  0.00    +0.000 C 
ATOM     15  C   UNL     1      -0.826  11.573  19.034  0.00  0.00    +0.000 C 
ENDBRANCH   5  15
ENDBRANCH   4  11
ENDBRANCH   3   4
ENDBRANCH   2   3
ENDBRANCH   1   2
BRANCH   1  16
ATOM     16  C   UNL     1       4.424   6.729  16.897  0.00  0.00    +0.000 C 
BRANCH  16  17
ATOM     17  O   UNL     1       5.502   5.806  17.078  0.00  0.00    +0.000 OA
BRANCH  17  18
ATOM     18  C   UNL     1       6.195   5.974  18.316  0.00  0.00    +0.000 C 
BRANCH  18  19
ATOM     19  C   UNL     1       5.899   4.787  19.230  0.00  0.00    +0.000 C 
BRANCH  19  20
ATOM     20  O   UNL     1       5.249   3.723  18.519  0.00  0.00    +0.000 OA
BRANCH  20  21
ATOM     21  C   UNL     1       4.470   2.910  19.279  0.00  0.00    +0.000 C 
ATOM     22  O   UNL     1       4.853   2.245  20.233  0.00  0.00    +0.000 OA
BRANCH  21  23
ATOM     23  C   UNL     1       3.058   2.914  18.749  0.00  0.00    +0.000 C 
BRANCH  23  24
ATOM     24  C   UNL     1       2.120   2.176  19.693  0.00  0.00    +0.000 C 
BRANCH  24  25
ATOM     25  C   UNL     1       1.745   3.002  20.912  0.00  0.00    +0.000 C 
ATOM     26  O   UNL     1       1.793   2.550  22.058  0.00  0.00    +0.000 OA
BRANCH  25  27
ATOM     27  C   UNL     1       1.244   4.417  20.625  0.00  0.00    +0.000 C 
BRANCH  27  28
ATOM     28  N   UNL     1       2.223   5.403  21.090  0.00  0.00    +0.000 NA
ATOM     29  H   UNL     1       2.386   5.242  22.087  0.00  0.00    +0.000 HD
ATOM     30  H   UNL     1       1.834   6.340  21.005  0.00  0.00    +0.000 HD
ENDBRANCH  27  28
ENDBRANCH  25  27
ENDBRANCH  24  25
ENDBRANCH  23  24
ENDBRANCH  21  23
ENDBRANCH  20  21
ENDBRANCH  19  20
ENDBRANCH  18  19
ENDBRANCH  17  18
ENDBRANCH  16  17
ENDBRANCH   1  16
TORSDOF 17
ENDMDL
MODEL 3
REMARK VINA RESULT:      -5.5      5.880     10.074
REMARK  Name = 
REMARK  18 active torsions:
REMARK  status: ('A' for Active; 'I' for Inactive)
REMARK    1  A    between atoms: C_1  and  C_2
REMARK    2  A    between atoms: C_2  and  C_3
REMARK    3  A    between atoms: C_4  and  O_5
REMARK    4  A    between atoms: N_10  and  C_11
REMARK    5  A    between atoms: C_11  and  C_12
REMARK    6  A    between atoms: C_12  and  O_13
REMARK    7  A    between atoms: O_13  and  C_14
REMARK    8  A    between atoms: C_14  and  C_15
REMARK    9  A    between atoms: C_15  and  O_16
REMARK   10  A    between atoms: O_16  and  C_17
REMARK   11  A    between atoms: C_17  and  C_18
REMARK   12  A    between atoms: C_18  and  O_19
REMARK   13  A    between atoms: O_19  and  C_20
REMARK   14  A    between atoms: C_20  and  C_22
REMARK   15  A    between atoms: C_22  and  C_23
REMARK   16  A    between atoms: C_23  and  C_24
REMARK   17  A    between atoms: C_24  and  C_26
REMARK   18  A    between atoms: C_26  and  N_27
REMARK                            x       y       z     vdW  Elec       q    Type
REMARK                         _______ _______ _______ _____ _____    ______ ____
ROOT
ATOM      1  C   UNL     1       2.257   8.583  17.786  0.00  0.00    +0.000 C 
ENDROOT
BRANCH   1   2
ATOM      2  O   UNL     1       1.100   9.349  18.159  0.00  0.00    +0.000 OA
BRANCH   2   3
ATOM      3  C   UNL     1       1.005   9.442  19.583  0.00  0.00    +0.000 C 
BRANCH   3   4
ATOM      4  C   UNL     1       1.054  10.899  20.060  0.00  0.00    +0.000 C 
BRANCH   4  11
ATOM      5  C   UNL     1      -1.143  12.129  20.618  0.00  0.00    +0.000 A 
ATOM      6  C   UNL     1      -2.166  12.352  21.487  0.00  0.00    +0.000 A 
ATOM      7  C   UNL     1      -2.178  11.661  22.818  0.00  0.00    +0.000 A 
ATOM      8  O   UNL     1      -3.077  11.821  23.642  0.00  0.00    +0.000 OA
ATOM      9  C   UNL     1      -1.072  10.737  23.119  0.00  0.00    +0.000 A 
ATOM     10  C   UNL     1      -0.145  10.565  22.183  0.00  0.00    +0.000 A 
ATOM     11  N   UNL     1      -0.110  11.191  20.942  0.00  0.00    +0.000 N 
BRANCH   6  12
ATOM     12  O   UNL     1      -3.250  13.163  21.216  0.00  0.00    +0.000 OA
ATOM     13  H   UNL     1      -3.309  13.803  21.944  0.00  0.00    +0.000 HD
ENDBRANCH   6  12
BRANCH   5  15
ATOM     14  C   UNL     1      -0.412  14.252  19.219  0.00  0.00    +0.000 C 
ATOM     15  C   UNL     1      -1.046  12.858  19.273  0.00  0.00    +0.000 C 
ENDBRANCH   5  15
ENDBRANCH   4  11
ENDBRANCH   3   4
ENDBRANCH   2   3
ENDBRANCH   1   2
BRANCH   1  16
ATOM     16  C   UNL     1       2.164   7.147  18.312  0.00  0.00    +0.000 C 
BRANCH  16  17
ATOM     17  O   UNL     1       3.390   6.674  18.878  0.00  0.00    +0.000 OA
BRANCH  17  18
ATOM     18  C   UNL     1       3.211   5.606  19.810  0.00  0.00    +0.000 C 
BRANCH  18  19
ATOM     19  C   UNL     1       1.899   5.805  20.566  0.00  0.00    +0.000 C 
BRANCH  19  20
ATOM     20  O   UNL     1       1.072   4.634  20.506  0.00  0.00    +0.000 OA
BRANCH  20  21
ATOM     21  C   UNL     1       1.595   3.525  21.092  0.00  0.00    +0.000 C 
ATOM     22  O   UNL     1       2.220   3.504  22.145  0.00  0.00    +0.000 OA
BRANCH  21  23
ATOM     23  C   UNL     1       1.325   2.317  20.232  0.00  0.00    +0.000 C 
BRANCH  23  24
ATOM     24  C   UNL     1       0.986   2.727  18.806  0.00  0.00    +0.000 C 
BRANCH  24  25
ATOM     25  C   UNL     1       2.197   2.709  17.888  0.00  0.00    +0.000 C 
ATOM     26  O   UNL     1       2.239   3.349  16.835  0.00  0.00    +0.000 OA
BRANCH  25  27
ATOM     27  C   UNL     1       3.343   1.794  18.320  0.00  0.00    +0.000 C 
BRANCH  27  28
ATOM     28  N   UNL     1       4.585   2.563  18.434  0.00  0.00    +0.000 NA
ATOM     29  H   UNL     1       4.339   3.540  18.612  0.00  0.00    +0.000 HD
ATOM     30  H   UNL     1       5.084   2.543  17.547  0.00  0.00    +0.000 HD
ENDBRANCH  27  28
ENDBRANCH  25  27
ENDBRANCH  24  25
ENDBRANCH  23  24
ENDBRANCH  21  23
ENDBRANCH  20  21
ENDBRANCH  19  20
ENDBRANCH  18  19
ENDBRANCH  17  18
ENDBRANCH  16  17
ENDBRANCH   1  16
TORSDOF 17
ENDMDL
MODEL 4
REMARK VINA RESULT:      -5.5      4.803      8.511
REMARK  Name = 
REMARK  18 active torsions:
REMARK  status: ('A' for Active; 'I' for Inactive)
REMARK    1  A    between atoms: C_1  and  C_2
REMARK    2  A    between atoms: C_2  and  C_3
REMARK    3  A    between atoms: C_4  and  O_5
REMARK    4  A    between atoms: N_10  and  C_11
REMARK    5  A    between atoms: C_11  and  C_12
REMARK    6  A    between atoms: C_12  and  O_13
REMARK    7  A    between atoms: O_13  and  C_14
REMARK    8  A    between atoms: C_14  and  C_15
REMARK    9  A    between atoms: C_15  and  O_16
REMARK   10  A    between atoms: O_16  and  C_17
REMARK   11  A    between atoms: C_17  and  C_18
REMARK   12  A    between atoms: C_18  and  O_19
REMARK   13  A    between atoms: O_19  and  C_20
REMARK   14  A    between atoms: C_20  and  C_22
REMARK   15  A    between atoms: C_22  and  C_23
REMARK   16  A    between atoms: C_23  and  C_24
REMARK   17  A    between atoms: C_24  and  C_26
REMARK   18  A    between atoms: C_26  and  N_27
REMARK                            x       y       z     vdW  Elec       q    Type
REMARK                         _______ _______ _______ _____ _____    ______ ____
ROOT
ATOM      1  C   UNL     1       1.852   7.758  19.126  0.00  0.00    +0.000 C 
ENDROOT
BRANCH   1   2
ATOM      2  O   UNL     1       1.912   8.978  19.883  0.00  0.00    +0.000 OA
BRANCH   2   3
ATOM      3  C   UNL     1       1.091   8.878  21.051  0.00  0.00    +0.000 C 
BRANCH   3   4
ATOM      4  C   UNL     1      -0.333   9.381  20.788  0.00  0.00    +0.000 C 
BRANCH   4  11
ATOM      5  C   UNL     1      -0.653  11.182  18.970  0.00  0.00    +0.000 A 
ATOM      6  C   UNL     1      -0.581  12.489  18.599  0.00  0.00    +0.000 A 
ATOM      7  C   UNL     1      -0.068  13.513  19.568  0.00  0.00    +0.000 A 
ATOM      8  O   UNL     1       0.017  14.708  19.290  0.00  0.00    +0.000 OA
ATOM      9  C   UNL     1       0.319  13.050  20.911  0.00  0.00    +0.000 A 
ATOM     10  C   UNL     1       0.172  11.756  21.179  0.00  0.00    +0.000 A 
ATOM     11  N   UNL     1      -0.301  10.788  20.301  0.00  0.00    +0.000 N 
BRANCH   6  12
ATOM     12  O   UNL     1      -0.990  12.970  17.372  0.00  0.00    +0.000 OA
ATOM     13  H   UNL     1      -0.201  13.330  16.934  0.00  0.00    +0.000 HD
ENDBRANCH   6  12
BRANCH   5  15
ATOM     14  C   UNL     1      -2.601   9.894  17.727  0.00  0.00    +0.000 C 
ATOM     15  C   UNL     1      -1.106  10.086  17.999  0.00  0.00    +0.000 C 
ENDBRANCH   5  15
ENDBRANCH   4  11
ENDBRANCH   3   4
ENDBRANCH   2   3
ENDBRANCH   1   2
BRANCH   1  16
ATOM     16  C   UNL     1       2.616   6.632  19.829  0.00  0.00    +0.000 C 
BRANCH  16  17
ATOM     17  O   UNL     1       2.005   5.348  19.665  0.00  0.00    +0.000 OA
BRANCH  17  18
ATOM     18  C   UNL     1       2.911   4.259  19.849  0.00  0.00    +0.000 C 
BRANCH  18  19
ATOM     19  C   UNL     1       3.262   3.655  18.490  0.00  0.00    +0.000 C 
BRANCH  19  20
ATOM     20  O   UNL     1       4.629   3.908  18.137  0.00  0.00    +0.000 OA
BRANCH  20  21
ATOM     21  C   UNL     1       4.811   4.783  17.115  0.00  0.00    +0.000 C 
ATOM     22  O   UNL     1       4.113   5.763  16.884  0.00  0.00    +0.000 OA
BRANCH  21  23
ATOM     23  C   UNL     1       5.985   4.351  16.274  0.00  0.00    +0.000 C 
BRANCH  23  24
ATOM     24  C   UNL     1       7.290   4.500  17.042  0.00  0.00    +0.000 C 
BRANCH  24  25
ATOM     25  C   UNL     1       7.556   5.934  17.473  0.00  0.00    +0.000 C 
ATOM     26  O   UNL     1       7.581   6.871  16.673  0.00  0.00    +0.000 OA
BRANCH  25  27
ATOM     27  C   UNL     1       7.854   6.135  18.958  0.00  0.00    +0.000 C 
BRANCH  27  28
ATOM     28  N   UNL     1       6.927   5.342  19.770  0.00  0.00    +0.000 NA
ATOM     29  H   UNL     1       6.834   4.420  19.336  0.00  0.00    +0.000 HD
ATOM     30  H   UNL     1       6.003   5.768  19.751  0.00  0.00    +0.000 HD
ENDBRANCH  27  28
ENDBRANCH  25  27
ENDBRANCH  24  25
ENDBRANCH  23  24
ENDBRANCH  21  23
ENDBRANCH  20  21
ENDBRANCH  19  20
ENDBRANCH  18  19
ENDBRANCH  17  18
ENDBRANCH  16  17
ENDBRANCH   1  16
TORSDOF 17
ENDMDL
MODEL 5
REMARK VINA RESULT:      -5.5      4.493      7.277
REMARK  Name = 
REMARK  18 active torsions:
REMARK  status: ('A' for Active; 'I' for Inactive)
REMARK    1  A    between atoms: C_1  and  C_2
REMARK    2  A    between atoms: C_2  and  C_3
REMARK    3  A    between atoms: C_4  and  O_5
REMARK    4  A    between atoms: N_10  and  C_11
REMARK    5  A    between atoms: C_11  and  C_12
REMARK    6  A    between atoms: C_12  and  O_13
REMARK    7  A    between atoms: O_13  and  C_14
REMARK    8  A    between atoms: C_14  and  C_15
REMARK    9  A    between atoms: C_15  and  O_16
REMARK   10  A    between atoms: O_16  and  C_17
REMARK   11  A    between atoms: C_17  and  C_18
REMARK   12  A    between atoms: C_18  and  O_19
REMARK   13  A    between atoms: O_19  and  C_20
REMARK   14  A    between atoms: C_20  and  C_22
REMARK   15  A    between atoms: C_22  and  C_23
REMARK   16  A    between atoms: C_23  and  C_24
REMARK   17  A    between atoms: C_24  and  C_26
REMARK   18  A    between atoms: C_26  and  N_27
REMARK                            x       y       z     vdW  Elec       q    Type
REMARK                         _______ _______ _______ _____ _____    ______ ____
ROOT
ATOM      1  C   UNL     1       2.051   2.923  19.188  0.00  0.00    +0.000 C 
ENDROOT
BRANCH   1   2
ATOM      2  O   UNL     1       3.065   2.154  19.856  0.00  0.00    +0.000 OA
BRANCH   2   3
ATOM      3  C   UNL     1       4.340   2.382  19.248  0.00  0.00    +0.000 C 
BRANCH   3   4
ATOM      4  C   UNL     1       4.230   3.308  18.030  0.00  0.00    +0.000 C 
BRANCH   4  11
ATOM      5  C   UNL     1       5.922   4.885  16.891  0.00  0.00    +0.000 A 
ATOM      6  C   UNL     1       6.919   5.804  17.005  0.00  0.00    +0.000 A 
ATOM      7  C   UNL     1       7.425   6.191  18.363  0.00  0.00    +0.000 A 
ATOM      8  O   UNL     1       8.320   7.018  18.529  0.00  0.00    +0.000 OA
ATOM      9  C   UNL     1       6.791   5.563  19.534  0.00  0.00    +0.000 A 
ATOM     10  C   UNL     1       5.800   4.705  19.308  0.00  0.00    +0.000 A 
ATOM     11  N   UNL     1       5.312   4.330  18.062  0.00  0.00    +0.000 N 
BRANCH   6  12
ATOM     12  O   UNL     1       7.496   6.460  15.936  0.00  0.00    +0.000 OA
ATOM     13  H   UNL     1       7.173   6.021  15.131  0.00  0.00    +0.000 HD
ENDBRANCH   6  12
BRANCH   5  15
ATOM     14  C   UNL     1       6.406   3.814  14.520  0.00  0.00    +0.000 C 
ATOM     15  C   UNL     1       5.413   4.404  15.527  0.00  0.00    +0.000 C 
ENDBRANCH   5  15
ENDBRANCH   4  11
ENDBRANCH   3   4
ENDBRANCH   2   3
ENDBRANCH   1   2
BRANCH   1  16
ATOM     16  C   UNL     1       1.141   3.633  20.194  0.00  0.00    +0.000 C 
BRANCH  16  17
ATOM     17  O   UNL     1       1.311   5.054  20.204  0.00  0.00    +0.000 OA
BRANCH  17  18
ATOM     18  C   UNL     1       1.920   5.563  19.017  0.00  0.00    +0.000 C 
BRANCH  18  19
ATOM     19  C   UNL     1       2.784   6.774  19.368  0.00  0.00    +0.000 C 
BRANCH  19  20
ATOM     20  O   UNL     1       2.017   7.986  19.368  0.00  0.00    +0.000 OA
BRANCH  20  21
ATOM     21  C   UNL     1       1.992   8.656  18.187  0.00  0.00    +0.000 C 
ATOM     22  O   UNL     1       2.752   8.468  17.245  0.00  0.00    +0.000 OA
BRANCH  21  23
ATOM     23  C   UNL     1       0.907   9.702  18.216  0.00  0.00    +0.000 C 
BRANCH  23  24
ATOM     24  C   UNL     1       0.427   9.952  19.638  0.00  0.00    +0.000 C 
BRANCH  24  25
ATOM     25  C   UNL     1      -0.163  11.340  19.823  0.00  0.00    +0.000 C 
ATOM     26  O   UNL     1       0.071  12.267  19.044  0.00  0.00    +0.000 OA
BRANCH  25  27
ATOM     27  C   UNL     1      -1.019  11.536  21.074  0.00  0.00    +0.000 C 
BRANCH  27  28
ATOM     28  N   UNL     1      -0.168  11.569  22.266  0.00  0.00    +0.000 NA
ATOM     29  H   UNL     1      -0.687  11.142  23.038  0.00  0.00    +0.000 HD
ATOM     30  H   UNL     1       0.011  12.535  22.534  0.00  0.00    +0.000 HD
ENDBRANCH  27  28
ENDBRANCH  25  27
ENDBRANCH  24  25
ENDBRANCH  23  24
ENDBRANCH  21  23
ENDBRANCH  20  21
ENDBRANCH  19  20
ENDBRANCH  18  19
ENDBRANCH  17  18
ENDBRANCH  16  17
ENDBRANCH   1  16
TORSDOF 17
ENDMDL
MODEL 6
REMARK VINA RESULT:      -5.5      4.483      7.267
REMARK  Name = 
REMARK  18 active torsions:
REMARK  status: ('A' for Active; 'I' for Inactive)
REMARK    1  A    between atoms: C_1  and  C_2
REMARK    2  A    between atoms: C_2  and  C_3
REMARK    3  A    between atoms: C_4  and  O_5
REMARK    4  A    between atoms: N_10  and  C_11
REMARK    5  A    between atoms: C_11  and  C_12
REMARK    6  A    between atoms: C_12  and  O_13
REMARK    7  A    between atoms: O_13  and  C_14
REMARK    8  A    between atoms: C_14  and  C_15
REMARK    9  A    between atoms: C_15  and  O_16
REMARK   10  A    between atoms: O_16  and  C_17
REMARK   11  A    between atoms: C_17  and  C_18
REMARK   12  A    between atoms: C_18  and  O_19
REMARK   13  A    between atoms: O_19  and  C_20
REMARK   14  A    between atoms: C_20  and  C_22
REMARK   15  A    between atoms: C_22  and  C_23
REMARK   16  A    between atoms: C_23  and  C_24
REMARK   17  A    between atoms: C_24  and  C_26
REMARK   18  A    between atoms: C_26  and  N_27
REMARK                            x       y       z     vdW  Elec       q    Type
REMARK                         _______ _______ _______ _____ _____    ______ ____
ROOT
ATOM      1  C   UNL     1       2.227   2.806  19.412  0.00  0.00    +0.000 C 
ENDROOT
BRANCH   1   2
ATOM      2  O   UNL     1       1.806   3.499  18.226  0.00  0.00    +0.000 OA
BRANCH   2   3
ATOM      3  C   UNL     1       2.846   3.475  17.243  0.00  0.00    +0.000 C 
BRANCH   3   4
ATOM      4  C   UNL     1       4.162   2.945  17.824  0.00  0.00    +0.000 C 
BRANCH   4  11
ATOM      5  C   UNL     1       6.006   4.393  16.749  0.00  0.00    +0.000 A 
ATOM      6  C   UNL     1       6.927   5.387  16.871  0.00  0.00    +0.000 A 
ATOM      7  C   UNL     1       7.127   6.061  18.196  0.00  0.00    +0.000 A 
ATOM      8  O   UNL     1       7.942   6.967  18.365  0.00  0.00    +0.000 OA
ATOM      9  C   UNL     1       6.282   5.624  19.319  0.00  0.00    +0.000 A 
ATOM     10  C   UNL     1       5.388   4.670  19.079  0.00  0.00    +0.000 A 
ATOM     11  N   UNL     1       5.182   4.030  17.863  0.00  0.00    +0.000 N 
BRANCH   6  12
ATOM     12  O   UNL     1       7.694   5.866  15.827  0.00  0.00    +0.000 OA
ATOM     13  H   UNL     1       7.959   6.769  16.065  0.00  0.00    +0.000 HD
ENDBRANCH   6  12
BRANCH   5  15
ATOM     14  C   UNL     1       5.307   4.373  14.197  0.00  0.00    +0.000 C 
ATOM     15  C   UNL     1       5.808   3.625  15.437  0.00  0.00    +0.000 C 
ENDBRANCH   5  15
ENDBRANCH   4  11
ENDBRANCH   3   4
ENDBRANCH   2   3
ENDBRANCH   1   2
BRANCH   1  16
ATOM     16  C   UNL     1       1.858   3.590  20.674  0.00  0.00    +0.000 C 
BRANCH  16  17
ATOM     17  O   UNL     1       2.416   4.907  20.704  0.00  0.00    +0.000 OA
BRANCH  17  18
ATOM     18  C   UNL     1       1.486   5.929  20.340  0.00  0.00    +0.000 C 
BRANCH  18  19
ATOM     19  C   UNL     1       1.720   7.162  21.211  0.00  0.00    +0.000 C 
BRANCH  19  20
ATOM     20  O   UNL     1       1.340   8.368  20.532  0.00  0.00    +0.000 OA
BRANCH  20  21
ATOM     21  C   UNL     1       0.901   9.371  21.335  0.00  0.00    +0.000 C 
ATOM     22  O   UNL     1       1.381   9.677  22.420  0.00  0.00    +0.000 OA
BRANCH  21  23
ATOM     23  C   UNL     1      -0.298  10.038  20.711  0.00  0.00    +0.000 C 
BRANCH  23  24
ATOM     24  C   UNL     1      -0.040  10.366  19.247  0.00  0.00    +0.000 C 
BRANCH  24  25
ATOM     25  C   UNL     1       1.036  11.424  19.065  0.00  0.00    +0.000 C 
ATOM     26  O   UNL     1       1.028  12.489  19.686  0.00  0.00    +0.000 OA
BRANCH  25  27
ATOM     27  C   UNL     1       2.101  11.112  18.014  0.00  0.00    +0.000 C 
BRANCH  27  28
ATOM     28  N   UNL     1       1.967   9.726  17.558  0.00  0.00    +0.000 NA
ATOM     29  H   UNL     1       1.173   9.306  18.048  0.00  0.00    +0.000 HD
ATOM     30  H   UNL     1       2.792   9.195  17.828  0.00  0.00    +0.000 HD
ENDBRANCH  27  28
ENDBRANCH  25  27
ENDBRANCH  24  25
ENDBRANCH  23  24
ENDBRANCH  21  23
ENDBRANCH  20  21
ENDBRANCH  19  20
ENDBRANCH  18  19
ENDBRANCH  17  18
ENDBRANCH  16  17
ENDBRANCH   1  16
TORSDOF 17
ENDMDL
MODEL 7
REMARK VINA RESULT:      -5.4      4.588      9.646
REMARK  Name = 
REMARK  18 active torsions:
REMARK  status: ('A' for Active; 'I' for Inactive)
REMARK    1  A    between atoms: C_1  and  C_2
REMARK    2  A    between atoms: C_2  and  C_3
REMARK    3  A    between atoms: C_4  and  O_5
REMARK    4  A    between atoms: N_10  and  C_11
REMARK    5  A    between atoms: C_11  and  C_12
REMARK    6  A    between atoms: C_12  and  O_13
REMARK    7  A    between atoms: O_13  and  C_14
REMARK    8  A    between atoms: C_14  and  C_15
REMARK    9  A    between atoms: C_15  and  O_16
REMARK   10  A    between atoms: O_16  and  C_17
REMARK   11  A    between atoms: C_17  and  C_18
REMARK   12  A    between atoms: C_18  and  O_19
REMARK   13  A    between atoms: O_19  and  C_20
REMARK   14  A    between atoms: C_20  and  C_22
REMARK   15  A    between atoms: C_22  and  C_23
REMARK   16  A    between atoms: C_23  and  C_24
REMARK   17  A    between atoms: C_24  and  C_26
REMARK   18  A    between atoms: C_26  and  N_27
REMARK                            x       y       z     vdW  Elec       q    Type
REMARK                         _______ _______ _______ _____ _____    ______ ____
ROOT
ATOM      1  C   UNL     1       2.649   7.410  18.121  0.00  0.00    +0.000 C 
ENDROOT
BRANCH   1   2
ATOM      2  O   UNL     1       2.019   8.666  17.822  0.00  0.00    +0.000 OA
BRANCH   2   3
ATOM      3  C   UNL     1       1.468   9.239  19.012  0.00  0.00    +0.000 C 
BRANCH   3   4
ATOM      4  C   UNL     1       0.633  10.488  18.705  0.00  0.00    +0.000 C 
BRANCH   4  11
ATOM      5  C   UNL     1       1.145  12.347  20.419  0.00  0.00    +0.000 A 
ATOM      6  C   UNL     1       1.834  13.474  20.745  0.00  0.00    +0.000 A 
ATOM      7  C   UNL     1       2.770  14.091  19.749  0.00  0.00    +0.000 A 
ATOM      8  O   UNL     1       3.421  15.107  19.988  0.00  0.00    +0.000 OA
ATOM      9  C   UNL     1       2.920  13.422  18.446  0.00  0.00    +0.000 A 
ATOM     10  C   UNL     1       2.227  12.305  18.247  0.00  0.00    +0.000 A 
ATOM     11  N   UNL     1       1.355  11.712  19.152  0.00  0.00    +0.000 N 
BRANCH   6  12
ATOM     12  O   UNL     1       1.766  14.095  21.976  0.00  0.00    +0.000 OA
ATOM     13  H   UNL     1       2.397  14.833  21.953  0.00  0.00    +0.000 HD
ENDBRANCH   6  12
BRANCH   5  15
ATOM     14  C   UNL     1      -1.270  12.328  21.498  0.00  0.00    +0.000 C 
ATOM     15  C   UNL     1       0.127  11.712  21.373  0.00  0.00    +0.000 C 
ENDBRANCH   5  15
ENDBRANCH   4  11
ENDBRANCH   3   4
ENDBRANCH   2   3
ENDBRANCH   1   2
BRANCH   1  16
ATOM     16  C   UNL     1       3.872   7.177  17.230  0.00  0.00    +0.000 C 
BRANCH  16  17
ATOM     17  O   UNL     1       4.947   6.518  17.908  0.00  0.00    +0.000 OA
BRANCH  17  18
ATOM     18  C   UNL     1       5.223   5.211  17.402  0.00  0.00    +0.000 C 
BRANCH  18  19
ATOM     19  C   UNL     1       5.696   4.313  18.544  0.00  0.00    +0.000 C 
BRANCH  19  20
ATOM     20  O   UNL     1       4.646   4.068  19.491  0.00  0.00    +0.000 OA
BRANCH  20  21
ATOM     21  C   UNL     1       4.261   2.771  19.606  0.00  0.00    +0.000 C 
ATOM     22  O   UNL     1       4.872   1.897  20.210  0.00  0.00    +0.000 OA
BRANCH  21  23
ATOM     23  C   UNL     1       2.980   2.548  18.844  0.00  0.00    +0.000 C 
BRANCH  23  24
ATOM     24  C   UNL     1       1.856   2.121  19.778  0.00  0.00    +0.000 C 
BRANCH  24  25
ATOM     25  C   UNL     1       1.670   3.077  20.945  0.00  0.00    +0.000 C 
ATOM     26  O   UNL     1       1.771   2.715  22.119  0.00  0.00    +0.000 OA
BRANCH  25  27
ATOM     27  C   UNL     1       1.286   4.509  20.574  0.00  0.00    +0.000 C 
BRANCH  27  28
ATOM     28  N   UNL     1       2.310   5.444  21.048  0.00  0.00    +0.000 NA
ATOM     29  H   UNL     1       2.880   5.723  20.245  0.00  0.00    +0.000 HD
ATOM     30  H   UNL     1       2.932   4.971  21.699  0.00  0.00    +0.000 HD
ENDBRANCH  27  28
ENDBRANCH  25  27
ENDBRANCH  24  25
ENDBRANCH  23  24
ENDBRANCH  21  23
ENDBRANCH  20  21
ENDBRANCH  19  20
ENDBRANCH  18  19
ENDBRANCH  17  18
ENDBRANCH  16  17
ENDBRANCH   1  16
TORSDOF 17
ENDMDL
MODEL 8
REMARK VINA RESULT:      -5.4      5.190      7.905
REMARK  Name = 
REMARK  18 active torsions:
REMARK  status: ('A' for Active; 'I' for Inactive)
REMARK    1  A    between atoms: C_1  and  C_2
REMARK    2  A    between atoms: C_2  and  C_3
REMARK    3  A    between atoms: C_4  and  O_5
REMARK    4  A    between atoms: N_10  and  C_11
REMARK    5  A    between atoms: C_11  and  C_12
REMARK    6  A    between atoms: C_12  and  O_13
REMARK    7  A    between atoms: O_13  and  C_14
REMARK    8  A    between atoms: C_14  and  C_15
REMARK    9  A    between atoms: C_15  and  O_16
REMARK   10  A    between atoms: O_16  and  C_17
REMARK   11  A    between atoms: C_17  and  C_18
REMARK   12  A    between atoms: C_18  and  O_19
REMARK   13  A    between atoms: O_19  and  C_20
REMARK   14  A    between atoms: C_20  and  C_22
REMARK   15  A    between atoms: C_22  and  C_23
REMARK   16  A    between atoms: C_23  and  C_24
REMARK   17  A    between atoms: C_24  and  C_26
REMARK   18  A    between atoms: C_26  and  N_27
REMARK                            x       y       z     vdW  Elec       q    Type
REMARK                         _______ _______ _______ _____ _____    ______ ____
ROOT
ATOM      1  C   UNL     1       1.473   3.795  21.043  0.00  0.00    +0.000 C 
ENDROOT
BRANCH   1   2
ATOM      2  O   UNL     1       2.270   4.990  21.081  0.00  0.00    +0.000 OA
BRANCH   2   3
ATOM      3  C   UNL     1       1.522   6.100  20.576  0.00  0.00    +0.000 C 
BRANCH   3   4
ATOM      4  C   UNL     1       2.364   7.381  20.537  0.00  0.00    +0.000 C 
BRANCH   4  11
ATOM      5  C   UNL     1       0.853   9.458  20.768  0.00  0.00    +0.000 A 
ATOM      6  C   UNL     1       0.133  10.447  20.173  0.00  0.00    +0.000 A 
ATOM      7  C   UNL     1       0.034  10.502  18.677  0.00  0.00    +0.000 A 
ATOM      8  O   UNL     1      -0.600  11.374  18.084  0.00  0.00    +0.000 OA
ATOM      9  C   UNL     1       0.754   9.476  17.906  0.00  0.00    +0.000 A 
ATOM     10  C   UNL     1       1.457   8.577  18.588  0.00  0.00    +0.000 A 
ATOM     11  N   UNL     1       1.567   8.505  19.972  0.00  0.00    +0.000 N 
BRANCH   6  12
ATOM     12  O   UNL     1      -0.505  11.461  20.859  0.00  0.00    +0.000 OA
ATOM     13  H   UNL     1      -0.022  11.582  21.693  0.00  0.00    +0.000 HD
ENDBRANCH   6  12
BRANCH   5  15
ATOM     14  C   UNL     1      -0.359   9.180  23.103  0.00  0.00    +0.000 C 
ATOM     15  C   UNL     1       0.933   9.315  22.292  0.00  0.00    +0.000 C 
ENDBRANCH   5  15
ENDBRANCH   4  11
ENDBRANCH   3   4
ENDBRANCH   2   3
ENDBRANCH   1   2
BRANCH   1  16
ATOM     16  C   UNL     1       1.039   3.463  19.612  0.00  0.00    +0.000 C 
BRANCH  16  17
ATOM     17  O   UNL     1       2.041   2.765  18.866  0.00  0.00    +0.000 OA
BRANCH  17  18
ATOM     18  C   UNL     1       2.145   3.198  17.508  0.00  0.00    +0.000 C 
BRANCH  18  19
ATOM     19  C   UNL     1       3.460   3.951  17.314  0.00  0.00    +0.000 C 
BRANCH  19  20
ATOM     20  O   UNL     1       3.439   5.227  17.969  0.00  0.00    +0.000 OA
BRANCH  20  21
ATOM     21  C   UNL     1       4.488   6.041  17.685  0.00  0.00    +0.000 C 
ATOM     22  O   UNL     1       4.517   6.879  16.793  0.00  0.00    +0.000 OA
BRANCH  21  23
ATOM     23  C   UNL     1       5.637   5.737  18.612  0.00  0.00    +0.000 C 
BRANCH  23  24
ATOM     24  C   UNL     1       6.972   5.986  17.926  0.00  0.00    +0.000 C 
BRANCH  24  25
ATOM     25  C   UNL     1       7.533   4.738  17.265  0.00  0.00    +0.000 C 
ATOM     26  O   UNL     1       8.420   4.057  17.784  0.00  0.00    +0.000 OA
BRANCH  25  27
ATOM     27  C   UNL     1       6.973   4.412  15.881  0.00  0.00    +0.000 C 
BRANCH  27  28
ATOM     28  N   UNL     1       7.517   5.340  14.885  0.00  0.00    +0.000 NA
ATOM     29  H   UNL     1       7.102   6.261  15.050  0.00  0.00    +0.000 HD
ATOM     30  H   UNL     1       7.229   5.051  13.953  0.00  0.00    +0.000 HD
ENDBRANCH  27  28
ENDBRANCH  25  27
ENDBRANCH  24  25
ENDBRANCH  23  24
ENDBRANCH  21  23
ENDBRANCH  20  21
ENDBRANCH  19  20
ENDBRANCH  18  19
ENDBRANCH  17  18
ENDBRANCH  16  17
ENDBRANCH   1  16
TORSDOF 17
ENDMDL
MODEL 9
REMARK VINA RESULT:      -5.4      5.230      8.445
REMARK  Name = 
REMARK  18 active torsions:
REMARK  status: ('A' for Active; 'I' for Inactive)
REMARK    1  A    between atoms: C_1  and  C_2
REMARK    2  A    between atoms: C_2  and  C_3
REMARK    3  A    between atoms: C_4  and  O_5
REMARK    4  A    between atoms: N_10  and  C_11
REMARK    5  A    between atoms: C_11  and  C_12
REMARK    6  A    between atoms: C_12  and  O_13
REMARK    7  A    between atoms: O_13  and  C_14
REMARK    8  A    between atoms: C_14  and  C_15
REMARK    9  A    between atoms: C_15  and  O_16
REMARK   10  A    between atoms: O_16  and  C_17
REMARK   11  A    between atoms: C_17  and  C_18
REMARK   12  A    between atoms: C_18  and  O_19
REMARK   13  A    between atoms: O_19  and  C_20
REMARK   14  A    between atoms: C_20  and  C_22
REMARK   15  A    between atoms: C_22  and  C_23
REMARK   16  A    between atoms: C_23  and  C_24
REMARK   17  A    between atoms: C_24  and  C_26
REMARK   18  A    between atoms: C_26  and  N_27
REMARK                            x       y       z     vdW  Elec       q    Type
REMARK                         _______ _______ _______ _____ _____    ______ ____
ROOT
ATOM      1  C   UNL     1       1.897   6.313  20.531  0.00  0.00    +0.000 C 
ENDROOT
BRANCH   1   2
ATOM      2  O   UNL     1       1.967   6.646  19.135  0.00  0.00    +0.000 OA
BRANCH   2   3
ATOM      3  C   UNL     1       2.307   8.027  18.973  0.00  0.00    +0.000 C 
BRANCH   3   4
ATOM      4  C   UNL     1       1.172   8.815  18.309  0.00  0.00    +0.000 C 
BRANCH   4  11
ATOM      5  C   UNL     1      -0.657  10.487  19.025  0.00  0.00    +0.000 A 
ATOM      6  C   UNL     1      -1.210  11.266  19.994  0.00  0.00    +0.000 A 
ATOM      7  C   UNL     1      -0.575  11.331  21.352  0.00  0.00    +0.000 A 
ATOM      8  O   UNL     1      -1.031  12.014  22.267  0.00  0.00    +0.000 OA
ATOM      9  C   UNL     1       0.628  10.514  21.584  0.00  0.00    +0.000 A 
ATOM     10  C   UNL     1       1.061   9.761  20.577  0.00  0.00    +0.000 A 
ATOM     11  N   UNL     1       0.492   9.682  19.312  0.00  0.00    +0.000 N 
BRANCH   6  12
ATOM     12  O   UNL     1      -2.370  11.997  19.833  0.00  0.00    +0.000 OA
ATOM     13  H   UNL     1      -2.591  11.967  18.888  0.00  0.00    +0.000 HD
ENDBRANCH   6  12
BRANCH   5  15
ATOM     14  C   UNL     1      -2.570   9.744  17.354  0.00  0.00    +0.000 C 
ATOM     15  C   UNL     1      -1.225  10.435  17.602  0.00  0.00    +0.000 C 
ENDBRANCH   5  15
ENDBRANCH   4  11
ENDBRANCH   3   4
ENDBRANCH   2   3
ENDBRANCH   1   2
BRANCH   1  16
ATOM     16  C   UNL     1       1.885   4.795  20.739  0.00  0.00    +0.000 C 
BRANCH  16  17
ATOM     17  O   UNL     1       0.759   4.151  20.136  0.00  0.00    +0.000 OA
BRANCH  17  18
ATOM     18  C   UNL     1       1.084   2.914  19.499  0.00  0.00    +0.000 C 
BRANCH  18  19
ATOM     19  C   UNL     1       2.119   3.163  18.404  0.00  0.00    +0.000 C 
BRANCH  19  20
ATOM     20  O   UNL     1       3.410   2.658  18.774  0.00  0.00    +0.000 OA
BRANCH  20  21
ATOM     21  C   UNL     1       4.463   3.431  18.400  0.00  0.00    +0.000 C 
ATOM     22  O   UNL     1       5.398   3.757  19.121  0.00  0.00    +0.000 OA
BRANCH  21  23
ATOM     23  C   UNL     1       4.296   3.865  16.967  0.00  0.00    +0.000 C 
BRANCH  23  24
ATOM     24  C   UNL     1       4.537   5.361  16.818  0.00  0.00    +0.000 C 
BRANCH  24  25
ATOM     25  C   UNL     1       6.002   5.699  16.597  0.00  0.00    +0.000 C 
ATOM     26  O   UNL     1       6.454   6.831  16.777  0.00  0.00    +0.000 OA
BRANCH  25  27
ATOM     27  C   UNL     1       6.874   4.557  16.075  0.00  0.00    +0.000 C 
BRANCH  27  28
ATOM     28  N   UNL     1       7.934   4.250  17.040  0.00  0.00    +0.000 NA
ATOM     29  H   UNL     1       8.650   3.700  16.559  0.00  0.00    +0.000 HD
ATOM     30  H   UNL     1       7.562   3.662  17.783  0.00  0.00    +0.000 HD
ENDBRANCH  27  28
ENDBRANCH  25  27
ENDBRANCH  24  25
ENDBRANCH  23  24
ENDBRANCH  21  23
ENDBRANCH  20  21
ENDBRANCH  19  20
ENDBRANCH  18  19
ENDBRANCH  17  18
ENDBRANCH  16  17
ENDBRANCH   1  16
TORSDOF 17
ENDMDL
