MODEL 1
REMARK VINA RESULT:      -8.2      0.000      0.000
REMARK  Name = 
REMARK  3 active torsions:
REMARK  status: ('A' for Active; 'I' for Inactive)
REMARK    1  A    between atoms: C_1  and  C_2
REMARK    2  A    between atoms: C_4  and  N_5
REMARK    3  A    between atoms: N_5  and  C_6
REMARK                            x       y       z     vdW  Elec       q    Type
REMARK                         _______ _______ _______ _____ _____    ______ ____
ROOT
ATOM      1  C   UNL     1       8.079   7.941  18.257  0.00  0.00    +0.000 C 
ATOM      2  C   UNL     1       7.441   6.708  17.695  0.00  0.00    +0.000 A 
ATOM      3  C   UNL     1       6.710   5.867  18.500  0.00  0.00    +0.000 A 
ATOM      4  C   UNL     1       6.201   4.725  17.911  0.00  0.00    +0.000 A 
ATOM      5  N   UNL     1       6.412   4.437  16.617  0.00  0.00    +0.000 NA
ATOM      6  C   UNL     1       7.130   5.316  15.911  0.00  0.00    +0.000 A 
ATOM      7  N   UNL     1       7.319   5.065  14.567  0.00  0.00    +0.000 N 
ATOM      8  N   UNL     1       7.644   6.452  16.390  0.00  0.00    +0.000 NA
ATOM      9  H   UNL     1       6.562   4.503  14.210  0.00  0.00    +0.000 HD
ATOM     10  H   UNL     1       7.511   5.937  14.092  0.00  0.00    +0.000 HD
ENDROOT
BRANCH   4  11
ATOM     11  N   UNL     1       5.491   3.781  18.670  0.00  0.00    +0.000 N 
ATOM     12  H   UNL     1       6.103   2.991  18.860  0.00  0.00    +0.000 HD
BRANCH  11  13
ATOM     13  C   UNL     1       4.133   3.418  18.590  0.00  0.00    +0.000 A 
ATOM     14  C   UNL     1       3.725   2.208  19.175  0.00  0.00    +0.000 A 
ATOM     15  C   UNL     1       2.386   1.807  19.143  0.00  0.00    +0.000 A 
ATOM     16  C   UNL     1       1.447   2.610  18.506  0.00  0.00    +0.000 A 
ATOM     17  F   UNL     1       0.164   2.227  18.476  0.00  0.00    +0.000 F 
ATOM     18  C   UNL     1       1.839   3.799  17.906  0.00  0.00    +0.000 A 
ATOM     19  F   UNL     1       0.936   4.569  17.284  0.00  0.00    +0.000 F 
ATOM     20  C   UNL     1       3.171   4.205  17.943  0.00  0.00    +0.000 A 
ENDBRANCH  11  13
ENDBRANCH   4  11
TORSDOF 2
ENDMDL
MODEL 2
REMARK VINA RESULT:      -7.9      0.960      2.026
REMARK  Name = 
REMARK  3 active torsions:
REMARK  status: ('A' for Active; 'I' for Inactive)
REMARK    1  A    between atoms: C_1  and  C_2
REMARK    2  A    between atoms: C_4  and  N_5
REMARK    3  A    between atoms: N_5  and  C_6
REMARK                            x       y       z     vdW  Elec       q    Type
REMARK                         _______ _______ _______ _____ _____    ______ ____
ROOT
ATOM      1  C   UNL     1       7.073   4.798  14.128  0.00  0.00    +0.000 C 
ATOM      2  C   UNL     1       6.942   5.080  15.593  0.00  0.00    +0.000 A 
ATOM      3  C   UNL     1       6.299   4.192  16.424  0.00  0.00    +0.000 A 
ATOM      4  C   UNL     1       6.177   4.555  17.751  0.00  0.00    +0.000 A 
ATOM      5  N   UNL     1       6.652   5.722  18.217  0.00  0.00    +0.000 NA
ATOM      6  C   UNL     1       7.268   6.519  17.337  0.00  0.00    +0.000 A 
ATOM      7  N   UNL     1       7.807   7.701  17.803  0.00  0.00    +0.000 N 
ATOM      8  N   UNL     1       7.448   6.242  16.043  0.00  0.00    +0.000 NA
ATOM      9  H   UNL     1       8.040   7.613  18.781  0.00  0.00    +0.000 HD
ATOM     10  H   UNL     1       8.545   7.996  17.177  0.00  0.00    +0.000 HD
ENDROOT
BRANCH   4  11
ATOM     11  N   UNL     1       5.485   3.738  18.659  0.00  0.00    +0.000 N 
ATOM     12  H   UNL     1       6.065   2.932  18.878  0.00  0.00    +0.000 HD
BRANCH  11  13
ATOM     13  C   UNL     1       4.106   3.458  18.728  0.00  0.00    +0.000 A 
ATOM     14  C   UNL     1       3.668   2.452  19.606  0.00  0.00    +0.000 A 
ATOM     15  C   UNL     1       2.310   2.146  19.730  0.00  0.00    +0.000 A 
ATOM     16  C   UNL     1       1.381   2.835  18.959  0.00  0.00    +0.000 A 
ATOM     17  F   UNL     1       0.079   2.543  19.078  0.00  0.00    +0.000 F 
ATOM     18  C   UNL     1       1.801   3.818  18.074  0.00  0.00    +0.000 A 
ATOM     19  F   UNL     1       0.906   4.476  17.324  0.00  0.00    +0.000 F 
ATOM     20  C   UNL     1       3.152   4.131  17.953  0.00  0.00    +0.000 A 
ENDBRANCH  11  13
ENDBRANCH   4  11
TORSDOF 2
ENDMDL
MODEL 3
REMARK VINA RESULT:      -7.9      1.875      2.870
REMARK  Name = 
REMARK  3 active torsions:
REMARK  status: ('A' for Active; 'I' for Inactive)
REMARK    1  A    between atoms: C_1  and  C_2
REMARK    2  A    between atoms: C_4  and  N_5
REMARK    3  A    between atoms: N_5  and  C_6
REMARK                            x       y       z     vdW  Elec       q    Type
REMARK                         _______ _______ _______ _____ _____    ______ ____
ROOT
ATOM      1  C   UNL     1       6.644   4.358  13.522  0.00  0.00    +0.000 C 
ATOM      2  C   UNL     1       6.395   4.507  14.991  0.00  0.00    +0.000 A 
ATOM      3  C   UNL     1       5.152   4.865  15.459  0.00  0.00    +0.000 A 
ATOM      4  C   UNL     1       5.023   5.032  16.825  0.00  0.00    +0.000 A 
ATOM      5  N   UNL     1       6.058   4.864  17.663  0.00  0.00    +0.000 NA
ATOM      6  C   UNL     1       7.227   4.510  17.119  0.00  0.00    +0.000 A 
ATOM      7  N   UNL     1       8.293   4.285  17.966  0.00  0.00    +0.000 N 
ATOM      8  N   UNL     1       7.439   4.309  15.815  0.00  0.00    +0.000 NA
ATOM      9  H   UNL     1       7.959   4.003  18.875  0.00  0.00    +0.000 HD
ATOM     10  H   UNL     1       8.956   3.673  17.507  0.00  0.00    +0.000 HD
ENDROOT
BRANCH   4  11
ATOM     11  N   UNL     1       3.807   5.452  17.385  0.00  0.00    +0.000 N 
ATOM     12  H   UNL     1       3.841   6.460  17.518  0.00  0.00    +0.000 HD
BRANCH  11  13
ATOM     13  C   UNL     1       2.994   4.801  18.333  0.00  0.00    +0.000 A 
ATOM     14  C   UNL     1       3.142   5.134  19.689  0.00  0.00    +0.000 A 
ATOM     15  C   UNL     1       2.348   4.533  20.670  0.00  0.00    +0.000 A 
ATOM     16  C   UNL     1       1.410   3.577  20.299  0.00  0.00    +0.000 A 
ATOM     17  F   UNL     1       0.648   3.001  21.238  0.00  0.00    +0.000 F 
ATOM     18  C   UNL     1       1.266   3.223  18.964  0.00  0.00    +0.000 A 
ATOM     19  F   UNL     1       0.367   2.296  18.607  0.00  0.00    +0.000 F 
ATOM     20  C   UNL     1       2.049   3.826  17.983  0.00  0.00    +0.000 A 
ENDBRANCH  11  13
ENDBRANCH   4  11
TORSDOF 2
ENDMDL
MODEL 4
REMARK VINA RESULT:      -7.8      1.379      2.344
REMARK  Name = 
REMARK  3 active torsions:
REMARK  status: ('A' for Active; 'I' for Inactive)
REMARK    1  A    between atoms: C_1  and  C_2
REMARK    2  A    between atoms: C_4  and  N_5
REMARK    3  A    between atoms: N_5  and  C_6
REMARK                            x       y       z     vdW  Elec       q    Type
REMARK                         _______ _______ _______ _____ _____    ______ ____
ROOT
ATOM      1  C   UNL     1       6.930   4.598  14.256  0.00  0.00    +0.000 C 
ATOM      2  C   UNL     1       6.852   4.959  15.707  0.00  0.00    +0.000 A 
ATOM      3  C   UNL     1       6.209   4.136  16.602  0.00  0.00    +0.000 A 
ATOM      4  C   UNL     1       6.137   4.571  17.911  0.00  0.00    +0.000 A 
ATOM      5  N   UNL     1       6.660   5.745  18.301  0.00  0.00    +0.000 NA
ATOM      6  C   UNL     1       7.273   6.476  17.363  0.00  0.00    +0.000 A 
ATOM      7  N   UNL     1       7.861   7.663  17.751  0.00  0.00    +0.000 N 
ATOM      8  N   UNL     1       7.406   6.127  16.081  0.00  0.00    +0.000 NA
ATOM      9  H   UNL     1       8.120   7.619  18.724  0.00  0.00    +0.000 HD
ATOM     10  H   UNL     1       8.587   7.903  17.089  0.00  0.00    +0.000 HD
ENDROOT
BRANCH   4  11
ATOM     11  N   UNL     1       5.449   3.824  18.880  0.00  0.00    +0.000 N 
ATOM     12  H   UNL     1       6.067   3.094  19.226  0.00  0.00    +0.000 HD
BRANCH  11  13
ATOM     13  C   UNL     1       4.090   3.458  18.918  0.00  0.00    +0.000 A 
ATOM     14  C   UNL     1       3.593   2.612  17.914  0.00  0.00    +0.000 A 
ATOM     15  C   UNL     1       2.256   2.201  17.914  0.00  0.00    +0.000 A 
ATOM     16  C   UNL     1       1.402   2.652  18.912  0.00  0.00    +0.000 A 
ATOM     17  F   UNL     1       0.122   2.258  18.914  0.00  0.00    +0.000 F 
ATOM     18  C   UNL     1       1.875   3.505  19.900  0.00  0.00    +0.000 A 
ATOM     19  F   UNL     1       1.049   3.947  20.859  0.00  0.00    +0.000 F 
ATOM     20  C   UNL     1       3.207   3.910  19.909  0.00  0.00    +0.000 A 
ENDBRANCH  11  13
ENDBRANCH   4  11
TORSDOF 2
ENDMDL
MODEL 5
REMARK VINA RESULT:      -7.8      1.535      2.676
REMARK  Name = 
REMARK  3 active torsions:
REMARK  status: ('A' for Active; 'I' for Inactive)
REMARK    1  A    between atoms: C_1  and  C_2
REMARK    2  A    between atoms: C_4  and  N_5
REMARK    3  A    between atoms: N_5  and  C_6
REMARK                            x       y       z     vdW  Elec       q    Type
REMARK                         _______ _______ _______ _____ _____    ______ ____
ROOT
ATOM      1  C   UNL     1       6.689   4.291  14.109  0.00  0.00    +0.000 C 
ATOM      2  C   UNL     1       6.713   4.784  15.523  0.00  0.00    +0.000 A 
ATOM      3  C   UNL     1       6.177   4.029  16.539  0.00  0.00    +0.000 A 
ATOM      4  C   UNL     1       6.194   4.582  17.805  0.00  0.00    +0.000 A 
ATOM      5  N   UNL     1       6.700   5.803  18.041  0.00  0.00    +0.000 NA
ATOM      6  C   UNL     1       7.206   6.462  16.994  0.00  0.00    +0.000 A 
ATOM      7  N   UNL     1       7.776   7.698  17.221  0.00  0.00    +0.000 N 
ATOM      8  N   UNL     1       7.249   5.999  15.741  0.00  0.00    +0.000 NA
ATOM      9  H   UNL     1       8.114   7.754  18.169  0.00  0.00    +0.000 HD
ATOM     10  H   UNL     1       8.437   7.898  16.482  0.00  0.00    +0.000 HD
ENDROOT
BRANCH   4  11
ATOM     11  N   UNL     1       5.615   3.907  18.892  0.00  0.00    +0.000 N 
ATOM     12  H   UNL     1       6.121   3.038  19.041  0.00  0.00    +0.000 HD
BRANCH  11  13
ATOM     13  C   UNL     1       4.260   3.826  19.267  0.00  0.00    +0.000 A 
ATOM     14  C   UNL     1       3.643   4.966  19.808  0.00  0.00    +0.000 A 
ATOM     15  C   UNL     1       2.295   4.947  20.179  0.00  0.00    +0.000 A 
ATOM     16  C   UNL     1       1.560   3.778  20.027  0.00  0.00    +0.000 A 
ATOM     17  F   UNL     1       0.268   3.759  20.382  0.00  0.00    +0.000 F 
ATOM     18  C   UNL     1       2.162   2.638  19.512  0.00  0.00    +0.000 A 
ATOM     19  F   UNL     1       1.456   1.507  19.373  0.00  0.00    +0.000 F 
ATOM     20  C   UNL     1       3.502   2.655  19.133  0.00  0.00    +0.000 A 
ENDBRANCH  11  13
ENDBRANCH   4  11
TORSDOF 2
ENDMDL
MODEL 6
REMARK VINA RESULT:      -7.7      1.946      2.880
REMARK  Name = 
REMARK  3 active torsions:
REMARK  status: ('A' for Active; 'I' for Inactive)
REMARK    1  A    between atoms: C_1  and  C_2
REMARK    2  A    between atoms: C_4  and  N_5
REMARK    3  A    between atoms: N_5  and  C_6
REMARK                            x       y       z     vdW  Elec       q    Type
REMARK                         _______ _______ _______ _____ _____    ______ ____
ROOT
ATOM      1  C   UNL     1       6.742   4.391  14.346  0.00  0.00    +0.000 C 
ATOM      2  C   UNL     1       6.308   5.138  15.570  0.00  0.00    +0.000 A 
ATOM      3  C   UNL     1       4.999   5.099  15.989  0.00  0.00    +0.000 A 
ATOM      4  C   UNL     1       4.675   5.860  17.096  0.00  0.00    +0.000 A 
ATOM      5  N   UNL     1       5.585   6.612  17.734  0.00  0.00    +0.000 NA
ATOM      6  C   UNL     1       6.835   6.583  17.259  0.00  0.00    +0.000 A 
ATOM      7  N   UNL     1       7.798   7.311  17.929  0.00  0.00    +0.000 N 
ATOM      8  N   UNL     1       7.242   5.865  16.209  0.00  0.00    +0.000 NA
ATOM      9  H   UNL     1       7.540   7.417  18.898  0.00  0.00    +0.000 HD
ATOM     10  H   UNL     1       8.707   6.913  17.733  0.00  0.00    +0.000 HD
ENDROOT
BRANCH   4  11
ATOM     11  N   UNL     1       3.351   5.926  17.559  0.00  0.00    +0.000 N 
ATOM     12  H   UNL     1       3.081   6.904  17.631  0.00  0.00    +0.000 HD
BRANCH  11  13
ATOM     13  C   UNL     1       2.696   5.103  18.496  0.00  0.00    +0.000 A 
ATOM     14  C   UNL     1       2.939   5.317  19.863  0.00  0.00    +0.000 A 
ATOM     15  C   UNL     1       2.301   4.544  20.837  0.00  0.00    +0.000 A 
ATOM     16  C   UNL     1       1.428   3.535  20.446  0.00  0.00    +0.000 A 
ATOM     17  F   UNL     1       0.816   2.794  21.379  0.00  0.00    +0.000 F 
ATOM     18  C   UNL     1       1.195   3.299  19.099  0.00  0.00    +0.000 A 
ATOM     19  F   UNL     1       0.360   2.321  18.721  0.00  0.00    +0.000 F 
ATOM     20  C   UNL     1       1.821   4.073  18.125  0.00  0.00    +0.000 A 
ENDBRANCH  11  13
ENDBRANCH   4  11
TORSDOF 2
ENDMDL
MODEL 7
REMARK VINA RESULT:      -7.7      1.644      2.055
REMARK  Name = 
REMARK  3 active torsions:
REMARK  status: ('A' for Active; 'I' for Inactive)
REMARK    1  A    between atoms: C_1  and  C_2
REMARK    2  A    between atoms: C_4  and  N_5
REMARK    3  A    between atoms: N_5  and  C_6
REMARK                            x       y       z     vdW  Elec       q    Type
REMARK                         _______ _______ _______ _____ _____    ______ ____
ROOT
ATOM      1  C   UNL     1       7.543   7.253  17.431  0.00  0.00    +0.000 C 
ATOM      2  C   UNL     1       6.961   6.052  16.752  0.00  0.00    +0.000 A 
ATOM      3  C   UNL     1       6.125   5.198  17.431  0.00  0.00    +0.000 A 
ATOM      4  C   UNL     1       5.675   4.086  16.745  0.00  0.00    +0.000 A 
ATOM      5  N   UNL     1       6.040   3.838  15.477  0.00  0.00    +0.000 NA
ATOM      6  C   UNL     1       6.851   4.727  14.894  0.00  0.00    +0.000 A 
ATOM      7  N   UNL     1       7.199   4.517  13.575  0.00  0.00    +0.000 N 
ATOM      8  N   UNL     1       7.318   5.836  15.473  0.00  0.00    +0.000 NA
ATOM      9  H   UNL     1       6.483   3.982  13.109  0.00  0.00    +0.000 HD
ATOM     10  H   UNL     1       7.460   5.401  13.159  0.00  0.00    +0.000 HD
ENDROOT
BRANCH   4  11
ATOM     11  N   UNL     1       4.865   3.130  17.378  0.00  0.00    +0.000 N 
ATOM     12  H   UNL     1       4.781   2.321  16.768  0.00  0.00    +0.000 HD
BRANCH  11  13
ATOM     13  C   UNL     1       3.732   3.326  18.192  0.00  0.00    +0.000 A 
ATOM     14  C   UNL     1       2.517   3.673  17.579  0.00  0.00    +0.000 A 
ATOM     15  C   UNL     1       1.356   3.859  18.337  0.00  0.00    +0.000 A 
ATOM     16  C   UNL     1       1.411   3.717  19.718  0.00  0.00    +0.000 A 
ATOM     17  F   UNL     1       0.300   3.895  20.444  0.00  0.00    +0.000 F 
ATOM     18  C   UNL     1       2.610   3.394  20.338  0.00  0.00    +0.000 A 
ATOM     19  F   UNL     1       2.665   3.266  21.671  0.00  0.00    +0.000 F 
ATOM     20  C   UNL     1       3.766   3.199  19.587  0.00  0.00    +0.000 A 
ENDBRANCH  11  13
ENDBRANCH   4  11
TORSDOF 2
ENDMDL
MODEL 8
REMARK VINA RESULT:      -7.5      1.681      1.856
REMARK  Name = 
REMARK  3 active torsions:
REMARK  status: ('A' for Active; 'I' for Inactive)
REMARK    1  A    between atoms: C_1  and  C_2
REMARK    2  A    between atoms: C_4  and  N_5
REMARK    3  A    between atoms: N_5  and  C_6
REMARK                            x       y       z     vdW  Elec       q    Type
REMARK                         _______ _______ _______ _____ _____    ______ ____
ROOT
ATOM      1  C   UNL     1       7.814   5.575  18.963  0.00  0.00    +0.000 C 
ATOM      2  C   UNL     1       6.964   5.253  17.773  0.00  0.00    +0.000 A 
ATOM      3  C   UNL     1       5.668   4.822  17.932  0.00  0.00    +0.000 A 
ATOM      4  C   UNL     1       4.973   4.496  16.783  0.00  0.00    +0.000 A 
ATOM      5  N   UNL     1       5.530   4.584  15.565  0.00  0.00    +0.000 NA
ATOM      6  C   UNL     1       6.793   5.019  15.507  0.00  0.00    +0.000 A 
ATOM      7  N   UNL     1       7.370   5.165  14.262  0.00  0.00    +0.000 N 
ATOM      8  N   UNL     1       7.534   5.373  16.561  0.00  0.00    +0.000 NA
ATOM      9  H   UNL     1       6.658   5.334  13.568  0.00  0.00    +0.000 HD
ATOM     10  H   UNL     1       8.123   5.836  14.323  0.00  0.00    +0.000 HD
ENDROOT
BRANCH   4  11
ATOM     11  N   UNL     1       3.664   3.992  16.854  0.00  0.00    +0.000 N 
ATOM     12  H   UNL     1       3.121   4.389  16.092  0.00  0.00    +0.000 HD
BRANCH  11  13
ATOM     13  C   UNL     1       2.885   3.702  17.992  0.00  0.00    +0.000 A 
ATOM     14  C   UNL     1       2.644   2.357  18.316  0.00  0.00    +0.000 A 
ATOM     15  C   UNL     1       1.895   2.011  19.444  0.00  0.00    +0.000 A 
ATOM     16  C   UNL     1       1.364   3.014  20.246  0.00  0.00    +0.000 A 
ATOM     17  F   UNL     1       0.646   2.684  21.328  0.00  0.00    +0.000 F 
ATOM     18  C   UNL     1       1.578   4.348  19.927  0.00  0.00    +0.000 A 
ATOM     19  F   UNL     1       1.059   5.316  20.695  0.00  0.00    +0.000 F 
ATOM     20  C   UNL     1       2.331   4.696  18.809  0.00  0.00    +0.000 A 
ENDBRANCH  11  13
ENDBRANCH   4  11
TORSDOF 2
ENDMDL
MODEL 9
REMARK VINA RESULT:      -7.4      2.230      3.065
REMARK  Name = 
REMARK  3 active torsions:
REMARK  status: ('A' for Active; 'I' for Inactive)
REMARK    1  A    between atoms: C_1  and  C_2
REMARK    2  A    between atoms: C_4  and  N_5
REMARK    3  A    between atoms: N_5  and  C_6
REMARK                            x       y       z     vdW  Elec       q    Type
REMARK                         _______ _______ _______ _____ _____    ______ ____
ROOT
ATOM      1  C   UNL     1       6.405   3.987  14.249  0.00  0.00    +0.000 C 
ATOM      2  C   UNL     1       6.121   4.918  15.388  0.00  0.00    +0.000 A 
ATOM      3  C   UNL     1       4.874   4.959  15.966  0.00  0.00    +0.000 A 
ATOM      4  C   UNL     1       4.685   5.884  16.975  0.00  0.00    +0.000 A 
ATOM      5  N   UNL     1       5.663   6.712  17.375  0.00  0.00    +0.000 NA
ATOM      6  C   UNL     1       6.844   6.595  16.760  0.00  0.00    +0.000 A 
ATOM      7  N   UNL     1       7.878   7.403  17.187  0.00  0.00    +0.000 N 
ATOM      8  N   UNL     1       7.123   5.721  15.789  0.00  0.00    +0.000 NA
ATOM      9  H   UNL     1       7.741   7.659  18.153  0.00  0.00    +0.000 HD
ATOM     10  H   UNL     1       8.759   6.969  16.944  0.00  0.00    +0.000 HD
ENDROOT
BRANCH   4  11
ATOM     11  N   UNL     1       3.428   6.036  17.582  0.00  0.00    +0.000 N 
ATOM     12  H   UNL     1       3.287   7.021  17.795  0.00  0.00    +0.000 HD
BRANCH  11  13
ATOM     13  C   UNL     1       2.768   5.180  18.485  0.00  0.00    +0.000 A 
ATOM     14  C   UNL     1       1.848   4.248  17.976  0.00  0.00    +0.000 A 
ATOM     15  C   UNL     1       1.179   3.360  18.824  0.00  0.00    +0.000 A 
ATOM     16  C   UNL     1       1.414   3.413  20.192  0.00  0.00    +0.000 A 
ATOM     17  F   UNL     1       0.774   2.562  21.005  0.00  0.00    +0.000 F 
ATOM     18  C   UNL     1       2.306   4.342  20.711  0.00  0.00    +0.000 A 
ATOM     19  F   UNL     1       2.526   4.399  22.032  0.00  0.00    +0.000 F 
ATOM     20  C   UNL     1       2.980   5.222  19.869  0.00  0.00    +0.000 A 
ENDBRANCH  11  13
ENDBRANCH   4  11
TORSDOF 2
ENDMDL
