MODEL 1
REMARK VINA RESULT:      -7.7      0.000      0.000
REMARK  Name = 
REMARK  12 active torsions:
REMARK  status: ('A' for Active; 'I' for Inactive)
REMARK    1  A    between atoms: C_1  and  C_2
REMARK    2  A    between atoms: C_2  and  N_3
REMARK    3  A    between atoms: N_3  and  C_4
REMARK    4  A    between atoms: N_3  and  C_6
REMARK    5  A    between atoms: C_4  and  C_5
REMARK    6  A    between atoms: C_7  and  C_8
REMARK    7  A    between atoms: C_8  and  C_10
REMARK    8  A    between atoms: C_11  and  C_12
REMARK    9  A    between atoms: C_15  and  O_16
REMARK   10  A    between atoms: O_16  and  C_17
REMARK   11  A    between atoms: C_20  and  C_21
REMARK   12  A    between atoms: N_28  and  C_29
REMARK                            x       y       z     vdW  Elec       q    Type
REMARK                         _______ _______ _______ _____ _____    ______ ____
ROOT
ATOM      1  C   UNL     1       6.145   5.683  17.183  0.00  0.00    +0.000 A 
ATOM      2  C   UNL     1       5.011   5.153  17.699  0.00  0.00    +0.000 A 
ATOM      3  C   UNL     1       4.349   4.069  16.900  0.00  0.00    +0.000 A 
ATOM      4  N   UNL     1       4.741   3.685  15.725  0.00  0.00    +0.000 NA
ATOM      5  N   UNL     1       5.847   4.259  15.187  0.00  0.00    +0.000 N 
ATOM      6  C   UNL     1       6.245   3.793  13.871  0.00  0.00    +0.000 C 
ATOM      7  C   UNL     1       6.632   5.198  15.825  0.00  0.00    +0.000 A 
ATOM      8  O   UNL     1       7.661   5.648  15.313  0.00  0.00    +0.000 OA
ENDROOT
BRANCH   3   9
ATOM      9  C   UNL     1       3.124   3.389  17.427  0.00  0.00    +0.000 A 
ATOM     10  C   UNL     1       1.925   4.119  17.461  0.00  0.00    +0.000 A 
ATOM     11  C   UNL     1       0.799   3.595  18.096  0.00  0.00    +0.000 A 
ATOM     12  C   UNL     1       0.869   2.348  18.711  0.00  0.00    +0.000 A 
ATOM     13  C   UNL     1       2.031   1.585  18.608  0.00  0.00    +0.000 A 
ATOM     14  C   UNL     1       3.139   2.082  17.917  0.00  0.00    +0.000 A 
ENDBRANCH   3   9
BRANCH   2  15
ATOM     15  C   UNL     1       4.526   5.700  19.013  0.00  0.00    +0.000 C 
ATOM     16  O   UNL     1       4.782   5.154  20.085  0.00  0.00    +0.000 OA
BRANCH  15  17
ATOM     17  C   UNL     1       3.639   6.907  19.014  0.00  0.00    +0.000 C 
ATOM     18  C   UNL     1       2.604   6.916  19.878  0.00  0.00    +0.000 C 
BRANCH  18  19
ATOM     19  C   UNL     1       1.594   7.976  20.020  0.00  0.00    +0.000 A 
ATOM     20  C   UNL     1       0.885   8.114  21.224  0.00  0.00    +0.000 A 
ATOM     21  C   UNL     1       0.030   9.205  21.425  0.00  0.00    +0.000 A 
ATOM     22  C   UNL     1      -0.101  10.185  20.442  0.00  0.00    +0.000 A 
ATOM     23  C   UNL     1       0.558  10.024  19.224  0.00  0.00    +0.000 A 
ATOM     24  C   UNL     1       1.403   8.931  19.017  0.00  0.00    +0.000 A 
BRANCH  22  25
ATOM     25  O   UNL     1      -0.910  11.246  20.746  0.00  0.00    +0.000 OA
ATOM     26  C   UNL     1      -1.106  12.159  19.669  0.00  0.00    +0.000 C 
ENDBRANCH  22  25
ENDBRANCH  18  19
ENDBRANCH  15  17
ENDBRANCH   2  15
BRANCH   1  27
ATOM     27  N   UNL     1       6.899   6.716  17.792  0.00  0.00    +0.000 N 
BRANCH  27  29
ATOM     28  C   UNL     1       7.988   5.628  19.785  0.00  0.00    +0.000 C 
ATOM     29  C   UNL     1       8.176   6.379  18.476  0.00  0.00    +0.000 C 
ENDBRANCH  27  29
BRANCH  27  30
ATOM     30  C   UNL     1       6.825   8.105  17.286  0.00  0.00    +0.000 C 
ATOM     31  C   UNL     1       7.990   8.933  17.819  0.00  0.00    +0.000 C 
ENDBRANCH  27  30
ENDBRANCH   1  27
TORSDOF 8
ENDMDL
MODEL 2
REMARK VINA RESULT:      -7.5      0.477      1.273
REMARK  Name = 
REMARK  12 active torsions:
REMARK  status: ('A' for Active; 'I' for Inactive)
REMARK    1  A    between atoms: C_1  and  C_2
REMARK    2  A    between atoms: C_2  and  N_3
REMARK    3  A    between atoms: N_3  and  C_4
REMARK    4  A    between atoms: N_3  and  C_6
REMARK    5  A    between atoms: C_4  and  C_5
REMARK    6  A    between atoms: C_7  and  C_8
REMARK    7  A    between atoms: C_8  and  C_10
REMARK    8  A    between atoms: C_11  and  C_12
REMARK    9  A    between atoms: C_15  and  O_16
REMARK   10  A    between atoms: O_16  and  C_17
REMARK   11  A    between atoms: C_20  and  C_21
REMARK   12  A    between atoms: N_28  and  C_29
REMARK                            x       y       z     vdW  Elec       q    Type
REMARK                         _______ _______ _______ _____ _____    ______ ____
ROOT
ATOM      1  C   UNL     1       6.354   5.555  16.955  0.00  0.00    +0.000 A 
ATOM      2  C   UNL     1       5.229   5.069  17.530  0.00  0.00    +0.000 A 
ATOM      3  C   UNL     1       4.467   4.036  16.753  0.00  0.00    +0.000 A 
ATOM      4  N   UNL     1       4.767   3.660  15.549  0.00  0.00    +0.000 NA
ATOM      5  N   UNL     1       5.865   4.193  14.954  0.00  0.00    +0.000 N 
ATOM      6  C   UNL     1       6.159   3.738  13.607  0.00  0.00    +0.000 C 
ATOM      7  C   UNL     1       6.733   5.078  15.561  0.00  0.00    +0.000 A 
ATOM      8  O   UNL     1       7.749   5.490  14.994  0.00  0.00    +0.000 OA
ENDROOT
BRANCH   3   9
ATOM      9  C   UNL     1       3.245   3.404  17.341  0.00  0.00    +0.000 A 
ATOM     10  C   UNL     1       2.054   4.149  17.352  0.00  0.00    +0.000 A 
ATOM     11  C   UNL     1       0.934   3.677  18.038  0.00  0.00    +0.000 A 
ATOM     12  C   UNL     1       1.002   2.469  18.726  0.00  0.00    +0.000 A 
ATOM     13  C   UNL     1       2.154   1.688  18.650  0.00  0.00    +0.000 A 
ATOM     14  C   UNL     1       3.255   2.128  17.910  0.00  0.00    +0.000 A 
ENDBRANCH   3   9
BRANCH   2  15
ATOM     15  C   UNL     1       4.853   5.608  18.882  0.00  0.00    +0.000 C 
ATOM     16  O   UNL     1       5.188   5.052  19.927  0.00  0.00    +0.000 OA
BRANCH  15  17
ATOM     17  C   UNL     1       3.978   6.821  18.962  0.00  0.00    +0.000 C 
ATOM     18  C   UNL     1       2.843   6.722  19.684  0.00  0.00    +0.000 C 
BRANCH  18  19
ATOM     19  C   UNL     1       1.827   7.770  19.863  0.00  0.00    +0.000 A 
ATOM     20  C   UNL     1       1.149   7.889  21.087  0.00  0.00    +0.000 A 
ATOM     21  C   UNL     1       0.289   8.970  21.323  0.00  0.00    +0.000 A 
ATOM     22  C   UNL     1       0.123   9.958  20.353  0.00  0.00    +0.000 A 
ATOM     23  C   UNL     1       0.752   9.816  19.117  0.00  0.00    +0.000 A 
ATOM     24  C   UNL     1       1.601   8.733  18.877  0.00  0.00    +0.000 A 
BRANCH  22  25
ATOM     25  O   UNL     1      -0.687  11.008  20.690  0.00  0.00    +0.000 OA
ATOM     26  C   UNL     1       0.005  12.237  20.898  0.00  0.00    +0.000 C 
ENDBRANCH  22  25
ENDBRANCH  18  19
ENDBRANCH  15  17
ENDBRANCH   2  15
BRANCH   1  27
ATOM     27  N   UNL     1       7.194   6.537  17.537  0.00  0.00    +0.000 N 
BRANCH  27  29
ATOM     28  C   UNL     1       7.997   8.907  17.810  0.00  0.00    +0.000 C 
ATOM     29  C   UNL     1       6.920   7.975  17.280  0.00  0.00    +0.000 C 
ENDBRANCH  27  29
BRANCH  27  30
ATOM     30  C   UNL     1       7.902   6.268  18.808  0.00  0.00    +0.000 C 
ATOM     31  C   UNL     1       8.418   4.833  18.842  0.00  0.00    +0.000 C 
ENDBRANCH  27  30
ENDBRANCH   1  27
TORSDOF 8
ENDMDL
MODEL 3
REMARK VINA RESULT:      -7.4      0.454      1.536
REMARK  Name = 
REMARK  12 active torsions:
REMARK  status: ('A' for Active; 'I' for Inactive)
REMARK    1  A    between atoms: C_1  and  C_2
REMARK    2  A    between atoms: C_2  and  N_3
REMARK    3  A    between atoms: N_3  and  C_4
REMARK    4  A    between atoms: N_3  and  C_6
REMARK    5  A    between atoms: C_4  and  C_5
REMARK    6  A    between atoms: C_7  and  C_8
REMARK    7  A    between atoms: C_8  and  C_10
REMARK    8  A    between atoms: C_11  and  C_12
REMARK    9  A    between atoms: C_15  and  O_16
REMARK   10  A    between atoms: O_16  and  C_17
REMARK   11  A    between atoms: C_20  and  C_21
REMARK   12  A    between atoms: N_28  and  C_29
REMARK                            x       y       z     vdW  Elec       q    Type
REMARK                         _______ _______ _______ _____ _____    ______ ____
ROOT
ATOM      1  C   UNL     1       6.340   5.566  16.958  0.00  0.00    +0.000 A 
ATOM      2  C   UNL     1       5.209   5.084  17.526  0.00  0.00    +0.000 A 
ATOM      3  C   UNL     1       4.463   4.034  16.757  0.00  0.00    +0.000 A 
ATOM      4  N   UNL     1       4.781   3.638  15.564  0.00  0.00    +0.000 NA
ATOM      5  N   UNL     1       5.886   4.166  14.976  0.00  0.00    +0.000 N 
ATOM      6  C   UNL     1       6.200   3.688  13.641  0.00  0.00    +0.000 C 
ATOM      7  C   UNL     1       6.740   5.066  15.578  0.00  0.00    +0.000 A 
ATOM      8  O   UNL     1       7.763   5.472  15.019  0.00  0.00    +0.000 OA
ENDROOT
BRANCH   3   9
ATOM      9  C   UNL     1       3.235   3.407  17.339  0.00  0.00    +0.000 A 
ATOM     10  C   UNL     1       2.055   4.168  17.372  0.00  0.00    +0.000 A 
ATOM     11  C   UNL     1       0.933   3.697  18.054  0.00  0.00    +0.000 A 
ATOM     12  C   UNL     1       0.988   2.475  18.718  0.00  0.00    +0.000 A 
ATOM     13  C   UNL     1       2.129   1.680  18.619  0.00  0.00    +0.000 A 
ATOM     14  C   UNL     1       3.231   2.120  17.882  0.00  0.00    +0.000 A 
ENDBRANCH   3   9
BRANCH   2  15
ATOM     15  C   UNL     1       4.812   5.646  18.862  0.00  0.00    +0.000 C 
ATOM     16  O   UNL     1       5.077   5.075  19.919  0.00  0.00    +0.000 OA
BRANCH  15  17
ATOM     17  C   UNL     1       4.001   6.904  18.910  0.00  0.00    +0.000 C 
ATOM     18  C   UNL     1       2.868   6.887  19.641  0.00  0.00    +0.000 C 
BRANCH  18  19
ATOM     19  C   UNL     1       1.909   7.991  19.793  0.00  0.00    +0.000 A 
ATOM     20  C   UNL     1       1.653   8.853  18.715  0.00  0.00    +0.000 A 
ATOM     21  C   UNL     1       0.637   9.814  18.798  0.00  0.00    +0.000 A 
ATOM     22  C   UNL     1      -0.153   9.903  19.943  0.00  0.00    +0.000 A 
ATOM     23  C   UNL     1       0.132   9.086  21.036  0.00  0.00    +0.000 A 
ATOM     24  C   UNL     1       1.152   8.134  20.959  0.00  0.00    +0.000 A 
BRANCH  22  25
ATOM     25  O   UNL     1      -1.161  10.828  19.915  0.00  0.00    +0.000 OA
ATOM     26  C   UNL     1      -1.161  11.658  18.757  0.00  0.00    +0.000 C 
ENDBRANCH  22  25
ENDBRANCH  18  19
ENDBRANCH  15  17
ENDBRANCH   2  15
BRANCH   1  27
ATOM     27  N   UNL     1       7.167   6.561  17.534  0.00  0.00    +0.000 N 
BRANCH  27  29
ATOM     28  C   UNL     1       7.971   8.939  17.729  0.00  0.00    +0.000 C 
ATOM     29  C   UNL     1       6.871   7.995  17.273  0.00  0.00    +0.000 C 
ENDBRANCH  27  29
BRANCH  27  30
ATOM     30  C   UNL     1       7.883   6.307  18.804  0.00  0.00    +0.000 C 
ATOM     31  C   UNL     1       8.371   4.863  18.865  0.00  0.00    +0.000 C 
ENDBRANCH  27  30
ENDBRANCH   1  27
TORSDOF 8
ENDMDL
MODEL 4
REMARK VINA RESULT:      -6.8      4.976     10.252
REMARK  Name = 
REMARK  12 active torsions:
REMARK  status: ('A' for Active; 'I' for Inactive)
REMARK    1  A    between atoms: C_1  and  C_2
REMARK    2  A    between atoms: C_2  and  N_3
REMARK    3  A    between atoms: N_3  and  C_4
REMARK    4  A    between atoms: N_3  and  C_6
REMARK    5  A    between atoms: C_4  and  C_5
REMARK    6  A    between atoms: C_7  and  C_8
REMARK    7  A    between atoms: C_8  and  C_10
REMARK    8  A    between atoms: C_11  and  C_12
REMARK    9  A    between atoms: C_15  and  O_16
REMARK   10  A    between atoms: O_16  and  C_17
REMARK   11  A    between atoms: C_20  and  C_21
REMARK   12  A    between atoms: N_28  and  C_29
REMARK                            x       y       z     vdW  Elec       q    Type
REMARK                         _______ _______ _______ _____ _____    ______ ____
ROOT
ATOM      1  C   UNL     1      -2.527  13.284  20.740  0.00  0.00    +0.000 A 
ATOM      2  C   UNL     1      -2.369  12.559  19.607  0.00  0.00    +0.000 A 
ATOM      3  C   UNL     1      -3.602  11.919  19.040  0.00  0.00    +0.000 A 
ATOM      4  N   UNL     1      -4.766  11.943  19.611  0.00  0.00    +0.000 NA
ATOM      5  N   UNL     1      -4.907  12.626  20.776  0.00  0.00    +0.000 N 
ATOM      6  C   UNL     1      -6.230  12.624  21.374  0.00  0.00    +0.000 C 
ATOM      7  C   UNL     1      -3.904  13.353  21.384  0.00  0.00    +0.000 A 
ATOM      8  O   UNL     1      -4.099  14.002  22.416  0.00  0.00    +0.000 OA
ENDROOT
BRANCH   3   9
ATOM      9  C   UNL     1      -3.527  11.149  17.759  0.00  0.00    +0.000 A 
ATOM     10  C   UNL     1      -2.838   9.925  17.762  0.00  0.00    +0.000 A 
ATOM     11  C   UNL     1      -2.592   9.252  16.565  0.00  0.00    +0.000 A 
ATOM     12  C   UNL     1      -3.019   9.805  15.361  0.00  0.00    +0.000 A 
ATOM     13  C   UNL     1      -3.774  10.976  15.360  0.00  0.00    +0.000 A 
ATOM     14  C   UNL     1      -4.077  11.617  16.564  0.00  0.00    +0.000 A 
ENDBRANCH   3   9
BRANCH   2  15
ATOM     15  C   UNL     1      -0.984  12.463  19.033  0.00  0.00    +0.000 C 
ATOM     16  O   UNL     1      -0.585  13.222  18.151  0.00  0.00    +0.000 OA
BRANCH  15  17
ATOM     17  C   UNL     1      -0.080  11.361  19.495  0.00  0.00    +0.000 C 
ATOM     18  C   UNL     1       0.417  10.531  18.557  0.00  0.00    +0.000 C 
BRANCH  18  19
ATOM     19  C   UNL     1       1.286   9.368  18.791  0.00  0.00    +0.000 A 
ATOM     20  C   UNL     1       1.224   8.679  20.013  0.00  0.00    +0.000 A 
ATOM     21  C   UNL     1       1.936   7.486  20.195  0.00  0.00    +0.000 A 
ATOM     22  C   UNL     1       2.689   6.953  19.150  0.00  0.00    +0.000 A 
ATOM     23  C   UNL     1       2.797   7.660  17.954  0.00  0.00    +0.000 A 
ATOM     24  C   UNL     1       2.096   8.856  17.775  0.00  0.00    +0.000 A 
BRANCH  22  25
ATOM     25  O   UNL     1       3.303   5.754  19.394  0.00  0.00    +0.000 OA
ATOM     26  C   UNL     1       4.464   5.519  18.601  0.00  0.00    +0.000 C 
ENDBRANCH  22  25
ENDBRANCH  18  19
ENDBRANCH  15  17
ENDBRANCH   2  15
BRANCH   1  27
ATOM     27  N   UNL     1      -1.478  13.952  21.419  0.00  0.00    +0.000 N 
BRANCH  27  29
ATOM     28  C   UNL     1      -1.218  16.124  22.666  0.00  0.00    +0.000 C 
ATOM     29  C   UNL     1      -1.373  15.432  21.321  0.00  0.00    +0.000 C 
ENDBRANCH  27  29
BRANCH  27  30
ATOM     30  C   UNL     1      -0.888  13.378  22.649  0.00  0.00    +0.000 C 
ATOM     31  C   UNL     1      -1.272  11.909  22.794  0.00  0.00    +0.000 C 
ENDBRANCH  27  30
ENDBRANCH   1  27
TORSDOF 8
ENDMDL
MODEL 5
REMARK VINA RESULT:      -6.7      0.912      1.588
REMARK  Name = 
REMARK  12 active torsions:
REMARK  status: ('A' for Active; 'I' for Inactive)
REMARK    1  A    between atoms: C_1  and  C_2
REMARK    2  A    between atoms: C_2  and  N_3
REMARK    3  A    between atoms: N_3  and  C_4
REMARK    4  A    between atoms: N_3  and  C_6
REMARK    5  A    between atoms: C_4  and  C_5
REMARK    6  A    between atoms: C_7  and  C_8
REMARK    7  A    between atoms: C_8  and  C_10
REMARK    8  A    between atoms: C_11  and  C_12
REMARK    9  A    between atoms: C_15  and  O_16
REMARK   10  A    between atoms: O_16  and  C_17
REMARK   11  A    between atoms: C_20  and  C_21
REMARK   12  A    between atoms: N_28  and  C_29
REMARK                            x       y       z     vdW  Elec       q    Type
REMARK                         _______ _______ _______ _____ _____    ______ ____
ROOT
ATOM      1  C   UNL     1       6.505   4.883  17.187  0.00  0.00    +0.000 A 
ATOM      2  C   UNL     1       5.346   4.461  17.747  0.00  0.00    +0.000 A 
ATOM      3  C   UNL     1       4.387   3.738  16.848  0.00  0.00    +0.000 A 
ATOM      4  N   UNL     1       4.560   3.580  15.572  0.00  0.00    +0.000 NA
ATOM      5  N   UNL     1       5.699   4.054  15.005  0.00  0.00    +0.000 N 
ATOM      6  C   UNL     1       5.844   3.850  13.575  0.00  0.00    +0.000 C 
ATOM      7  C   UNL     1       6.729   4.654  15.699  0.00  0.00    +0.000 A 
ATOM      8  O   UNL     1       7.769   5.018  15.142  0.00  0.00    +0.000 OA
ENDROOT
BRANCH   3   9
ATOM      9  C   UNL     1       3.110   3.188  17.400  0.00  0.00    +0.000 A 
ATOM     10  C   UNL     1       1.966   4.003  17.360  0.00  0.00    +0.000 A 
ATOM     11  C   UNL     1       0.797   3.608  18.011  0.00  0.00    +0.000 A 
ATOM     12  C   UNL     1       0.769   2.408  18.715  0.00  0.00    +0.000 A 
ATOM     13  C   UNL     1       1.874   1.558  18.688  0.00  0.00    +0.000 A 
ATOM     14  C   UNL     1       3.023   1.922  17.983  0.00  0.00    +0.000 A 
ENDBRANCH   3   9
BRANCH   2  15
ATOM     15  C   UNL     1       5.133   4.759  19.205  0.00  0.00    +0.000 C 
ATOM     16  O   UNL     1       5.790   4.211  20.089  0.00  0.00    +0.000 OA
BRANCH  15  17
ATOM     17  C   UNL     1       4.035   5.697  19.602  0.00  0.00    +0.000 C 
ATOM     18  C   UNL     1       3.581   6.554  18.666  0.00  0.00    +0.000 C 
BRANCH  18  19
ATOM     19  C   UNL     1       2.543   7.579  18.849  0.00  0.00    +0.000 A 
ATOM     20  C   UNL     1       1.954   7.765  20.110  0.00  0.00    +0.000 A 
ATOM     21  C   UNL     1       1.074   8.832  20.335  0.00  0.00    +0.000 A 
ATOM     22  C   UNL     1       0.799   9.741  19.314  0.00  0.00    +0.000 A 
ATOM     23  C   UNL     1       1.339   9.530  18.047  0.00  0.00    +0.000 A 
ATOM     24  C   UNL     1       2.208   8.460  17.817  0.00  0.00    +0.000 A 
BRANCH  22  25
ATOM     25  O   UNL     1      -0.022  10.787  19.638  0.00  0.00    +0.000 OA
ATOM     26  C   UNL     1       0.098  11.914  18.773  0.00  0.00    +0.000 C 
ENDBRANCH  22  25
ENDBRANCH  18  19
ENDBRANCH  15  17
ENDBRANCH   2  15
BRANCH   1  27
ATOM     27  N   UNL     1       7.523   5.585  17.878  0.00  0.00    +0.000 N 
BRANCH  27  29
ATOM     28  C   UNL     1       6.660   7.809  17.073  0.00  0.00    +0.000 C 
ATOM     29  C   UNL     1       7.330   7.026  18.190  0.00  0.00    +0.000 C 
ENDBRANCH  27  29
BRANCH  27  30
ATOM     30  C   UNL     1       8.434   4.877  18.804  0.00  0.00    +0.000 C 
ATOM     31  C   UNL     1       8.497   5.593  20.149  0.00  0.00    +0.000 C 
ENDBRANCH  27  30
ENDBRANCH   1  27
TORSDOF 8
ENDMDL
MODEL 6
REMARK VINA RESULT:      -6.7      5.246     10.496
REMARK  Name = 
REMARK  12 active torsions:
REMARK  status: ('A' for Active; 'I' for Inactive)
REMARK    1  A    between atoms: C_1  and  C_2
REMARK    2  A    between atoms: C_2  and  N_3
REMARK    3  A    between atoms: N_3  and  C_4
REMARK    4  A    between atoms: N_3  and  C_6
REMARK    5  A    between atoms: C_4  and  C_5
REMARK    6  A    between atoms: C_7  and  C_8
REMARK    7  A    between atoms: C_8  and  C_10
REMARK    8  A    between atoms: C_11  and  C_12
REMARK    9  A    between atoms: C_15  and  O_16
REMARK   10  A    between atoms: O_16  and  C_17
REMARK   11  A    between atoms: C_20  and  C_21
REMARK   12  A    between atoms: N_28  and  C_29
REMARK                            x       y       z     vdW  Elec       q    Type
REMARK                         _______ _______ _______ _____ _____    ______ ____
ROOT
ATOM      1  C   UNL     1      -3.467  12.799  20.851  0.00  0.00    +0.000 A 
ATOM      2  C   UNL     1      -3.100  12.187  19.700  0.00  0.00    +0.000 A 
ATOM      3  C   UNL     1      -4.206  11.648  18.842  0.00  0.00    +0.000 A 
ATOM      4  N   UNL     1      -5.459  11.653  19.176  0.00  0.00    +0.000 NA
ATOM      5  N   UNL     1      -5.816  12.219  20.358  0.00  0.00    +0.000 N 
ATOM      6  C   UNL     1      -7.230  12.201  20.686  0.00  0.00    +0.000 C 
ATOM      7  C   UNL     1      -4.942  12.848  21.221  0.00  0.00    +0.000 A 
ATOM      8  O   UNL     1      -5.327  13.397  22.258  0.00  0.00    +0.000 OA
ENDROOT
BRANCH   3   9
ATOM      9  C   UNL     1      -3.892  11.008  17.526  0.00  0.00    +0.000 A 
ATOM     10  C   UNL     1      -3.309   9.731  17.534  0.00  0.00    +0.000 A 
ATOM     11  C   UNL     1      -2.841   9.163  16.348  0.00  0.00    +0.000 A 
ATOM     12  C   UNL     1      -2.941   9.873  15.155  0.00  0.00    +0.000 A 
ATOM     13  C   UNL     1      -3.593  11.104  15.129  0.00  0.00    +0.000 A 
ATOM     14  C   UNL     1      -4.119  11.645  16.304  0.00  0.00    +0.000 A 
ENDBRANCH   3   9
BRANCH   2  15
ATOM     15  C   UNL     1      -1.630  12.103  19.398  0.00  0.00    +0.000 C 
ATOM     16  O   UNL     1      -1.008  13.043  18.905  0.00  0.00    +0.000 OA
BRANCH  15  17
ATOM     17  C   UNL     1      -0.912  10.810  19.633  0.00  0.00    +0.000 C 
ATOM     18  C   UNL     1       0.293  10.654  19.049  0.00  0.00    +0.000 C 
BRANCH  18  19
ATOM     19  C   UNL     1       1.148   9.459  19.115  0.00  0.00    +0.000 A 
ATOM     20  C   UNL     1       1.292   8.764  20.327  0.00  0.00    +0.000 A 
ATOM     21  C   UNL     1       1.981   7.544  20.370  0.00  0.00    +0.000 A 
ATOM     22  C   UNL     1       2.503   6.992  19.202  0.00  0.00    +0.000 A 
ATOM     23  C   UNL     1       2.409   7.703  18.007  0.00  0.00    +0.000 A 
ATOM     24  C   UNL     1       1.732   8.924  17.963  0.00  0.00    +0.000 A 
BRANCH  22  25
ATOM     25  O   UNL     1       3.107   5.770  19.326  0.00  0.00    +0.000 OA
ATOM     26  C   UNL     1       2.271   4.667  18.984  0.00  0.00    +0.000 C 
ENDBRANCH  22  25
ENDBRANCH  18  19
ENDBRANCH  15  17
ENDBRANCH   2  15
BRANCH   1  27
ATOM     27  N   UNL     1      -2.562  13.360  21.786  0.00  0.00    +0.000 N 
BRANCH  27  29
ATOM     28  C   UNL     1      -3.230  15.615  20.886  0.00  0.00    +0.000 C 
ATOM     29  C   UNL     1      -2.234  14.809  21.703  0.00  0.00    +0.000 C 
ENDBRANCH  27  29
BRANCH  27  30
ATOM     30  C   UNL     1      -2.414  12.777  23.138  0.00  0.00    +0.000 C 
ATOM     31  C   UNL     1      -1.526  11.538  23.094  0.00  0.00    +0.000 C 
ENDBRANCH  27  30
ENDBRANCH   1  27
TORSDOF 8
ENDMDL
MODEL 7
REMARK VINA RESULT:      -6.5      5.026     10.215
REMARK  Name = 
REMARK  12 active torsions:
REMARK  status: ('A' for Active; 'I' for Inactive)
REMARK    1  A    between atoms: C_1  and  C_2
REMARK    2  A    between atoms: C_2  and  N_3
REMARK    3  A    between atoms: N_3  and  C_4
REMARK    4  A    between atoms: N_3  and  C_6
REMARK    5  A    between atoms: C_4  and  C_5
REMARK    6  A    between atoms: C_7  and  C_8
REMARK    7  A    between atoms: C_8  and  C_10
REMARK    8  A    between atoms: C_11  and  C_12
REMARK    9  A    between atoms: C_15  and  O_16
REMARK   10  A    between atoms: O_16  and  C_17
REMARK   11  A    between atoms: C_20  and  C_21
REMARK   12  A    between atoms: N_28  and  C_29
REMARK                            x       y       z     vdW  Elec       q    Type
REMARK                         _______ _______ _______ _____ _____    ______ ____
ROOT
ATOM      1  C   UNL     1      -2.918  12.980  20.884  0.00  0.00    +0.000 A 
ATOM      2  C   UNL     1      -2.588  12.373  19.719  0.00  0.00    +0.000 A 
ATOM      3  C   UNL     1      -3.719  11.821  18.902  0.00  0.00    +0.000 A 
ATOM      4  N   UNL     1      -4.958  11.811  19.283  0.00  0.00    +0.000 NA
ATOM      5  N   UNL     1      -5.277  12.372  20.478  0.00  0.00    +0.000 N 
ATOM      6  C   UNL     1      -6.678  12.336  20.858  0.00  0.00    +0.000 C 
ATOM      7  C   UNL     1      -4.379  13.011  21.308  0.00  0.00    +0.000 A 
ATOM      8  O   UNL     1      -4.732  13.554  22.359  0.00  0.00    +0.000 OA
ENDROOT
BRANCH   3   9
ATOM      9  C   UNL     1      -3.447  11.186  17.575  0.00  0.00    +0.000 A 
ATOM     10  C   UNL     1      -4.120  11.690  16.450  0.00  0.00    +0.000 A 
ATOM     11  C   UNL     1      -4.035  11.030  15.224  0.00  0.00    +0.000 A 
ATOM     12  C   UNL     1      -3.291   9.858  15.119  0.00  0.00    +0.000 A 
ATOM     13  C   UNL     1      -2.555   9.400  16.211  0.00  0.00    +0.000 A 
ATOM     14  C   UNL     1      -2.587  10.096  17.421  0.00  0.00    +0.000 A 
ENDBRANCH   3   9
BRANCH   2  15
ATOM     15  C   UNL     1      -1.130  12.307  19.361  0.00  0.00    +0.000 C 
ATOM     16  O   UNL     1      -0.591  13.150  18.646  0.00  0.00    +0.000 OA
BRANCH  15  17
ATOM     17  C   UNL     1      -0.319  11.137  19.828  0.00  0.00    +0.000 C 
ATOM     18  C   UNL     1       0.417  10.484  18.906  0.00  0.00    +0.000 C 
BRANCH  18  19
ATOM     19  C   UNL     1       1.251   9.295  19.137  0.00  0.00    +0.000 A 
ATOM     20  C   UNL     1       1.209   8.637  20.377  0.00  0.00    +0.000 A 
ATOM     21  C   UNL     1       1.882   7.422  20.561  0.00  0.00    +0.000 A 
ATOM     22  C   UNL     1       2.576   6.837  19.502  0.00  0.00    +0.000 A 
ATOM     23  C   UNL     1       2.665   7.512  18.286  0.00  0.00    +0.000 A 
ATOM     24  C   UNL     1       2.003   8.729  18.104  0.00  0.00    +0.000 A 
BRANCH  22  25
ATOM     25  O   UNL     1       3.153   5.621  19.752  0.00  0.00    +0.000 OA
ATOM     26  C   UNL     1       4.175   5.258  18.828  0.00  0.00    +0.000 C 
ENDBRANCH  22  25
ENDBRANCH  18  19
ENDBRANCH  15  17
ENDBRANCH   2  15
BRANCH   1  27
ATOM     27  N   UNL     1      -1.986  13.552  21.784  0.00  0.00    +0.000 N 
BRANCH  27  29
ATOM     28  C   UNL     1      -0.337  15.334  21.120  0.00  0.00    +0.000 C 
ATOM     29  C   UNL     1      -1.700  15.009  21.709  0.00  0.00    +0.000 C 
ENDBRANCH  27  29
BRANCH  27  30
ATOM     30  C   UNL     1      -1.761  12.953  23.119  0.00  0.00    +0.000 C 
ATOM     31  C   UNL     1      -1.021  11.625  22.994  0.00  0.00    +0.000 C 
ENDBRANCH  27  30
ENDBRANCH   1  27
TORSDOF 8
ENDMDL
MODEL 8
REMARK VINA RESULT:      -6.5      0.517      1.024
REMARK  Name = 
REMARK  12 active torsions:
REMARK  status: ('A' for Active; 'I' for Inactive)
REMARK    1  A    between atoms: C_1  and  C_2
REMARK    2  A    between atoms: C_2  and  N_3
REMARK    3  A    between atoms: N_3  and  C_4
REMARK    4  A    between atoms: N_3  and  C_6
REMARK    5  A    between atoms: C_4  and  C_5
REMARK    6  A    between atoms: C_7  and  C_8
REMARK    7  A    between atoms: C_8  and  C_10
REMARK    8  A    between atoms: C_11  and  C_12
REMARK    9  A    between atoms: C_15  and  O_16
REMARK   10  A    between atoms: O_16  and  C_17
REMARK   11  A    between atoms: C_20  and  C_21
REMARK   12  A    between atoms: N_28  and  C_29
REMARK                            x       y       z     vdW  Elec       q    Type
REMARK                         _______ _______ _______ _____ _____    ______ ____
ROOT
ATOM      1  C   UNL     1       6.174   5.713  17.231  0.00  0.00    +0.000 A 
ATOM      2  C   UNL     1       5.044   5.237  17.805  0.00  0.00    +0.000 A 
ATOM      3  C   UNL     1       4.321   4.149  17.068  0.00  0.00    +0.000 A 
ATOM      4  N   UNL     1       4.657   3.713  15.894  0.00  0.00    +0.000 NA
ATOM      5  N   UNL     1       5.761   4.234  15.297  0.00  0.00    +0.000 N 
ATOM      6  C   UNL     1       6.096   3.712  13.984  0.00  0.00    +0.000 C 
ATOM      7  C   UNL     1       6.596   5.168  15.875  0.00  0.00    +0.000 A 
ATOM      8  O   UNL     1       7.619   5.568  15.311  0.00  0.00    +0.000 OA
ENDROOT
BRANCH   3   9
ATOM      9  C   UNL     1       3.096   3.526  17.660  0.00  0.00    +0.000 A 
ATOM     10  C   UNL     1       3.208   2.238  18.210  0.00  0.00    +0.000 A 
ATOM     11  C   UNL     1       2.068   1.545  18.619  0.00  0.00    +0.000 A 
ATOM     12  C   UNL     1       0.813   2.127  18.467  0.00  0.00    +0.000 A 
ATOM     13  C   UNL     1       0.704   3.435  17.999  0.00  0.00    +0.000 A 
ATOM     14  C   UNL     1       1.849   4.155  17.650  0.00  0.00    +0.000 A 
ENDBRANCH   3   9
BRANCH   2  15
ATOM     15  C   UNL     1       4.624   5.842  19.115  0.00  0.00    +0.000 C 
ATOM     16  O   UNL     1       4.825   5.281  20.191  0.00  0.00    +0.000 OA
BRANCH  15  17
ATOM     17  C   UNL     1       3.870   7.136  19.109  0.00  0.00    +0.000 C 
ATOM     18  C   UNL     1       2.554   7.090  19.401  0.00  0.00    +0.000 C 
BRANCH  18  19
ATOM     19  C   UNL     1       1.622   8.227  19.415  0.00  0.00    +0.000 A 
ATOM     20  C   UNL     1       1.095   8.688  20.632  0.00  0.00    +0.000 A 
ATOM     21  C   UNL     1       0.325   9.858  20.677  0.00  0.00    +0.000 A 
ATOM     22  C   UNL     1       0.101  10.595  19.514  0.00  0.00    +0.000 A 
ATOM     23  C   UNL     1       0.576  10.113  18.296  0.00  0.00    +0.000 A 
ATOM     24  C   UNL     1       1.335   8.940  18.248  0.00  0.00    +0.000 A 
BRANCH  22  25
ATOM     25  O   UNL     1      -0.609  11.756  19.659  0.00  0.00    +0.000 OA
ATOM     26  C   UNL     1      -0.354  12.728  18.649  0.00  0.00    +0.000 C 
ENDBRANCH  22  25
ENDBRANCH  18  19
ENDBRANCH  15  17
ENDBRANCH   2  15
BRANCH   1  27
ATOM     27  N   UNL     1       6.981   6.741  17.778  0.00  0.00    +0.000 N 
BRANCH  27  29
ATOM     28  C   UNL     1       8.027   5.626  19.778  0.00  0.00    +0.000 C 
ATOM     29  C   UNL     1       8.243   6.383  18.477  0.00  0.00    +0.000 C 
ENDBRANCH  27  29
BRANCH  27  30
ATOM     30  C   UNL     1       6.973   8.101  17.192  0.00  0.00    +0.000 C 
ATOM     31  C   UNL     1       8.054   8.966  17.830  0.00  0.00    +0.000 C 
ENDBRANCH  27  30
ENDBRANCH   1  27
TORSDOF 8
ENDMDL
MODEL 9
REMARK VINA RESULT:      -6.4      5.032     10.167
REMARK  Name = 
REMARK  12 active torsions:
REMARK  status: ('A' for Active; 'I' for Inactive)
REMARK    1  A    between atoms: C_1  and  C_2
REMARK    2  A    between atoms: C_2  and  N_3
REMARK    3  A    between atoms: N_3  and  C_4
REMARK    4  A    between atoms: N_3  and  C_6
REMARK    5  A    between atoms: C_4  and  C_5
REMARK    6  A    between atoms: C_7  and  C_8
REMARK    7  A    between atoms: C_8  and  C_10
REMARK    8  A    between atoms: C_11  and  C_12
REMARK    9  A    between atoms: C_15  and  O_16
REMARK   10  A    between atoms: O_16  and  C_17
REMARK   11  A    between atoms: C_20  and  C_21
REMARK   12  A    between atoms: N_28  and  C_29
REMARK                            x       y       z     vdW  Elec       q    Type
REMARK                         _______ _______ _______ _____ _____    ______ ____
ROOT
ATOM      1  C   UNL     1      -3.044  12.964  20.834  0.00  0.00    +0.000 A 
ATOM      2  C   UNL     1      -2.657  12.329  19.702  0.00  0.00    +0.000 A 
ATOM      3  C   UNL     1      -3.747  11.763  18.841  0.00  0.00    +0.000 A 
ATOM      4  N   UNL     1      -5.004  11.764  19.158  0.00  0.00    +0.000 NA
ATOM      5  N   UNL     1      -5.381  12.353  20.322  0.00  0.00    +0.000 N 
ATOM      6  C   UNL     1      -6.800  12.330  20.631  0.00  0.00    +0.000 C 
ATOM      7  C   UNL     1      -4.525  13.008  21.183  0.00  0.00    +0.000 A 
ATOM      8  O   UNL     1      -4.928  13.576  22.202  0.00  0.00    +0.000 OA
ENDROOT
BRANCH   3   9
ATOM      9  C   UNL     1      -3.410  11.097  17.544  0.00  0.00    +0.000 A 
ATOM     10  C   UNL     1      -3.986  11.607  16.369  0.00  0.00    +0.000 A 
ATOM     11  C   UNL     1      -3.843  10.925  15.160  0.00  0.00    +0.000 A 
ATOM     12  C   UNL     1      -3.138   9.725  15.122  0.00  0.00    +0.000 A 
ATOM     13  C   UNL     1      -2.496   9.258  16.268  0.00  0.00    +0.000 A 
ATOM     14  C   UNL     1      -2.584   9.974  17.464  0.00  0.00    +0.000 A 
ENDBRANCH   3   9
BRANCH   2  15
ATOM     15  C   UNL     1      -1.183  12.252  19.421  0.00  0.00    +0.000 C 
ATOM     16  O   UNL     1      -0.566  13.176  18.893  0.00  0.00    +0.000 OA
BRANCH  15  17
ATOM     17  C   UNL     1      -0.451  10.980  19.724  0.00  0.00    +0.000 C 
ATOM     18  C   UNL     1       0.533  10.613  18.879  0.00  0.00    +0.000 C 
BRANCH  18  19
ATOM     19  C   UNL     1       1.349   9.393  18.965  0.00  0.00    +0.000 A 
ATOM     20  C   UNL     1       1.374   8.646  20.154  0.00  0.00    +0.000 A 
ATOM     21  C   UNL     1       2.026   7.407  20.204  0.00  0.00    +0.000 A 
ATOM     22  C   UNL     1       2.630   6.886  19.060  0.00  0.00    +0.000 A 
ATOM     23  C   UNL     1       2.654   7.647  17.893  0.00  0.00    +0.000 A 
ATOM     24  C   UNL     1       2.014   8.888  17.844  0.00  0.00    +0.000 A 
BRANCH  22  25
ATOM     25  O   UNL     1       3.190   5.643  19.182  0.00  0.00    +0.000 OA
ATOM     26  C   UNL     1       3.278   4.919  17.958  0.00  0.00    +0.000 C 
ENDBRANCH  22  25
ENDBRANCH  18  19
ENDBRANCH  15  17
ENDBRANCH   2  15
BRANCH   1  27
ATOM     27  N   UNL     1      -2.157  13.553  21.768  0.00  0.00    +0.000 N 
BRANCH  27  29
ATOM     28  C   UNL     1      -1.926  11.468  23.161  0.00  0.00    +0.000 C 
ATOM     29  C   UNL     1      -1.243  12.682  22.554  0.00  0.00    +0.000 C 
ENDBRANCH  27  29
BRANCH  27  30
ATOM     30  C   UNL     1      -1.668  14.937  21.577  0.00  0.00    +0.000 C 
ATOM     31  C   UNL     1      -0.742  15.341  22.719  0.00  0.00    +0.000 C 
ENDBRANCH  27  30
ENDBRANCH   1  27
TORSDOF 8
ENDMDL
