MODEL 1
REMARK VINA RESULT:      -6.4      0.000      0.000
REMARK  Name = 
REMARK  11 active torsions:
REMARK  status: ('A' for Active; 'I' for Inactive)
REMARK    1  A    between atoms: C_1  and  O_2
REMARK    2  A    between atoms: O_2  and  C_3
REMARK    3  A    between atoms: C_5  and  N_6
REMARK    4  A    between atoms: N_6  and  C_7
REMARK    5  A    between atoms: C_7  and  C_8
REMARK    6  A    between atoms: C_7  and  C_9
REMARK    7  A    between atoms: C_9  and  C_10
REMARK    8  A    between atoms: C_10  and  C_11
REMARK    9  A    between atoms: C_11  and  N_12
REMARK   10  A    between atoms: C_19  and  S_20
REMARK   11  A    between atoms: S_20  and  C_21
REMARK                            x       y       z     vdW  Elec       q    Type
REMARK                         _______ _______ _______ _____ _____    ______ ____
ROOT
ATOM      1  C   UNL     1       0.438   8.839  21.135  0.00  0.00    +0.000 A 
ATOM      2  C   UNL     1       0.854   7.547  21.443  0.00  0.00    +0.000 A 
ATOM      3  C   UNL     1       1.667   6.797  20.588  0.00  0.00    +0.000 A 
ATOM      4  C   UNL     1       2.170   7.390  19.417  0.00  0.00    +0.000 A 
ATOM      5  N   UNL     1       3.014   6.676  18.630  0.00  0.00    +0.000 NA
ATOM      6  C   UNL     1       3.551   7.260  17.541  0.00  0.00    +0.000 A 
ATOM      7  C   UNL     1       3.288   8.554  17.160  0.00  0.00    +0.000 A 
ATOM      8  C   UNL     1       2.408   9.289  17.946  0.00  0.00    +0.000 A 
ATOM      9  C   UNL     1       1.815   8.733  19.106  0.00  0.00    +0.000 A 
ATOM     10  C   UNL     1       0.917   9.449  19.961  0.00  0.00    +0.000 A 
ENDROOT
BRANCH   1  12
ATOM     11  C   UNL     1      -0.139   9.683  23.294  0.00  0.00    +0.000 C 
ATOM     12  O   UNL     1      -0.456   9.532  21.913  0.00  0.00    +0.000 OA
ENDBRANCH   1  12
BRANCH   3  13
ATOM     13  N   UNL     1       1.994   5.476  20.927  0.00  0.00    +0.000 N 
ATOM     14  H   UNL     1       2.779   5.386  21.571  0.00  0.00    +0.000 HD
BRANCH  13  15
ATOM     15  C   UNL     1       1.150   4.316  20.654  0.00  0.00    +0.000 C 
ATOM     16  C   UNL     1       1.026   4.098  19.144  0.00  0.00    +0.000 C 
BRANCH  15  17
ATOM     17  C   UNL     1       1.753   3.053  21.302  0.00  0.00    +0.000 C 
BRANCH  17  18
ATOM     18  C   UNL     1       2.658   2.229  20.378  0.00  0.00    +0.000 C 
BRANCH  18  19
ATOM     19  C   UNL     1       4.086   2.756  20.226  0.00  0.00    +0.000 C 
BRANCH  19  20
ATOM     20  N   UNL     1       5.053   1.678  20.042  0.00  0.00    +0.000 NA
ATOM     21  H   UNL     1       4.902   0.945  20.729  0.00  0.00    +0.000 HD
ATOM     22  H   UNL     1       5.991   2.038  20.213  0.00  0.00    +0.000 HD
ENDBRANCH  19  20
ENDBRANCH  18  19
ENDBRANCH  17  18
ENDBRANCH  15  17
ENDBRANCH  13  15
ENDBRANCH   3  13
BRANCH  10  23
ATOM     23  S   UNL     1       0.514  11.197  19.669  0.00  0.00    +0.000 S 
BRANCH  23  24
ATOM     24  C   UNL     1      -1.097  11.122  18.878  0.00  0.00    +0.000 A 
ATOM     25  C   UNL     1      -1.229  10.386  17.689  0.00  0.00    +0.000 A 
ATOM     26  C   UNL     1      -2.471  10.259  17.070  0.00  0.00    +0.000 A 
ATOM     27 CL   UNL     1      -2.618   9.344  15.620  0.00  0.00    +0.000 Cl
ATOM     28  C   UNL     1      -3.606  10.860  17.621  0.00  0.00    +0.000 A 
ATOM     29  C   UNL     1      -3.500  11.570  18.807  0.00  0.00    +0.000 A 
ATOM     30  C   UNL     1      -2.249  11.699  19.445  0.00  0.00    +0.000 A 
ATOM     31 CL   UNL     1      -2.231  12.551  20.952  0.00  0.00    +0.000 Cl
ENDBRANCH  23  24
ENDBRANCH  10  23
TORSDOF 9
ENDMDL
MODEL 2
REMARK VINA RESULT:      -6.3      1.877      3.482
REMARK  Name = 
REMARK  11 active torsions:
REMARK  status: ('A' for Active; 'I' for Inactive)
REMARK    1  A    between atoms: C_1  and  O_2
REMARK    2  A    between atoms: O_2  and  C_3
REMARK    3  A    between atoms: C_5  and  N_6
REMARK    4  A    between atoms: N_6  and  C_7
REMARK    5  A    between atoms: C_7  and  C_8
REMARK    6  A    between atoms: C_7  and  C_9
REMARK    7  A    between atoms: C_9  and  C_10
REMARK    8  A    between atoms: C_10  and  C_11
REMARK    9  A    between atoms: C_11  and  N_12
REMARK   10  A    between atoms: C_19  and  S_20
REMARK   11  A    between atoms: S_20  and  C_21
REMARK                            x       y       z     vdW  Elec       q    Type
REMARK                         _______ _______ _______ _____ _____    ______ ____
ROOT
ATOM      1  C   UNL     1       1.216  10.301  18.849  0.00  0.00    +0.000 A 
ATOM      2  C   UNL     1       1.683   9.047  19.233  0.00  0.00    +0.000 A 
ATOM      3  C   UNL     1       1.451   8.517  20.505  0.00  0.00    +0.000 A 
ATOM      4  C   UNL     1       0.638   9.222  21.409  0.00  0.00    +0.000 A 
ATOM      5  N   UNL     1       0.363   8.665  22.616  0.00  0.00    +0.000 NA
ATOM      6  C   UNL     1      -0.469   9.306  23.462  0.00  0.00    +0.000 A 
ATOM      7  C   UNL     1      -1.062  10.513  23.182  0.00  0.00    +0.000 A 
ATOM      8  C   UNL     1      -0.772  11.104  21.958  0.00  0.00    +0.000 A 
ATOM      9  C   UNL     1       0.091  10.478  21.023  0.00  0.00    +0.000 A 
ATOM     10  C   UNL     1       0.410  11.031  19.742  0.00  0.00    +0.000 A 
ENDROOT
BRANCH   1  12
ATOM     11  C   UNL     1       2.644  11.779  17.631  0.00  0.00    +0.000 C 
ATOM     12  O   UNL     1       1.542  10.874  17.645  0.00  0.00    +0.000 OA
ENDBRANCH   1  12
BRANCH   3  13
ATOM     13  N   UNL     1       2.008   7.277  20.850  0.00  0.00    +0.000 N 
ATOM     14  H   UNL     1       2.207   7.163  21.843  0.00  0.00    +0.000 HD
BRANCH  13  15
ATOM     15  C   UNL     1       2.051   6.113  19.970  0.00  0.00    +0.000 C 
ATOM     16  C   UNL     1       3.499   5.785  19.599  0.00  0.00    +0.000 C 
BRANCH  15  17
ATOM     17  C   UNL     1       1.416   4.892  20.668  0.00  0.00    +0.000 C 
BRANCH  17  18
ATOM     18  C   UNL     1       1.926   3.534  20.170  0.00  0.00    +0.000 C 
BRANCH  18  19
ATOM     19  C   UNL     1       0.950   2.758  19.284  0.00  0.00    +0.000 C 
BRANCH  19  20
ATOM     20  N   UNL     1       1.593   1.632  18.612  0.00  0.00    +0.000 NA
ATOM     21  H   UNL     1       2.350   1.264  19.182  0.00  0.00    +0.000 HD
ATOM     22  H   UNL     1       2.023   1.960  17.748  0.00  0.00    +0.000 HD
ENDBRANCH  19  20
ENDBRANCH  18  19
ENDBRANCH  17  18
ENDBRANCH  15  17
ENDBRANCH  13  15
ENDBRANCH   3  13
BRANCH  10  23
ATOM     23  S   UNL     1      -0.343  12.579  19.159  0.00  0.00    +0.000 S 
BRANCH  23  24
ATOM     24  C   UNL     1      -1.898  12.036  18.442  0.00  0.00    +0.000 A 
ATOM     25  C   UNL     1      -1.871  11.352  17.215  0.00  0.00    +0.000 A 
ATOM     26  C   UNL     1      -3.049  10.869  16.650  0.00  0.00    +0.000 A 
ATOM     27 CL   UNL     1      -2.998  10.022  15.152  0.00  0.00    +0.000 Cl
ATOM     28  C   UNL     1      -4.277  11.054  17.292  0.00  0.00    +0.000 A 
ATOM     29  C   UNL     1      -4.320  11.706  18.515  0.00  0.00    +0.000 A 
ATOM     30  C   UNL     1      -3.133  12.193  19.099  0.00  0.00    +0.000 A 
ATOM     31 CL   UNL     1      -3.283  12.936  20.656  0.00  0.00    +0.000 Cl
ENDBRANCH  23  24
ENDBRANCH  10  23
TORSDOF 9
ENDMDL
MODEL 3
REMARK VINA RESULT:      -6.2      1.442      1.807
REMARK  Name = 
REMARK  11 active torsions:
REMARK  status: ('A' for Active; 'I' for Inactive)
REMARK    1  A    between atoms: C_1  and  O_2
REMARK    2  A    between atoms: O_2  and  C_3
REMARK    3  A    between atoms: C_5  and  N_6
REMARK    4  A    between atoms: N_6  and  C_7
REMARK    5  A    between atoms: C_7  and  C_8
REMARK    6  A    between atoms: C_7  and  C_9
REMARK    7  A    between atoms: C_9  and  C_10
REMARK    8  A    between atoms: C_10  and  C_11
REMARK    9  A    between atoms: C_11  and  N_12
REMARK   10  A    between atoms: C_19  and  S_20
REMARK   11  A    between atoms: S_20  and  C_21
REMARK                            x       y       z     vdW  Elec       q    Type
REMARK                         _______ _______ _______ _____ _____    ______ ____
ROOT
ATOM      1  C   UNL     1       1.155   8.712  20.478  0.00  0.00    +0.000 A 
ATOM      2  C   UNL     1       1.312   7.493  21.132  0.00  0.00    +0.000 A 
ATOM      3  C   UNL     1       1.999   6.418  20.561  0.00  0.00    +0.000 A 
ATOM      4  C   UNL     1       2.643   6.589  19.324  0.00  0.00    +0.000 A 
ATOM      5  N   UNL     1       3.365   5.560  18.812  0.00  0.00    +0.000 NA
ATOM      6  C   UNL     1       4.038   5.738  17.658  0.00  0.00    +0.000 A 
ATOM      7  C   UNL     1       4.035   6.913  16.945  0.00  0.00    +0.000 A 
ATOM      8  C   UNL     1       3.282   7.968  17.448  0.00  0.00    +0.000 A 
ATOM      9  C   UNL     1       2.556   7.845  18.659  0.00  0.00    +0.000 A 
ATOM     10  C   UNL     1       1.780   8.902  19.232  0.00  0.00    +0.000 A 
ENDROOT
BRANCH   1  12
ATOM     11  C   UNL     1      -0.312   9.475  22.202  0.00  0.00    +0.000 C 
ATOM     12  O   UNL     1       0.381   9.727  20.983  0.00  0.00    +0.000 OA
ENDBRANCH   1  12
BRANCH   3  13
ATOM     13  N   UNL     1       2.061   5.196  21.245  0.00  0.00    +0.000 N 
ATOM     14  H   UNL     1       1.873   5.259  22.245  0.00  0.00    +0.000 HD
BRANCH  13  15
ATOM     15  C   UNL     1       2.095   3.885  20.602  0.00  0.00    +0.000 C 
ATOM     16  C   UNL     1       2.639   2.835  21.575  0.00  0.00    +0.000 C 
BRANCH  15  17
ATOM     17  C   UNL     1       0.679   3.475  20.151  0.00  0.00    +0.000 C 
BRANCH  17  18
ATOM     18  C   UNL     1       0.622   2.759  18.795  0.00  0.00    +0.000 C 
BRANCH  18  19
ATOM     19  C   UNL     1       1.975   2.322  18.233  0.00  0.00    +0.000 C 
BRANCH  19  20
ATOM     20  N   UNL     1       2.309   3.021  16.995  0.00  0.00    +0.000 NA
ATOM     21  H   UNL     1       1.689   3.815  16.858  0.00  0.00    +0.000 HD
ATOM     22  H   UNL     1       2.148   2.398  16.205  0.00  0.00    +0.000 HD
ENDBRANCH  19  20
ENDBRANCH  18  19
ENDBRANCH  17  18
ENDBRANCH  15  17
ENDBRANCH  13  15
ENDBRANCH   3  13
BRANCH  10  23
ATOM     23  S   UNL     1       1.721  10.556  18.479  0.00  0.00    +0.000 S 
BRANCH  23  24
ATOM     24  C   UNL     1      -0.027  10.967  18.525  0.00  0.00    +0.000 A 
ATOM     25  C   UNL     1      -0.932  10.131  17.852  0.00  0.00    +0.000 A 
ATOM     26  C   UNL     1      -2.301  10.385  17.904  0.00  0.00    +0.000 A 
ATOM     27 CL   UNL     1      -3.399   9.344  17.084  0.00  0.00    +0.000 Cl
ATOM     28  C   UNL     1      -2.798  11.474  18.627  0.00  0.00    +0.000 A 
ATOM     29  C   UNL     1      -1.921  12.296  19.317  0.00  0.00    +0.000 A 
ATOM     30  C   UNL     1      -0.534  12.044  19.276  0.00  0.00    +0.000 A 
ATOM     31 CL   UNL     1       0.473  13.090  20.220  0.00  0.00    +0.000 Cl
ENDBRANCH  23  24
ENDBRANCH  10  23
TORSDOF 9
ENDMDL
MODEL 4
REMARK VINA RESULT:      -6.1      5.072      8.309
REMARK  Name = 
REMARK  11 active torsions:
REMARK  status: ('A' for Active; 'I' for Inactive)
REMARK    1  A    between atoms: C_1  and  O_2
REMARK    2  A    between atoms: O_2  and  C_3
REMARK    3  A    between atoms: C_5  and  N_6
REMARK    4  A    between atoms: N_6  and  C_7
REMARK    5  A    between atoms: C_7  and  C_8
REMARK    6  A    between atoms: C_7  and  C_9
REMARK    7  A    between atoms: C_9  and  C_10
REMARK    8  A    between atoms: C_10  and  C_11
REMARK    9  A    between atoms: C_11  and  N_12
REMARK   10  A    between atoms: C_19  and  S_20
REMARK   11  A    between atoms: S_20  and  C_21
REMARK                            x       y       z     vdW  Elec       q    Type
REMARK                         _______ _______ _______ _____ _____    ______ ____
ROOT
ATOM      1  C   UNL     1       3.821   6.611  18.063  0.00  0.00    +0.000 A 
ATOM      2  C   UNL     1       4.860   7.514  17.852  0.00  0.00    +0.000 A 
ATOM      3  C   UNL     1       5.974   7.205  17.067  0.00  0.00    +0.000 A 
ATOM      4  C   UNL     1       6.016   5.980  16.380  0.00  0.00    +0.000 A 
ATOM      5  N   UNL     1       7.071   5.720  15.565  0.00  0.00    +0.000 NA
ATOM      6  C   UNL     1       7.086   4.576  14.853  0.00  0.00    +0.000 A 
ATOM      7  C   UNL     1       6.091   3.630  14.906  0.00  0.00    +0.000 A 
ATOM      8  C   UNL     1       5.016   3.874  15.753  0.00  0.00    +0.000 A 
ATOM      9  C   UNL     1       4.939   5.061  16.523  0.00  0.00    +0.000 A 
ATOM     10  C   UNL     1       3.848   5.372  17.396  0.00  0.00    +0.000 A 
ENDROOT
BRANCH   1  12
ATOM     11  C   UNL     1       2.141   8.131  18.820  0.00  0.00    +0.000 C 
ATOM     12  O   UNL     1       2.786   6.865  18.928  0.00  0.00    +0.000 OA
ENDBRANCH   1  12
BRANCH   3  13
ATOM     13  N   UNL     1       7.017   8.135  16.951  0.00  0.00    +0.000 N 
ATOM     14  H   UNL     1       7.122   8.540  16.021  0.00  0.00    +0.000 HD
BRANCH  13  15
ATOM     15  C   UNL     1       7.730   8.729  18.078  0.00  0.00    +0.000 C 
ATOM     16  C   UNL     1       8.505   7.650  18.838  0.00  0.00    +0.000 C 
BRANCH  15  17
ATOM     17  C   UNL     1       8.713   9.807  17.581  0.00  0.00    +0.000 C 
BRANCH  17  18
ATOM     18  C   UNL     1       9.296  10.700  18.684  0.00  0.00    +0.000 C 
BRANCH  18  19
ATOM     19  C   UNL     1      10.094  11.907  18.190  0.00  0.00    +0.000 C 
BRANCH  19  20
ATOM     20  N   UNL     1      11.218  11.514  17.345  0.00  0.00    +0.000 NA
ATOM     21  H   UNL     1      12.015  12.124  17.509  0.00  0.00    +0.000 HD
ATOM     22  H   UNL     1      10.962  11.641  16.367  0.00  0.00    +0.000 HD
ENDBRANCH  19  20
ENDBRANCH  18  19
ENDBRANCH  17  18
ENDBRANCH  15  17
ENDBRANCH  13  15
ENDBRANCH   3  13
BRANCH  10  23
ATOM     23  S   UNL     1       2.399   4.284  17.535  0.00  0.00    +0.000 S 
BRANCH  23  24
ATOM     24  C   UNL     1       2.650   3.463  19.113  0.00  0.00    +0.000 A 
ATOM     25  C   UNL     1       3.757   2.610  19.258  0.00  0.00    +0.000 A 
ATOM     26  C   UNL     1       4.018   1.993  20.480  0.00  0.00    +0.000 A 
ATOM     27 CL   UNL     1       5.385   0.961  20.646  0.00  0.00    +0.000 Cl
ATOM     28  C   UNL     1       3.185   2.212  21.582  0.00  0.00    +0.000 A 
ATOM     29  C   UNL     1       2.102   3.069  21.463  0.00  0.00    +0.000 A 
ATOM     30  C   UNL     1       1.833   3.704  20.233  0.00  0.00    +0.000 A 
ATOM     31 CL   UNL     1       0.495   4.803  20.204  0.00  0.00    +0.000 Cl
ENDBRANCH  23  24
ENDBRANCH  10  23
TORSDOF 9
ENDMDL
MODEL 5
REMARK VINA RESULT:      -6.1      5.851      8.486
REMARK  Name = 
REMARK  11 active torsions:
REMARK  status: ('A' for Active; 'I' for Inactive)
REMARK    1  A    between atoms: C_1  and  O_2
REMARK    2  A    between atoms: O_2  and  C_3
REMARK    3  A    between atoms: C_5  and  N_6
REMARK    4  A    between atoms: N_6  and  C_7
REMARK    5  A    between atoms: C_7  and  C_8
REMARK    6  A    between atoms: C_7  and  C_9
REMARK    7  A    between atoms: C_9  and  C_10
REMARK    8  A    between atoms: C_10  and  C_11
REMARK    9  A    between atoms: C_11  and  N_12
REMARK   10  A    between atoms: C_19  and  S_20
REMARK   11  A    between atoms: S_20  and  C_21
REMARK                            x       y       z     vdW  Elec       q    Type
REMARK                         _______ _______ _______ _____ _____    ______ ____
ROOT
ATOM      1  C   UNL     1      -2.763  12.385  20.655  0.00  0.00    +0.000 A 
ATOM      2  C   UNL     1      -4.048  12.761  20.275  0.00  0.00    +0.000 A 
ATOM      3  C   UNL     1      -4.569  12.479  19.009  0.00  0.00    +0.000 A 
ATOM      4  C   UNL     1      -3.816  11.704  18.110  0.00  0.00    +0.000 A 
ATOM      5  N   UNL     1      -4.360  11.377  16.910  0.00  0.00    +0.000 NA
ATOM      6  C   UNL     1      -3.671  10.580  16.070  0.00  0.00    +0.000 A 
ATOM      7  C   UNL     1      -2.424  10.073  16.348  0.00  0.00    +0.000 A 
ATOM      8  C   UNL     1      -1.847  10.418  17.565  0.00  0.00    +0.000 A 
ATOM      9  C   UNL     1      -2.524  11.248  18.493  0.00  0.00    +0.000 A 
ATOM     10  C   UNL     1      -1.986  11.619  19.767  0.00  0.00    +0.000 A 
ENDROOT
BRANCH   1  12
ATOM     11  C   UNL     1      -2.812  12.265  23.040  0.00  0.00    +0.000 C 
ATOM     12  O   UNL     1      -2.206  12.764  21.851  0.00  0.00    +0.000 OA
ENDBRANCH   1  12
BRANCH   3  13
ATOM     13  N   UNL     1      -5.846  12.946  18.666  0.00  0.00    +0.000 N 
ATOM     14  H   UNL     1      -5.859  13.621  17.903  0.00  0.00    +0.000 HD
BRANCH  13  15
ATOM     15  C   UNL     1      -7.098  12.347  19.118  0.00  0.00    +0.000 C 
ATOM     16  C   UNL     1      -6.865  10.895  19.543  0.00  0.00    +0.000 C 
BRANCH  15  17
ATOM     17  C   UNL     1      -7.670  13.140  20.311  0.00  0.00    +0.000 C 
BRANCH  17  18
ATOM     18  C   UNL     1      -7.717  12.363  21.633  0.00  0.00    +0.000 C 
BRANCH  18  19
ATOM     19  C   UNL     1      -7.076  13.071  22.827  0.00  0.00    +0.000 C 
BRANCH  19  20
ATOM     20  N   UNL     1      -6.415  12.134  23.732  0.00  0.00    +0.000 NA
ATOM     21  H   UNL     1      -5.414  12.117  23.555  0.00  0.00    +0.000 HD
ATOM     22  H   UNL     1      -6.752  11.192  23.542  0.00  0.00    +0.000 HD
ENDBRANCH  19  20
ENDBRANCH  18  19
ENDBRANCH  17  18
ENDBRANCH  15  17
ENDBRANCH  13  15
ENDBRANCH   3  13
BRANCH  10  23
ATOM     23  S   UNL     1      -0.387  10.980  20.348  0.00  0.00    +0.000 S 
BRANCH  23  24
ATOM     24  C   UNL     1       0.804  12.060  19.549  0.00  0.00    +0.000 A 
ATOM     25  C   UNL     1       0.883  13.400  19.964  0.00  0.00    +0.000 A 
ATOM     26  C   UNL     1       1.828  14.259  19.406  0.00  0.00    +0.000 A 
ATOM     27 CL   UNL     1       1.919  15.894  19.936  0.00  0.00    +0.000 Cl
ATOM     28  C   UNL     1       2.713  13.804  18.424  0.00  0.00    +0.000 A 
ATOM     29  C   UNL     1       2.666  12.479  18.018  0.00  0.00    +0.000 A 
ATOM     30  C   UNL     1       1.718  11.600  18.582  0.00  0.00    +0.000 A 
ATOM     31 CL   UNL     1       1.780   9.952  18.055  0.00  0.00    +0.000 Cl
ENDBRANCH  23  24
ENDBRANCH  10  23
TORSDOF 9
ENDMDL
MODEL 6
REMARK VINA RESULT:      -6.0      4.544      8.493
REMARK  Name = 
REMARK  11 active torsions:
REMARK  status: ('A' for Active; 'I' for Inactive)
REMARK    1  A    between atoms: C_1  and  O_2
REMARK    2  A    between atoms: O_2  and  C_3
REMARK    3  A    between atoms: C_5  and  N_6
REMARK    4  A    between atoms: N_6  and  C_7
REMARK    5  A    between atoms: C_7  and  C_8
REMARK    6  A    between atoms: C_7  and  C_9
REMARK    7  A    between atoms: C_9  and  C_10
REMARK    8  A    between atoms: C_10  and  C_11
REMARK    9  A    between atoms: C_11  and  N_12
REMARK   10  A    between atoms: C_19  and  S_20
REMARK   11  A    between atoms: S_20  and  C_21
REMARK                            x       y       z     vdW  Elec       q    Type
REMARK                         _______ _______ _______ _____ _____    ______ ____
ROOT
ATOM      1  C   UNL     1      -1.442  13.174  20.203  0.00  0.00    +0.000 A 
ATOM      2  C   UNL     1      -2.794  13.343  20.487  0.00  0.00    +0.000 A 
ATOM      3  C   UNL     1      -3.801  12.740  19.729  0.00  0.00    +0.000 A 
ATOM      4  C   UNL     1      -3.451  11.850  18.698  0.00  0.00    +0.000 A 
ATOM      5  N   UNL     1      -4.437  11.217  18.014  0.00  0.00    +0.000 NA
ATOM      6  C   UNL     1      -4.107  10.314  17.069  0.00  0.00    +0.000 A 
ATOM      7  C   UNL     1      -2.813   9.992  16.738  0.00  0.00    +0.000 A 
ATOM      8  C   UNL     1      -1.794  10.649  17.417  0.00  0.00    +0.000 A 
ATOM      9  C   UNL     1      -2.075  11.605  18.425  0.00  0.00    +0.000 A 
ATOM     10  C   UNL     1      -1.067  12.298  19.168  0.00  0.00    +0.000 A 
ENDROOT
BRANCH   1  12
ATOM     11  C   UNL     1      -0.361  15.260  20.632  0.00  0.00    +0.000 C 
ATOM     12  O   UNL     1      -0.456  13.858  20.869  0.00  0.00    +0.000 OA
ENDBRANCH   1  12
BRANCH   3  13
ATOM     13  N   UNL     1      -5.145  13.007  20.026  0.00  0.00    +0.000 N 
ATOM     14  H   UNL     1      -5.620  13.599  19.346  0.00  0.00    +0.000 HD
BRANCH  13  15
ATOM     15  C   UNL     1      -5.928  12.300  21.035  0.00  0.00    +0.000 C 
ATOM     16  C   UNL     1      -6.076  13.164  22.290  0.00  0.00    +0.000 C 
BRANCH  15  17
ATOM     17  C   UNL     1      -7.328  11.960  20.484  0.00  0.00    +0.000 C 
BRANCH  17  18
ATOM     18  C   UNL     1      -7.403  11.840  18.956  0.00  0.00    +0.000 C 
BRANCH  18  19
ATOM     19  C   UNL     1      -7.672  13.149  18.213  0.00  0.00    +0.000 C 
BRANCH  19  20
ATOM     20  N   UNL     1      -6.517  13.589  17.436  0.00  0.00    +0.000 NA
ATOM     21  H   UNL     1      -5.909  12.801  17.228  0.00  0.00    +0.000 HD
ATOM     22  H   UNL     1      -5.962  14.234  17.997  0.00  0.00    +0.000 HD
ENDBRANCH  19  20
ENDBRANCH  18  19
ENDBRANCH  17  18
ENDBRANCH  15  17
ENDBRANCH  13  15
ENDBRANCH   3  13
BRANCH  10  23
ATOM     23  S   UNL     1       0.701  11.945  18.932  0.00  0.00    +0.000 S 
BRANCH  23  24
ATOM     24  C   UNL     1       0.957  10.458  19.906  0.00  0.00    +0.000 A 
ATOM     25  C   UNL     1       0.585  10.468  21.260  0.00  0.00    +0.000 A 
ATOM     26  C   UNL     1       0.719   9.321  22.039  0.00  0.00    +0.000 A 
ATOM     27 CL   UNL     1       0.246   9.346  23.693  0.00  0.00    +0.000 Cl
ATOM     28  C   UNL     1       1.225   8.140  21.487  0.00  0.00    +0.000 A 
ATOM     29  C   UNL     1       1.576   8.104  20.146  0.00  0.00    +0.000 A 
ATOM     30  C   UNL     1       1.437   9.258  19.348  0.00  0.00    +0.000 A 
ATOM     31 CL   UNL     1       1.843   9.095  17.673  0.00  0.00    +0.000 Cl
ENDBRANCH  23  24
ENDBRANCH  10  23
TORSDOF 9
ENDMDL
MODEL 7
REMARK VINA RESULT:      -5.9      1.804      3.416
REMARK  Name = 
REMARK  11 active torsions:
REMARK  status: ('A' for Active; 'I' for Inactive)
REMARK    1  A    between atoms: C_1  and  O_2
REMARK    2  A    between atoms: O_2  and  C_3
REMARK    3  A    between atoms: C_5  and  N_6
REMARK    4  A    between atoms: N_6  and  C_7
REMARK    5  A    between atoms: C_7  and  C_8
REMARK    6  A    between atoms: C_7  and  C_9
REMARK    7  A    between atoms: C_9  and  C_10
REMARK    8  A    between atoms: C_10  and  C_11
REMARK    9  A    between atoms: C_11  and  N_12
REMARK   10  A    between atoms: C_19  and  S_20
REMARK   11  A    between atoms: S_20  and  C_21
REMARK                            x       y       z     vdW  Elec       q    Type
REMARK                         _______ _______ _______ _____ _____    ______ ____
ROOT
ATOM      1  C   UNL     1       1.496  10.323  18.559  0.00  0.00    +0.000 A 
ATOM      2  C   UNL     1       1.958   9.027  18.769  0.00  0.00    +0.000 A 
ATOM      3  C   UNL     1       1.726   8.331  19.958  0.00  0.00    +0.000 A 
ATOM      4  C   UNL     1       0.915   8.910  20.950  0.00  0.00    +0.000 A 
ATOM      5  N   UNL     1       0.640   8.197  22.072  0.00  0.00    +0.000 NA
ATOM      6  C   UNL     1      -0.189   8.720  22.997  0.00  0.00    +0.000 A 
ATOM      7  C   UNL     1      -0.778   9.956  22.883  0.00  0.00    +0.000 A 
ATOM      8  C   UNL     1      -0.486  10.706  21.749  0.00  0.00    +0.000 A 
ATOM      9  C   UNL     1       0.373  10.209  20.738  0.00  0.00    +0.000 A 
ATOM     10  C   UNL     1       0.693  10.929  19.543  0.00  0.00    +0.000 A 
ENDROOT
BRANCH   1  12
ATOM     11  C   UNL     1       2.783  12.094  17.603  0.00  0.00    +0.000 C 
ATOM     12  O   UNL     1       1.823  11.052  17.443  0.00  0.00    +0.000 OA
ENDBRANCH   1  12
BRANCH   3  13
ATOM     13  N   UNL     1       2.278   7.054  20.132  0.00  0.00    +0.000 N 
ATOM     14  H   UNL     1       2.258   6.710  21.091  0.00  0.00    +0.000 HD
BRANCH  13  15
ATOM     15  C   UNL     1       2.599   6.134  19.045  0.00  0.00    +0.000 C 
ATOM     16  C   UNL     1       4.112   5.916  18.968  0.00  0.00    +0.000 C 
BRANCH  15  17
ATOM     17  C   UNL     1       1.901   4.777  19.270  0.00  0.00    +0.000 C 
BRANCH  17  18
ATOM     18  C   UNL     1       1.369   4.559  20.692  0.00  0.00    +0.000 C 
BRANCH  18  19
ATOM     19  C   UNL     1       2.232   3.658  21.578  0.00  0.00    +0.000 C 
BRANCH  19  20
ATOM     20  N   UNL     1       1.503   2.479  22.039  0.00  0.00    +0.000 NA
ATOM     21  H   UNL     1       0.903   2.718  22.824  0.00  0.00    +0.000 HD
ATOM     22  H   UNL     1       2.168   1.791  22.389  0.00  0.00    +0.000 HD
ENDBRANCH  19  20
ENDBRANCH  18  19
ENDBRANCH  17  18
ENDBRANCH  15  17
ENDBRANCH  13  15
ENDBRANCH   3  13
BRANCH  10  23
ATOM     23  S   UNL     1      -0.055  12.544  19.175  0.00  0.00    +0.000 S 
BRANCH  23  24
ATOM     24  C   UNL     1      -1.676  12.111  18.534  0.00  0.00    +0.000 A 
ATOM     25  C   UNL     1      -1.758  11.489  17.277  0.00  0.00    +0.000 A 
ATOM     26  C   UNL     1      -2.991  11.089  16.766  0.00  0.00    +0.000 A 
ATOM     27 CL   UNL     1      -3.074  10.318  15.230  0.00  0.00    +0.000 Cl
ATOM     28  C   UNL     1      -4.167  11.300  17.493  0.00  0.00    +0.000 A 
ATOM     29  C   UNL     1      -4.102  11.891  18.746  0.00  0.00    +0.000 A 
ATOM     30  C   UNL     1      -2.858  12.292  19.275  0.00  0.00    +0.000 A 
ATOM     31 CL   UNL     1      -2.876  12.964  20.871  0.00  0.00    +0.000 Cl
ENDBRANCH  23  24
ENDBRANCH  10  23
TORSDOF 9
ENDMDL
MODEL 8
REMARK VINA RESULT:      -5.9      4.726      8.836
REMARK  Name = 
REMARK  11 active torsions:
REMARK  status: ('A' for Active; 'I' for Inactive)
REMARK    1  A    between atoms: C_1  and  O_2
REMARK    2  A    between atoms: O_2  and  C_3
REMARK    3  A    between atoms: C_5  and  N_6
REMARK    4  A    between atoms: N_6  and  C_7
REMARK    5  A    between atoms: C_7  and  C_8
REMARK    6  A    between atoms: C_7  and  C_9
REMARK    7  A    between atoms: C_9  and  C_10
REMARK    8  A    between atoms: C_10  and  C_11
REMARK    9  A    between atoms: C_11  and  N_12
REMARK   10  A    between atoms: C_19  and  S_20
REMARK   11  A    between atoms: S_20  and  C_21
REMARK                            x       y       z     vdW  Elec       q    Type
REMARK                         _______ _______ _______ _____ _____    ______ ____
ROOT
ATOM      1  C   UNL     1      -1.495  13.419  20.549  0.00  0.00    +0.000 A 
ATOM      2  C   UNL     1      -2.769  13.645  21.059  0.00  0.00    +0.000 A 
ATOM      3  C   UNL     1      -3.917  13.097  20.480  0.00  0.00    +0.000 A 
ATOM      4  C   UNL     1      -3.788  12.205  19.402  0.00  0.00    +0.000 A 
ATOM      5  N   UNL     1      -4.904  11.625  18.892  0.00  0.00    +0.000 NA
ATOM      6  C   UNL     1      -4.782  10.719  17.901  0.00  0.00    +0.000 A 
ATOM      7  C   UNL     1      -3.579  10.344  17.354  0.00  0.00    +0.000 A 
ATOM      8  C   UNL     1      -2.429  10.947  17.852  0.00  0.00    +0.000 A 
ATOM      9  C   UNL     1      -2.492  11.902  18.897  0.00  0.00    +0.000 A 
ATOM     10  C   UNL     1      -1.341  12.540  19.461  0.00  0.00    +0.000 A 
ENDROOT
BRANCH   1  12
ATOM     11  C   UNL     1      -0.292  15.461  20.852  0.00  0.00    +0.000 C 
ATOM     12  O   UNL     1      -0.379  14.050  21.040  0.00  0.00    +0.000 OA
ENDBRANCH   1  12
BRANCH   3  13
ATOM     13  N   UNL     1      -5.178  13.420  21.003  0.00  0.00    +0.000 N 
ATOM     14  H   UNL     1      -5.730  12.617  21.304  0.00  0.00    +0.000 HD
BRANCH  13  15
ATOM     15  C   UNL     1      -5.600  14.765  21.381  0.00  0.00    +0.000 C 
ATOM     16  C   UNL     1      -6.730  15.240  20.464  0.00  0.00    +0.000 C 
BRANCH  15  17
ATOM     17  C   UNL     1      -6.091  14.781  22.843  0.00  0.00    +0.000 C 
BRANCH  17  18
ATOM     18  C   UNL     1      -5.941  13.445  23.583  0.00  0.00    +0.000 C 
BRANCH  18  19
ATOM     19  C   UNL     1      -7.234  12.643  23.744  0.00  0.00    +0.000 C 
BRANCH  19  20
ATOM     20  N   UNL     1      -7.464  11.740  22.620  0.00  0.00    +0.000 NA
ATOM     21  H   UNL     1      -8.288  12.027  22.098  0.00  0.00    +0.000 HD
ATOM     22  H   UNL     1      -7.667  10.807  22.977  0.00  0.00    +0.000 HD
ENDBRANCH  19  20
ENDBRANCH  18  19
ENDBRANCH  17  18
ENDBRANCH  15  17
ENDBRANCH  13  15
ENDBRANCH   3  13
BRANCH  10  23
ATOM     23  S   UNL     1       0.343  12.112  18.926  0.00  0.00    +0.000 S 
BRANCH  23  24
ATOM     24  C   UNL     1       0.714  10.635  19.880  0.00  0.00    +0.000 A 
ATOM     25  C   UNL     1       0.325  10.590  21.229  0.00  0.00    +0.000 A 
ATOM     26  C   UNL     1       0.547   9.445  21.990  0.00  0.00    +0.000 A 
ATOM     27 CL   UNL     1       0.053   9.401  23.638  0.00  0.00    +0.000 Cl
ATOM     28  C   UNL     1       1.161   8.322  21.427  0.00  0.00    +0.000 A 
ATOM     29  C   UNL     1       1.531   8.340  20.091  0.00  0.00    +0.000 A 
ATOM     30  C   UNL     1       1.303   9.491  19.310  0.00  0.00    +0.000 A 
ATOM     31 CL   UNL     1       1.744   9.393  17.638  0.00  0.00    +0.000 Cl
ENDBRANCH  23  24
ENDBRANCH  10  23
TORSDOF 9
ENDMDL
MODEL 9
REMARK VINA RESULT:      -5.9      1.093      1.370
REMARK  Name = 
REMARK  11 active torsions:
REMARK  status: ('A' for Active; 'I' for Inactive)
REMARK    1  A    between atoms: C_1  and  O_2
REMARK    2  A    between atoms: O_2  and  C_3
REMARK    3  A    between atoms: C_5  and  N_6
REMARK    4  A    between atoms: N_6  and  C_7
REMARK    5  A    between atoms: C_7  and  C_8
REMARK    6  A    between atoms: C_7  and  C_9
REMARK    7  A    between atoms: C_9  and  C_10
REMARK    8  A    between atoms: C_10  and  C_11
REMARK    9  A    between atoms: C_11  and  N_12
REMARK   10  A    between atoms: C_19  and  S_20
REMARK   11  A    between atoms: S_20  and  C_21
REMARK                            x       y       z     vdW  Elec       q    Type
REMARK                         _______ _______ _______ _____ _____    ______ ____
ROOT
ATOM      1  C   UNL     1       0.138   9.472  21.124  0.00  0.00    +0.000 A 
ATOM      2  C   UNL     1       0.546   8.244  21.637  0.00  0.00    +0.000 A 
ATOM      3  C   UNL     1       1.356   7.363  20.916  0.00  0.00    +0.000 A 
ATOM      4  C   UNL     1       1.865   7.757  19.667  0.00  0.00    +0.000 A 
ATOM      5  N   UNL     1       2.707   6.921  19.007  0.00  0.00    +0.000 NA
ATOM      6  C   UNL     1       3.250   7.320  17.840  0.00  0.00    +0.000 A 
ATOM      7  C   UNL     1       2.995   8.537  17.255  0.00  0.00    +0.000 A 
ATOM      8  C   UNL     1       2.117   9.394  17.910  0.00  0.00    +0.000 A 
ATOM      9  C   UNL     1       1.519   9.035  19.143  0.00  0.00    +0.000 A 
ATOM     10  C   UNL     1       0.623   9.883  19.869  0.00  0.00    +0.000 A 
ENDROOT
BRANCH   1  12
ATOM     11  C   UNL     1      -0.741  10.256  23.203  0.00  0.00    +0.000 C 
ATOM     12  O   UNL     1      -0.754  10.286  21.778  0.00  0.00    +0.000 OA
ENDBRANCH   1  12
BRANCH   3  13
ATOM     13  N   UNL     1       1.675   6.112  21.464  0.00  0.00    +0.000 N 
ATOM     14  H   UNL     1       1.442   6.009  22.450  0.00  0.00    +0.000 HD
BRANCH  13  15
ATOM     15  C   UNL     1       2.035   4.932  20.684  0.00  0.00    +0.000 C 
ATOM     16  C   UNL     1       2.682   3.879  21.588  0.00  0.00    +0.000 C 
BRANCH  15  17
ATOM     17  C   UNL     1       0.782   4.328  20.017  0.00  0.00    +0.000 C 
BRANCH  17  18
ATOM     18  C   UNL     1       1.032   3.681  18.650  0.00  0.00    +0.000 C 
BRANCH  18  19
ATOM     19  C   UNL     1       1.603   2.262  18.697  0.00  0.00    +0.000 C 
BRANCH  19  20
ATOM     20  N   UNL     1       2.248   1.887  17.442  0.00  0.00    +0.000 NA
ATOM     21  H   UNL     1       2.859   1.087  17.583  0.00  0.00    +0.000 HD
ATOM     22  H   UNL     1       2.848   2.650  17.133  0.00  0.00    +0.000 HD
ENDBRANCH  19  20
ENDBRANCH  18  19
ENDBRANCH  17  18
ENDBRANCH  15  17
ENDBRANCH  13  15
ENDBRANCH   3  13
BRANCH  10  23
ATOM     23  S   UNL     1       0.231  11.564  19.299  0.00  0.00    +0.000 S 
BRANCH  23  24
ATOM     24  C   UNL     1      -1.391  11.377  18.551  0.00  0.00    +0.000 A 
ATOM     25  C   UNL     1      -1.510  10.598  17.387  0.00  0.00    +0.000 A 
ATOM     26  C   UNL     1      -2.758  10.385  16.804  0.00  0.00    +0.000 A 
ATOM     27 CL   UNL     1      -2.888   9.418  15.386  0.00  0.00    +0.000 Cl
ATOM     28  C   UNL     1      -3.911  10.940  17.365  0.00  0.00    +0.000 A 
ATOM     29  C   UNL     1      -3.817  11.692  18.526  0.00  0.00    +0.000 A 
ATOM     30  C   UNL     1      -2.560  11.908  19.129  0.00  0.00    +0.000 A 
ATOM     31 CL   UNL     1      -2.554  12.806  20.609  0.00  0.00    +0.000 Cl
ENDBRANCH  23  24
ENDBRANCH  10  23
TORSDOF 9
ENDMDL
