MODEL 1
REMARK VINA RESULT:      -6.9      0.000      0.000
REMARK  Name = 
REMARK  12 active torsions:
REMARK  status: ('A' for Active; 'I' for Inactive)
REMARK    1  A    between atoms: C_1  and  O_2
REMARK    2  A    between atoms: O_2  and  C_3
REMARK    3  A    between atoms: C_6  and  C_7
REMARK    4  A    between atoms: C_10  and  C_11
REMARK    5  A    between atoms: C_11  and  C_13
REMARK    6  A    between atoms: C_13  and  C_14
REMARK    7  A    between atoms: C_14  and  C_15
REMARK    8  A    between atoms: C_15  and  C_16
REMARK    9  A    between atoms: C_16  and  C_17
REMARK   10  A    between atoms: C_17  and  O_18
REMARK   11  A    between atoms: C_21  and  O_22
REMARK   12  A    between atoms: O_22  and  C_23
REMARK                            x       y       z     vdW  Elec       q    Type
REMARK                         _______ _______ _______ _____ _____    ______ ____
ROOT
ATOM      1  C   UNL     1       2.537   7.411  18.484  0.00  0.00    +0.000 A 
ATOM      2  C   UNL     1       2.030   8.496  17.750  0.00  0.00    +0.000 A 
ATOM      3  C   UNL     1       1.192   9.450  18.323  0.00  0.00    +0.000 A 
ATOM      4  C   UNL     1       0.869   9.358  19.675  0.00  0.00    +0.000 A 
ATOM      5  C   UNL     1       1.385   8.317  20.442  0.00  0.00    +0.000 A 
ATOM      6  C   UNL     1       2.204   7.349  19.847  0.00  0.00    +0.000 A 
ENDROOT
BRANCH   1  10
ATOM      7  C   UNL     1       5.106   4.556  16.509  0.00  0.00    +0.000 A 
ATOM      8  C   UNL     1       5.519   5.866  16.701  0.00  0.00    +0.000 A 
ATOM      9  C   UNL     1       4.684   6.769  17.358  0.00  0.00    +0.000 A 
ATOM     10  C   UNL     1       3.416   6.391  17.845  0.00  0.00    +0.000 A 
ATOM     11  C   UNL     1       3.032   5.035  17.674  0.00  0.00    +0.000 A 
ATOM     12  C   UNL     1       3.867   4.147  16.995  0.00  0.00    +0.000 A 
BRANCH   7  14
ATOM     13  C   UNL     1       6.444   4.241  14.580  0.00  0.00    +0.000 C 
ATOM     14  O   UNL     1       5.994   3.753  15.840  0.00  0.00    +0.000 OA
ENDBRANCH   7  14
BRANCH  11  15
ATOM     15  O   UNL     1       1.836   4.643  18.227  0.00  0.00    +0.000 OA
ATOM     16  C   UNL     1       1.691   3.313  18.699  0.00  0.00    +0.000 C 
ENDBRANCH  11  15
ENDBRANCH   1  10
BRANCH   4  17
ATOM     17  C   UNL     1      -0.015  10.407  20.245  0.00  0.00    +0.000 C 
ATOM     18  O   UNL     1      -0.335  10.353  21.428  0.00  0.00    +0.000 OA
BRANCH  17  19
ATOM     19  C   UNL     1      -0.537  11.491  19.329  0.00  0.00    +0.000 C 
BRANCH  19  20
ATOM     20  C   UNL     1      -1.949  11.199  18.824  0.00  0.00    +0.000 C 
BRANCH  20  21
ATOM     21  C   UNL     1      -2.072  11.402  17.313  0.00  0.00    +0.000 C 
BRANCH  21  22
ATOM     22  C   UNL     1      -2.191  10.069  16.588  0.00  0.00    +0.000 C 
BRANCH  22  23
ATOM     23  C   UNL     1      -3.266  10.120  15.512  0.00  0.00    +0.000 C 
BRANCH  23  24
ATOM     24  O   UNL     1      -2.655  10.119  14.228  0.00  0.00    +0.000 OA
ATOM     25  H   UNL     1      -2.926   9.302  13.777  0.00  0.00    +0.000 HD
ENDBRANCH  23  24
ENDBRANCH  22  23
ENDBRANCH  21  22
ENDBRANCH  20  21
ENDBRANCH  19  20
ENDBRANCH  17  19
ENDBRANCH   4  17
TORSDOF 10
ENDMDL
MODEL 2
REMARK VINA RESULT:      -6.8      0.540      1.117
REMARK  Name = 
REMARK  12 active torsions:
REMARK  status: ('A' for Active; 'I' for Inactive)
REMARK    1  A    between atoms: C_1  and  O_2
REMARK    2  A    between atoms: O_2  and  C_3
REMARK    3  A    between atoms: C_6  and  C_7
REMARK    4  A    between atoms: C_10  and  C_11
REMARK    5  A    between atoms: C_11  and  C_13
REMARK    6  A    between atoms: C_13  and  C_14
REMARK    7  A    between atoms: C_14  and  C_15
REMARK    8  A    between atoms: C_15  and  C_16
REMARK    9  A    between atoms: C_16  and  C_17
REMARK   10  A    between atoms: C_17  and  O_18
REMARK   11  A    between atoms: C_21  and  O_22
REMARK   12  A    between atoms: O_22  and  C_23
REMARK                            x       y       z     vdW  Elec       q    Type
REMARK                         _______ _______ _______ _____ _____    ______ ____
ROOT
ATOM      1  C   UNL     1       2.631   7.474  18.458  0.00  0.00    +0.000 A 
ATOM      2  C   UNL     1       2.187   7.377  19.786  0.00  0.00    +0.000 A 
ATOM      3  C   UNL     1       1.452   8.393  20.397  0.00  0.00    +0.000 A 
ATOM      4  C   UNL     1       1.110   9.528  19.666  0.00  0.00    +0.000 A 
ATOM      5  C   UNL     1       1.501   9.639  18.335  0.00  0.00    +0.000 A 
ATOM      6  C   UNL     1       2.262   8.625  17.742  0.00  0.00    +0.000 A 
ENDROOT
BRANCH   1  10
ATOM      7  C   UNL     1       4.979   4.412  16.518  0.00  0.00    +0.000 A 
ATOM      8  C   UNL     1       5.481   5.695  16.678  0.00  0.00    +0.000 A 
ATOM      9  C   UNL     1       4.717   6.665  17.325  0.00  0.00    +0.000 A 
ATOM     10  C   UNL     1       3.431   6.384  17.832  0.00  0.00    +0.000 A 
ATOM     11  C   UNL     1       2.955   5.054  17.692  0.00  0.00    +0.000 A 
ATOM     12  C   UNL     1       3.720   4.098  17.024  0.00  0.00    +0.000 A 
BRANCH   7  14
ATOM     13  C   UNL     1       6.190   3.924  14.541  0.00  0.00    +0.000 C 
ATOM     14  O   UNL     1       5.802   3.538  15.856  0.00  0.00    +0.000 OA
ENDBRANCH   7  14
BRANCH  11  15
ATOM     15  O   UNL     1       1.742   4.756  18.265  0.00  0.00    +0.000 OA
ATOM     16  C   UNL     1       1.578   3.520  18.944  0.00  0.00    +0.000 C 
ENDBRANCH  11  15
ENDBRANCH   1  10
BRANCH   4  17
ATOM     17  C   UNL     1       0.315  10.577  20.355  0.00  0.00    +0.000 C 
ATOM     18  O   UNL     1       0.573  10.869  21.517  0.00  0.00    +0.000 OA
BRANCH  17  19
ATOM     19  C   UNL     1      -0.831  11.224  19.609  0.00  0.00    +0.000 C 
BRANCH  19  20
ATOM     20  C   UNL     1      -1.587  10.231  18.727  0.00  0.00    +0.000 C 
BRANCH  20  21
ATOM     21  C   UNL     1      -1.951  10.833  17.367  0.00  0.00    +0.000 C 
BRANCH  21  22
ATOM     22  C   UNL     1      -2.688   9.822  16.500  0.00  0.00    +0.000 C 
BRANCH  22  23
ATOM     23  C   UNL     1      -2.877  10.346  15.083  0.00  0.00    +0.000 C 
BRANCH  23  24
ATOM     24  O   UNL     1      -4.202  10.073  14.648  0.00  0.00    +0.000 OA
ATOM     25  H   UNL     1      -4.250  10.292  13.702  0.00  0.00    +0.000 HD
ENDBRANCH  23  24
ENDBRANCH  22  23
ENDBRANCH  21  22
ENDBRANCH  20  21
ENDBRANCH  19  20
ENDBRANCH  17  19
ENDBRANCH   4  17
TORSDOF 10
ENDMDL
MODEL 3
REMARK VINA RESULT:      -6.7      1.057      1.138
REMARK  Name = 
REMARK  12 active torsions:
REMARK  status: ('A' for Active; 'I' for Inactive)
REMARK    1  A    between atoms: C_1  and  O_2
REMARK    2  A    between atoms: O_2  and  C_3
REMARK    3  A    between atoms: C_6  and  C_7
REMARK    4  A    between atoms: C_10  and  C_11
REMARK    5  A    between atoms: C_11  and  C_13
REMARK    6  A    between atoms: C_13  and  C_14
REMARK    7  A    between atoms: C_14  and  C_15
REMARK    8  A    between atoms: C_15  and  C_16
REMARK    9  A    between atoms: C_16  and  C_17
REMARK   10  A    between atoms: C_17  and  O_18
REMARK   11  A    between atoms: C_21  and  O_22
REMARK   12  A    between atoms: O_22  and  C_23
REMARK                            x       y       z     vdW  Elec       q    Type
REMARK                         _______ _______ _______ _____ _____    ______ ____
ROOT
ATOM      1  C   UNL     1       2.672   7.382  18.412  0.00  0.00    +0.000 A 
ATOM      2  C   UNL     1       2.331   8.542  17.699  0.00  0.00    +0.000 A 
ATOM      3  C   UNL     1       1.564   9.560  18.266  0.00  0.00    +0.000 A 
ATOM      4  C   UNL     1       1.149   9.451  19.591  0.00  0.00    +0.000 A 
ATOM      5  C   UNL     1       1.503   8.332  20.338  0.00  0.00    +0.000 A 
ATOM      6  C   UNL     1       2.249   7.304  19.750  0.00  0.00    +0.000 A 
ENDROOT
BRANCH   1  10
ATOM      7  C   UNL     1       5.024   4.335  16.453  0.00  0.00    +0.000 A 
ATOM      8  C   UNL     1       5.505   5.630  16.578  0.00  0.00    +0.000 A 
ATOM      9  C   UNL     1       4.741   6.596  17.231  0.00  0.00    +0.000 A 
ATOM     10  C   UNL     1       3.476   6.298  17.780  0.00  0.00    +0.000 A 
ATOM     11  C   UNL     1       3.023   4.957  17.676  0.00  0.00    +0.000 A 
ATOM     12  C   UNL     1       3.787   4.005  17.000  0.00  0.00    +0.000 A 
BRANCH   7  14
ATOM     13  C   UNL     1       6.472   3.983  14.611  0.00  0.00    +0.000 C 
ATOM     14  O   UNL     1       5.846   3.466  15.781  0.00  0.00    +0.000 OA
ENDBRANCH   7  14
BRANCH  11  15
ATOM     15  O   UNL     1       1.833   4.644  18.288  0.00  0.00    +0.000 OA
ATOM     16  C   UNL     1       1.508   3.282  18.524  0.00  0.00    +0.000 C 
ENDBRANCH  11  15
ENDBRANCH   1  10
BRANCH   4  17
ATOM     17  C   UNL     1       0.347  10.567  20.155  0.00  0.00    +0.000 C 
ATOM     18  O   UNL     1       0.900  11.437  20.818  0.00  0.00    +0.000 OA
BRANCH  17  19
ATOM     19  C   UNL     1      -1.149  10.568  19.933  0.00  0.00    +0.000 C 
BRANCH  19  20
ATOM     20  C   UNL     1      -1.539  11.175  18.586  0.00  0.00    +0.000 C 
BRANCH  20  21
ATOM     21  C   UNL     1      -1.950  10.106  17.572  0.00  0.00    +0.000 C 
BRANCH  21  22
ATOM     22  C   UNL     1      -3.452  10.134  17.323  0.00  0.00    +0.000 C 
BRANCH  22  23
ATOM     23  C   UNL     1      -4.061  11.452  17.778  0.00  0.00    +0.000 C 
BRANCH  23  24
ATOM     24  O   UNL     1      -4.578  12.151  16.654  0.00  0.00    +0.000 OA
ATOM     25  H   UNL     1      -4.277  11.684  15.856  0.00  0.00    +0.000 HD
ENDBRANCH  23  24
ENDBRANCH  22  23
ENDBRANCH  21  22
ENDBRANCH  20  21
ENDBRANCH  19  20
ENDBRANCH  17  19
ENDBRANCH   4  17
TORSDOF 10
ENDMDL
MODEL 4
REMARK VINA RESULT:      -6.7      2.175      8.019
REMARK  Name = 
REMARK  12 active torsions:
REMARK  status: ('A' for Active; 'I' for Inactive)
REMARK    1  A    between atoms: C_1  and  O_2
REMARK    2  A    between atoms: O_2  and  C_3
REMARK    3  A    between atoms: C_6  and  C_7
REMARK    4  A    between atoms: C_10  and  C_11
REMARK    5  A    between atoms: C_11  and  C_13
REMARK    6  A    between atoms: C_13  and  C_14
REMARK    7  A    between atoms: C_14  and  C_15
REMARK    8  A    between atoms: C_15  and  C_16
REMARK    9  A    between atoms: C_16  and  C_17
REMARK   10  A    between atoms: C_17  and  O_18
REMARK   11  A    between atoms: C_21  and  O_22
REMARK   12  A    between atoms: O_22  and  C_23
REMARK                            x       y       z     vdW  Elec       q    Type
REMARK                         _______ _______ _______ _____ _____    ______ ____
ROOT
ATOM      1  C   UNL     1       1.364   9.463  19.003  0.00  0.00    +0.000 A 
ATOM      2  C   UNL     1       1.386   8.564  20.080  0.00  0.00    +0.000 A 
ATOM      3  C   UNL     1       2.026   7.328  19.999  0.00  0.00    +0.000 A 
ATOM      4  C   UNL     1       2.699   6.977  18.832  0.00  0.00    +0.000 A 
ATOM      5  C   UNL     1       2.730   7.862  17.757  0.00  0.00    +0.000 A 
ATOM      6  C   UNL     1       2.060   9.089  17.841  0.00  0.00    +0.000 A 
ENDROOT
BRANCH   1  10
ATOM      7  C   UNL     1      -0.657  13.253  19.457  0.00  0.00    +0.000 A 
ATOM      8  C   UNL     1       0.617  13.063  19.971  0.00  0.00    +0.000 A 
ATOM      9  C   UNL     1       1.262  11.840  19.797  0.00  0.00    +0.000 A 
ATOM     10  C   UNL     1       0.657  10.771  19.105  0.00  0.00    +0.000 A 
ATOM     11  C   UNL     1      -0.630  11.002  18.552  0.00  0.00    +0.000 A 
ATOM     12  C   UNL     1      -1.274  12.223  18.752  0.00  0.00    +0.000 A 
BRANCH   7  14
ATOM     13  C   UNL     1      -0.416  15.605  19.308  0.00  0.00    +0.000 C 
ATOM     14  O   UNL     1      -1.208  14.486  19.694  0.00  0.00    +0.000 OA
ENDBRANCH   7  14
BRANCH  11  15
ATOM     15  O   UNL     1      -1.184   9.993  17.800  0.00  0.00    +0.000 OA
ATOM     16  C   UNL     1      -2.225  10.299  16.885  0.00  0.00    +0.000 C 
ENDBRANCH  11  15
ENDBRANCH   1  10
BRANCH   4  17
ATOM     17  C   UNL     1       3.378   5.656  18.797  0.00  0.00    +0.000 C 
ATOM     18  O   UNL     1       4.265   5.409  19.607  0.00  0.00    +0.000 OA
BRANCH  17  19
ATOM     19  C   UNL     1       2.983   4.667  17.724  0.00  0.00    +0.000 C 
BRANCH  19  20
ATOM     20  C   UNL     1       1.544   4.178  17.881  0.00  0.00    +0.000 C 
BRANCH  20  21
ATOM     21  C   UNL     1       1.421   3.091  18.951  0.00  0.00    +0.000 C 
BRANCH  21  22
ATOM     22  C   UNL     1       0.870   3.660  20.251  0.00  0.00    +0.000 C 
BRANCH  22  23
ATOM     23  C   UNL     1       1.877   3.525  21.383  0.00  0.00    +0.000 C 
BRANCH  23  24
ATOM     24  O   UNL     1       3.027   2.832  20.918  0.00  0.00    +0.000 OA
ATOM     25  H   UNL     1       3.803   3.235  21.342  0.00  0.00    +0.000 HD
ENDBRANCH  23  24
ENDBRANCH  22  23
ENDBRANCH  21  22
ENDBRANCH  20  21
ENDBRANCH  19  20
ENDBRANCH  17  19
ENDBRANCH   4  17
TORSDOF 10
ENDMDL
MODEL 5
REMARK VINA RESULT:      -6.7      2.220      7.955
REMARK  Name = 
REMARK  12 active torsions:
REMARK  status: ('A' for Active; 'I' for Inactive)
REMARK    1  A    between atoms: C_1  and  O_2
REMARK    2  A    between atoms: O_2  and  C_3
REMARK    3  A    between atoms: C_6  and  C_7
REMARK    4  A    between atoms: C_10  and  C_11
REMARK    5  A    between atoms: C_11  and  C_13
REMARK    6  A    between atoms: C_13  and  C_14
REMARK    7  A    between atoms: C_14  and  C_15
REMARK    8  A    between atoms: C_15  and  C_16
REMARK    9  A    between atoms: C_16  and  C_17
REMARK   10  A    between atoms: C_17  and  O_18
REMARK   11  A    between atoms: C_21  and  O_22
REMARK   12  A    between atoms: O_22  and  C_23
REMARK                            x       y       z     vdW  Elec       q    Type
REMARK                         _______ _______ _______ _____ _____    ______ ____
ROOT
ATOM      1  C   UNL     1       1.393   9.461  18.979  0.00  0.00    +0.000 A 
ATOM      2  C   UNL     1       2.036   8.965  17.834  0.00  0.00    +0.000 A 
ATOM      3  C   UNL     1       2.649   7.714  17.813  0.00  0.00    +0.000 A 
ATOM      4  C   UNL     1       2.598   6.904  18.945  0.00  0.00    +0.000 A 
ATOM      5  C   UNL     1       1.935   7.348  20.085  0.00  0.00    +0.000 A 
ATOM      6  C   UNL     1       1.347   8.618  20.103  0.00  0.00    +0.000 A 
ENDROOT
BRANCH   1  10
ATOM      7  C   UNL     1      -0.392  13.390  19.149  0.00  0.00    +0.000 A 
ATOM      8  C   UNL     1       0.929  13.195  19.523  0.00  0.00    +0.000 A 
ATOM      9  C   UNL     1       1.495  11.924  19.443  0.00  0.00    +0.000 A 
ATOM     10  C   UNL     1       0.760  10.810  18.985  0.00  0.00    +0.000 A 
ATOM     11  C   UNL     1      -0.577  11.042  18.569  0.00  0.00    +0.000 A 
ATOM     12  C   UNL     1      -1.138  12.315  18.675  0.00  0.00    +0.000 A 
BRANCH   7  14
ATOM     13  C   UNL     1      -0.029  15.692  18.724  0.00  0.00    +0.000 C 
ATOM     14  O   UNL     1      -0.855  14.674  19.279  0.00  0.00    +0.000 OA
ENDBRANCH   7  14
BRANCH  11  15
ATOM     15  O   UNL     1      -1.265   9.977  18.038  0.00  0.00    +0.000 OA
ATOM     16  C   UNL     1      -2.291  10.216  17.086  0.00  0.00    +0.000 C 
ENDBRANCH  11  15
ENDBRANCH   1  10
BRANCH   4  17
ATOM     17  C   UNL     1       3.253   5.573  18.871  0.00  0.00    +0.000 C 
ATOM     18  O   UNL     1       4.112   5.272  19.693  0.00  0.00    +0.000 OA
BRANCH  17  19
ATOM     19  C   UNL     1       2.872   4.640  17.743  0.00  0.00    +0.000 C 
BRANCH  19  20
ATOM     20  C   UNL     1       1.473   4.052  17.920  0.00  0.00    +0.000 C 
BRANCH  20  21
ATOM     21  C   UNL     1       1.465   2.870  18.892  0.00  0.00    +0.000 C 
BRANCH  21  22
ATOM     22  C   UNL     1       0.856   3.264  20.230  0.00  0.00    +0.000 C 
BRANCH  22  23
ATOM     23  C   UNL     1       1.836   3.035  21.371  0.00  0.00    +0.000 C 
BRANCH  23  24
ATOM     24  O   UNL     1       3.074   2.570  20.850  0.00  0.00    +0.000 OA
ATOM     25  H   UNL     1       2.933   1.664  20.528  0.00  0.00    +0.000 HD
ENDBRANCH  23  24
ENDBRANCH  22  23
ENDBRANCH  21  22
ENDBRANCH  20  21
ENDBRANCH  19  20
ENDBRANCH  17  19
ENDBRANCH   4  17
TORSDOF 10
ENDMDL
MODEL 6
REMARK VINA RESULT:      -6.5      1.920      2.427
REMARK  Name = 
REMARK  12 active torsions:
REMARK  status: ('A' for Active; 'I' for Inactive)
REMARK    1  A    between atoms: C_1  and  O_2
REMARK    2  A    between atoms: O_2  and  C_3
REMARK    3  A    between atoms: C_6  and  C_7
REMARK    4  A    between atoms: C_10  and  C_11
REMARK    5  A    between atoms: C_11  and  C_13
REMARK    6  A    between atoms: C_13  and  C_14
REMARK    7  A    between atoms: C_14  and  C_15
REMARK    8  A    between atoms: C_15  and  C_16
REMARK    9  A    between atoms: C_16  and  C_17
REMARK   10  A    between atoms: C_17  and  O_18
REMARK   11  A    between atoms: C_21  and  O_22
REMARK   12  A    between atoms: O_22  and  C_23
REMARK                            x       y       z     vdW  Elec       q    Type
REMARK                         _______ _______ _______ _____ _____    ______ ____
ROOT
ATOM      1  C   UNL     1       2.464   7.450  18.588  0.00  0.00    +0.000 A 
ATOM      2  C   UNL     1       1.920   8.540  17.890  0.00  0.00    +0.000 A 
ATOM      3  C   UNL     1       1.100   9.481  18.511  0.00  0.00    +0.000 A 
ATOM      4  C   UNL     1       0.835   9.370  19.873  0.00  0.00    +0.000 A 
ATOM      5  C   UNL     1       1.390   8.324  20.604  0.00  0.00    +0.000 A 
ATOM      6  C   UNL     1       2.189   7.369  19.964  0.00  0.00    +0.000 A 
ENDROOT
BRANCH   1  10
ATOM      7  C   UNL     1       4.944   4.625  16.461  0.00  0.00    +0.000 A 
ATOM      8  C   UNL     1       5.260   5.975  16.476  0.00  0.00    +0.000 A 
ATOM      9  C   UNL     1       4.460   6.870  17.184  0.00  0.00    +0.000 A 
ATOM     10  C   UNL     1       3.321   6.445  17.900  0.00  0.00    +0.000 A 
ATOM     11  C   UNL     1       3.041   5.053  17.905  0.00  0.00    +0.000 A 
ATOM     12  C   UNL     1       3.837   4.171  17.174  0.00  0.00    +0.000 A 
BRANCH   7  14
ATOM     13  C   UNL     1       6.243   4.388  14.495  0.00  0.00    +0.000 C 
ATOM     14  O   UNL     1       5.786   3.833  15.724  0.00  0.00    +0.000 OA
ENDBRANCH   7  14
BRANCH  11  15
ATOM     15  O   UNL     1       1.986   4.625  18.675  0.00  0.00    +0.000 OA
ATOM     16  C   UNL     1       1.318   3.420  18.333  0.00  0.00    +0.000 C 
ENDBRANCH  11  15
ENDBRANCH   1  10
BRANCH   4  17
ATOM     17  C   UNL     1      -0.032  10.405  20.494  0.00  0.00    +0.000 C 
ATOM     18  O   UNL     1      -0.116  10.474  21.715  0.00  0.00    +0.000 OA
BRANCH  17  19
ATOM     19  C   UNL     1      -0.828  11.319  19.590  0.00  0.00    +0.000 C 
BRANCH  19  20
ATOM     20  C   UNL     1      -0.892  12.752  20.117  0.00  0.00    +0.000 C 
BRANCH  20  21
ATOM     21  C   UNL     1       0.456  13.467  20.001  0.00  0.00    +0.000 C 
BRANCH  21  22
ATOM     22  C   UNL     1       0.948  13.480  18.560  0.00  0.00    +0.000 C 
BRANCH  22  23
ATOM     23  C   UNL     1       2.403  13.044  18.470  0.00  0.00    +0.000 C 
BRANCH  23  24
ATOM     24  O   UNL     1       2.618  12.350  17.248  0.00  0.00    +0.000 OA
ATOM     25  H   UNL     1       3.444  11.847  17.340  0.00  0.00    +0.000 HD
ENDBRANCH  23  24
ENDBRANCH  22  23
ENDBRANCH  21  22
ENDBRANCH  20  21
ENDBRANCH  19  20
ENDBRANCH  17  19
ENDBRANCH   4  17
TORSDOF 10
ENDMDL
MODEL 7
REMARK VINA RESULT:      -6.5      0.808      1.435
REMARK  Name = 
REMARK  12 active torsions:
REMARK  status: ('A' for Active; 'I' for Inactive)
REMARK    1  A    between atoms: C_1  and  O_2
REMARK    2  A    between atoms: O_2  and  C_3
REMARK    3  A    between atoms: C_6  and  C_7
REMARK    4  A    between atoms: C_10  and  C_11
REMARK    5  A    between atoms: C_11  and  C_13
REMARK    6  A    between atoms: C_13  and  C_14
REMARK    7  A    between atoms: C_14  and  C_15
REMARK    8  A    between atoms: C_15  and  C_16
REMARK    9  A    between atoms: C_16  and  C_17
REMARK   10  A    between atoms: C_17  and  O_18
REMARK   11  A    between atoms: C_21  and  O_22
REMARK   12  A    between atoms: O_22  and  C_23
REMARK                            x       y       z     vdW  Elec       q    Type
REMARK                         _______ _______ _______ _____ _____    ______ ____
ROOT
ATOM      1  C   UNL     1       2.602   7.354  18.499  0.00  0.00    +0.000 A 
ATOM      2  C   UNL     1       2.275   7.240  19.859  0.00  0.00    +0.000 A 
ATOM      3  C   UNL     1       1.508   8.200  20.519  0.00  0.00    +0.000 A 
ATOM      4  C   UNL     1       1.014   9.291  19.809  0.00  0.00    +0.000 A 
ATOM      5  C   UNL     1       1.287   9.415  18.450  0.00  0.00    +0.000 A 
ATOM      6  C   UNL     1       2.081   8.459  17.805  0.00  0.00    +0.000 A 
ENDROOT
BRANCH   1  10
ATOM      7  C   UNL     1       5.030   4.466  16.397  0.00  0.00    +0.000 A 
ATOM      8  C   UNL     1       5.400   5.802  16.444  0.00  0.00    +0.000 A 
ATOM      9  C   UNL     1       4.614   6.717  17.145  0.00  0.00    +0.000 A 
ATOM     10  C   UNL     1       3.439   6.326  17.819  0.00  0.00    +0.000 A 
ATOM     11  C   UNL     1       3.103   4.947  17.790  0.00  0.00    +0.000 A 
ATOM     12  C   UNL     1       3.885   4.045  17.068  0.00  0.00    +0.000 A 
BRANCH   7  14
ATOM     13  C   UNL     1       6.281   4.162  14.408  0.00  0.00    +0.000 C 
ATOM     14  O   UNL     1       5.861   3.653  15.670  0.00  0.00    +0.000 OA
ENDBRANCH   7  14
BRANCH  11  15
ATOM     15  O   UNL     1       2.009   4.549  18.521  0.00  0.00    +0.000 OA
ATOM     16  C   UNL     1       1.461   3.257  18.308  0.00  0.00    +0.000 C 
ENDBRANCH  11  15
ENDBRANCH   1  10
BRANCH   4  17
ATOM     17  C   UNL     1       0.190  10.280  20.551  0.00  0.00    +0.000 C 
ATOM     18  O   UNL     1      -0.414   9.932  21.559  0.00  0.00    +0.000 OA
BRANCH  17  19
ATOM     19  C   UNL     1       0.083  11.687  20.007  0.00  0.00    +0.000 C 
BRANCH  19  20
ATOM     20  C   UNL     1      -1.284  12.314  20.275  0.00  0.00    +0.000 C 
BRANCH  20  21
ATOM     21  C   UNL     1      -2.313  11.927  19.210  0.00  0.00    +0.000 C 
BRANCH  21  22
ATOM     22  C   UNL     1      -1.689  11.923  17.822  0.00  0.00    +0.000 C 
BRANCH  22  23
ATOM     23  C   UNL     1      -2.436  10.985  16.884  0.00  0.00    +0.000 C 
BRANCH  23  24
ATOM     24  O   UNL     1      -1.824   9.703  16.906  0.00  0.00    +0.000 OA
ATOM     25  H   UNL     1      -2.141   9.242  17.701  0.00  0.00    +0.000 HD
ENDBRANCH  23  24
ENDBRANCH  22  23
ENDBRANCH  21  22
ENDBRANCH  20  21
ENDBRANCH  19  20
ENDBRANCH  17  19
ENDBRANCH   4  17
TORSDOF 10
ENDMDL
MODEL 8
REMARK VINA RESULT:      -6.5      2.037      2.628
REMARK  Name = 
REMARK  12 active torsions:
REMARK  status: ('A' for Active; 'I' for Inactive)
REMARK    1  A    between atoms: C_1  and  O_2
REMARK    2  A    between atoms: O_2  and  C_3
REMARK    3  A    between atoms: C_6  and  C_7
REMARK    4  A    between atoms: C_10  and  C_11
REMARK    5  A    between atoms: C_11  and  C_13
REMARK    6  A    between atoms: C_13  and  C_14
REMARK    7  A    between atoms: C_14  and  C_15
REMARK    8  A    between atoms: C_15  and  C_16
REMARK    9  A    between atoms: C_16  and  C_17
REMARK   10  A    between atoms: C_17  and  O_18
REMARK   11  A    between atoms: C_21  and  O_22
REMARK   12  A    between atoms: O_22  and  C_23
REMARK                            x       y       z     vdW  Elec       q    Type
REMARK                         _______ _______ _______ _____ _____    ______ ____
ROOT
ATOM      1  C   UNL     1       2.548   7.306  18.648  0.00  0.00    +0.000 A 
ATOM      2  C   UNL     1       2.251   7.185  20.015  0.00  0.00    +0.000 A 
ATOM      3  C   UNL     1       1.517   8.152  20.701  0.00  0.00    +0.000 A 
ATOM      4  C   UNL     1       1.026   9.259  20.012  0.00  0.00    +0.000 A 
ATOM      5  C   UNL     1       1.269   9.390  18.648  0.00  0.00    +0.000 A 
ATOM      6  C   UNL     1       2.031   8.426  17.977  0.00  0.00    +0.000 A 
ENDROOT
BRANCH   1  10
ATOM      7  C   UNL     1       4.897   4.406  16.474  0.00  0.00    +0.000 A 
ATOM      8  C   UNL     1       5.376   5.689  16.688  0.00  0.00    +0.000 A 
ATOM      9  C   UNL     1       4.613   6.606  17.409  0.00  0.00    +0.000 A 
ATOM     10  C   UNL     1       3.351   6.270  17.940  0.00  0.00    +0.000 A 
ATOM     11  C   UNL     1       2.899   4.938  17.744  0.00  0.00    +0.000 A 
ATOM     12  C   UNL     1       3.662   4.036  17.002  0.00  0.00    +0.000 A 
BRANCH   7  14
ATOM     13  C   UNL     1       6.469   4.222  14.712  0.00  0.00    +0.000 C 
ATOM     14  O   UNL     1       5.717   3.587  15.741  0.00  0.00    +0.000 OA
ENDBRANCH   7  14
BRANCH  11  15
ATOM     15  O   UNL     1       1.711   4.582  18.337  0.00  0.00    +0.000 OA
ATOM     16  C   UNL     1       1.539   3.253  18.807  0.00  0.00    +0.000 C 
ENDBRANCH  11  15
ENDBRANCH   1  10
BRANCH   4  17
ATOM     17  C   UNL     1       0.237  10.255  20.782  0.00  0.00    +0.000 C 
ATOM     18  O   UNL     1       0.503  10.460  21.961  0.00  0.00    +0.000 OA
BRANCH  17  19
ATOM     19  C   UNL     1      -0.912  10.957  20.093  0.00  0.00    +0.000 C 
BRANCH  19  20
ATOM     20  C   UNL     1      -0.766  12.478  20.118  0.00  0.00    +0.000 C 
BRANCH  20  21
ATOM     21  C   UNL     1       0.692  12.917  19.962  0.00  0.00    +0.000 C 
BRANCH  21  22
ATOM     22  C   UNL     1       0.963  13.428  18.554  0.00  0.00    +0.000 C 
BRANCH  22  23
ATOM     23  C   UNL     1       2.444  13.343  18.212  0.00  0.00    +0.000 C 
BRANCH  23  24
ATOM     24  O   UNL     1       2.656  12.299  17.271  0.00  0.00    +0.000 OA
ATOM     25  H   UNL     1       2.211  12.555  16.446  0.00  0.00    +0.000 HD
ENDBRANCH  23  24
ENDBRANCH  22  23
ENDBRANCH  21  22
ENDBRANCH  20  21
ENDBRANCH  19  20
ENDBRANCH  17  19
ENDBRANCH   4  17
TORSDOF 10
ENDMDL
MODEL 9
REMARK VINA RESULT:      -6.5      2.091      7.950
REMARK  Name = 
REMARK  12 active torsions:
REMARK  status: ('A' for Active; 'I' for Inactive)
REMARK    1  A    between atoms: C_1  and  O_2
REMARK    2  A    between atoms: O_2  and  C_3
REMARK    3  A    between atoms: C_6  and  C_7
REMARK    4  A    between atoms: C_10  and  C_11
REMARK    5  A    between atoms: C_11  and  C_13
REMARK    6  A    between atoms: C_13  and  C_14
REMARK    7  A    between atoms: C_14  and  C_15
REMARK    8  A    between atoms: C_15  and  C_16
REMARK    9  A    between atoms: C_16  and  C_17
REMARK   10  A    between atoms: C_17  and  O_18
REMARK   11  A    between atoms: C_21  and  O_22
REMARK   12  A    between atoms: O_22  and  C_23
REMARK                            x       y       z     vdW  Elec       q    Type
REMARK                         _______ _______ _______ _____ _____    ______ ____
ROOT
ATOM      1  C   UNL     1       1.822   8.038  19.813  0.00  0.00    +0.000 A 
ATOM      2  C   UNL     1       2.212   8.411  18.517  0.00  0.00    +0.000 A 
ATOM      3  C   UNL     1       2.980   7.575  17.706  0.00  0.00    +0.000 A 
ATOM      4  C   UNL     1       3.345   6.314  18.170  0.00  0.00    +0.000 A 
ATOM      5  C   UNL     1       2.942   5.897  19.436  0.00  0.00    +0.000 A 
ATOM      6  C   UNL     1       2.195   6.756  20.251  0.00  0.00    +0.000 A 
ENDROOT
BRANCH   1  10
ATOM      7  C   UNL     1      -0.554  10.570  22.382  0.00  0.00    +0.000 A 
ATOM      8  C   UNL     1       0.359   9.674  22.918  0.00  0.00    +0.000 A 
ATOM      9  C   UNL     1       1.132   8.879  22.073  0.00  0.00    +0.000 A 
ATOM     10  C   UNL     1       1.018   8.955  20.669  0.00  0.00    +0.000 A 
ATOM     11  C   UNL     1       0.107   9.908  20.143  0.00  0.00    +0.000 A 
ATOM     12  C   UNL     1      -0.677  10.682  20.999  0.00  0.00    +0.000 A 
BRANCH   7  14
ATOM     13  C   UNL     1      -1.335  12.698  23.070  0.00  0.00    +0.000 C 
ATOM     14  O   UNL     1      -1.274  11.293  23.298  0.00  0.00    +0.000 OA
ENDBRANCH   7  14
BRANCH  11  15
ATOM     15  O   UNL     1       0.060  10.048  18.776  0.00  0.00    +0.000 OA
ATOM     16  C   UNL     1      -1.177  10.349  18.149  0.00  0.00    +0.000 C 
ENDBRANCH  11  15
ENDBRANCH   1  10
BRANCH   4  17
ATOM     17  C   UNL     1       4.150   5.453  17.266  0.00  0.00    +0.000 C 
ATOM     18  O   UNL     1       4.847   5.969  16.398  0.00  0.00    +0.000 OA
BRANCH  17  19
ATOM     19  C   UNL     1       4.048   3.952  17.413  0.00  0.00    +0.000 C 
BRANCH  19  20
ATOM     20  C   UNL     1       2.615   3.446  17.250  0.00  0.00    +0.000 C 
BRANCH  20  21
ATOM     21  C   UNL     1       2.337   2.219  18.121  0.00  0.00    +0.000 C 
BRANCH  21  22
ATOM     22  C   UNL     1       0.930   2.264  18.700  0.00  0.00    +0.000 C 
BRANCH  22  23
ATOM     23  C   UNL     1       0.799   3.363  19.746  0.00  0.00    +0.000 C 
BRANCH  23  24
ATOM     24  O   UNL     1       0.826   2.789  21.045  0.00  0.00    +0.000 OA
ATOM     25  H   UNL     1      -0.091   2.751  21.367  0.00  0.00    +0.000 HD
ENDBRANCH  23  24
ENDBRANCH  22  23
ENDBRANCH  21  22
ENDBRANCH  20  21
ENDBRANCH  19  20
ENDBRANCH  17  19
ENDBRANCH   4  17
TORSDOF 10
ENDMDL
