MODEL 1
REMARK VINA RESULT:      -9.4      0.000      0.000
REMARK  Name = 
REMARK  5 active torsions:
REMARK  status: ('A' for Active; 'I' for Inactive)
REMARK    1  A    between atoms: C_2  and  C_3
REMARK    2  A    between atoms: C_2  and  C_22
REMARK    3  A    between atoms: C_6  and  O_7
REMARK    4  A    between atoms: O_7  and  C_8
REMARK    5  A    between atoms: C_13  and  N_14
REMARK                            x       y       z     vdW  Elec       q    Type
REMARK                         _______ _______ _______ _____ _____    ______ ____
ROOT
ATOM      1  C   UNL     1       1.324   9.508  19.226  0.00  0.00    +0.000 A 
ATOM      2  C   UNL     1       1.745   9.411  17.897  0.00  0.00    +0.000 A 
ATOM      3  C   UNL     1       2.373   8.241  17.452  0.00  0.00    +0.000 A 
ATOM      4  C   UNL     1       2.574   7.166  18.326  0.00  0.00    +0.000 A 
ATOM      5  C   UNL     1       2.106   7.245  19.637  0.00  0.00    +0.000 A 
ATOM      6  C   UNL     1       1.498   8.414  20.089  0.00  0.00    +0.000 A 
ENDROOT
BRANCH   1   8
ATOM      7  O   UNL     1       1.164  11.424  20.587  0.00  0.00    +0.000 OA
ATOM      8  C   UNL     1       0.636  10.743  19.711  0.00  0.00    +0.000 C 
BRANCH   8   9
ATOM      9  C   UNL     1      -0.592  11.116  19.042  0.00  0.00    +0.000 A 
ATOM     10  N   UNL     1      -1.664  11.557  19.676  0.00  0.00    +0.000 NA
ATOM     11  C   UNL     1      -2.658  11.585  18.741  0.00  0.00    +0.000 A 
ATOM     12  C   UNL     1      -4.012  11.902  18.909  0.00  0.00    +0.000 A 
ATOM     13  C   UNL     1      -4.863  11.778  17.809  0.00  0.00    +0.000 A 
ATOM     14  C   UNL     1      -4.372  11.352  16.571  0.00  0.00    +0.000 A 
ATOM     15  C   UNL     1      -3.014  11.057  16.380  0.00  0.00    +0.000 A 
ATOM     16  C   UNL     1      -2.185  11.192  17.494  0.00  0.00    +0.000 A 
ATOM     17  N   UNL     1      -0.838  10.994  17.696  0.00  0.00    +0.000 N 
ATOM     18  H   UNL     1      -0.161  10.688  17.009  0.00  0.00    +0.000 HD
ENDBRANCH   8   9
ENDBRANCH   1   8
BRANCH   4  19
ATOM     19  O   UNL     1       3.155   6.043  17.788  0.00  0.00    +0.000 OA
BRANCH  19  20
ATOM     20  C   UNL     1       4.478   5.748  18.099  0.00  0.00    +0.000 A 
ATOM     21  N   UNL     1       5.434   6.645  17.720  0.00  0.00    +0.000 NA
ATOM     22  C   UNL     1       6.690   6.349  18.098  0.00  0.00    +0.000 A 
ATOM     23  C   UNL     1       6.993   5.196  18.790  0.00  0.00    +0.000 A 
ATOM     24  N   UNL     1       6.049   4.296  19.150  0.00  0.00    +0.000 NA
ATOM     25  C   UNL     1       4.759   4.555  18.803  0.00  0.00    +0.000 A 
BRANCH  25  26
ATOM     26  N   UNL     1       3.815   3.625  19.200  0.00  0.00    +0.000 N 
ATOM     27  C   UNL     1       3.608   2.442  18.372  0.00  0.00    +0.000 C 
ATOM     28  C   UNL     1       2.140   2.337  17.970  0.00  0.00    +0.000 C 
ATOM     29  C   UNL     1       1.234   2.381  19.197  0.00  0.00    +0.000 C 
ATOM     30  C   UNL     1       1.517   3.627  20.034  0.00  0.00    +0.000 C 
ATOM     31  C   UNL     1       2.998   3.758  20.399  0.00  0.00    +0.000 C 
ENDBRANCH  25  26
ENDBRANCH  19  20
ENDBRANCH   4  19
TORSDOF 5
ENDMDL
MODEL 2
REMARK VINA RESULT:      -9.1      1.180      3.418
REMARK  Name = 
REMARK  5 active torsions:
REMARK  status: ('A' for Active; 'I' for Inactive)
REMARK    1  A    between atoms: C_2  and  C_3
REMARK    2  A    between atoms: C_2  and  C_22
REMARK    3  A    between atoms: C_6  and  O_7
REMARK    4  A    between atoms: O_7  and  C_8
REMARK    5  A    between atoms: C_13  and  N_14
REMARK                            x       y       z     vdW  Elec       q    Type
REMARK                         _______ _______ _______ _____ _____    ______ ____
ROOT
ATOM      1  C   UNL     1       1.225   9.215  19.461  0.00  0.00    +0.000 A 
ATOM      2  C   UNL     1       1.182   8.511  20.668  0.00  0.00    +0.000 A 
ATOM      3  C   UNL     1       1.846   7.283  20.779  0.00  0.00    +0.000 A 
ATOM      4  C   UNL     1       2.557   6.759  19.692  0.00  0.00    +0.000 A 
ATOM      5  C   UNL     1       2.642   7.487  18.507  0.00  0.00    +0.000 A 
ATOM      6  C   UNL     1       1.968   8.701  18.387  0.00  0.00    +0.000 A 
ENDROOT
BRANCH   1   8
ATOM      7  O   UNL     1       1.105  11.553  19.720  0.00  0.00    +0.000 OA
ATOM      8  C   UNL     1       0.537  10.535  19.333  0.00  0.00    +0.000 C 
BRANCH   8   9
ATOM      9  C   UNL     1      -0.747  10.544  18.665  0.00  0.00    +0.000 A 
ATOM     10  N   UNL     1      -0.953  10.020  17.471  0.00  0.00    +0.000 NA
ATOM     11  C   UNL     1      -2.206  10.420  17.104  0.00  0.00    +0.000 A 
ATOM     12  C   UNL     1      -2.878  10.203  15.895  0.00  0.00    +0.000 A 
ATOM     13  C   UNL     1      -4.133  10.788  15.720  0.00  0.00    +0.000 A 
ATOM     14  C   UNL     1      -4.704  11.568  16.729  0.00  0.00    +0.000 A 
ATOM     15  C   UNL     1      -4.055  11.774  17.956  0.00  0.00    +0.000 A 
ATOM     16  C   UNL     1      -2.804  11.176  18.106  0.00  0.00    +0.000 A 
ATOM     17  N   UNL     1      -1.887  11.154  19.132  0.00  0.00    +0.000 N 
ATOM     18  H   UNL     1      -1.972  11.610  20.031  0.00  0.00    +0.000 HD
ENDBRANCH   8   9
ENDBRANCH   1   8
BRANCH   4  19
ATOM     19  O   UNL     1       3.215   5.572  19.909  0.00  0.00    +0.000 OA
BRANCH  19  20
ATOM     20  C   UNL     1       2.733   4.412  19.314  0.00  0.00    +0.000 A 
ATOM     21  N   UNL     1       1.560   3.897  19.782  0.00  0.00    +0.000 NA
ATOM     22  C   UNL     1       1.102   2.811  19.134  0.00  0.00    +0.000 A 
ATOM     23  C   UNL     1       1.794   2.237  18.091  0.00  0.00    +0.000 A 
ATOM     24  N   UNL     1       2.967   2.734  17.636  0.00  0.00    +0.000 NA
ATOM     25  C   UNL     1       3.469   3.841  18.249  0.00  0.00    +0.000 A 
BRANCH  25  26
ATOM     26  N   UNL     1       4.661   4.335  17.751  0.00  0.00    +0.000 N 
ATOM     27  C   UNL     1       5.846   4.289  18.601  0.00  0.00    +0.000 C 
ATOM     28  C   UNL     1       6.436   5.688  18.747  0.00  0.00    +0.000 C 
ATOM     29  C   UNL     1       6.697   6.316  17.381  0.00  0.00    +0.000 C 
ATOM     30  C   UNL     1       5.428   6.311  16.533  0.00  0.00    +0.000 C 
ATOM     31  C   UNL     1       4.807   4.915  16.423  0.00  0.00    +0.000 C 
ENDBRANCH  25  26
ENDBRANCH  19  20
ENDBRANCH   4  19
TORSDOF 5
ENDMDL
MODEL 3
REMARK VINA RESULT:      -9.1      1.198      3.279
REMARK  Name = 
REMARK  5 active torsions:
REMARK  status: ('A' for Active; 'I' for Inactive)
REMARK    1  A    between atoms: C_2  and  C_3
REMARK    2  A    between atoms: C_2  and  C_22
REMARK    3  A    between atoms: C_6  and  O_7
REMARK    4  A    between atoms: O_7  and  C_8
REMARK    5  A    between atoms: C_13  and  N_14
REMARK                            x       y       z     vdW  Elec       q    Type
REMARK                         _______ _______ _______ _____ _____    ______ ____
ROOT
ATOM      1  C   UNL     1       1.021   9.386  19.739  0.00  0.00    +0.000 A 
ATOM      2  C   UNL     1       1.065   8.589  20.886  0.00  0.00    +0.000 A 
ATOM      3  C   UNL     1       1.787   7.389  20.870  0.00  0.00    +0.000 A 
ATOM      4  C   UNL     1       2.470   6.987  19.716  0.00  0.00    +0.000 A 
ATOM      5  C   UNL     1       2.468   7.808  18.591  0.00  0.00    +0.000 A 
ATOM      6  C   UNL     1       1.737   8.994  18.596  0.00  0.00    +0.000 A 
ENDROOT
BRANCH   1   8
ATOM      7  O   UNL     1       0.596  11.562  20.534  0.00  0.00    +0.000 OA
ATOM      8  C   UNL     1       0.271  10.678  19.746  0.00  0.00    +0.000 C 
BRANCH   8   9
ATOM      9  C   UNL     1      -0.759  10.844  18.742  0.00  0.00    +0.000 A 
ATOM     10  N   UNL     1      -1.880  11.511  18.949  0.00  0.00    +0.000 NA
ATOM     11  C   UNL     1      -2.667  11.254  17.864  0.00  0.00    +0.000 A 
ATOM     12  C   UNL     1      -3.986  11.656  17.621  0.00  0.00    +0.000 A 
ATOM     13  C   UNL     1      -4.618  11.195  16.464  0.00  0.00    +0.000 A 
ATOM     14  C   UNL     1      -3.945  10.357  15.570  0.00  0.00    +0.000 A 
ATOM     15  C   UNL     1      -2.615   9.967  15.785  0.00  0.00    +0.000 A 
ATOM     16  C   UNL     1      -2.007  10.444  16.946  0.00  0.00    +0.000 A 
ATOM     17  N   UNL     1      -0.753  10.279  17.489  0.00  0.00    +0.000 N 
ATOM     18  H   UNL     1       0.007   9.736  17.104  0.00  0.00    +0.000 HD
ENDBRANCH   8   9
ENDBRANCH   1   8
BRANCH   4  19
ATOM     19  O   UNL     1       3.189   5.819  19.810  0.00  0.00    +0.000 OA
BRANCH  19  20
ATOM     20  C   UNL     1       2.741   4.691  19.133  0.00  0.00    +0.000 A 
ATOM     21  N   UNL     1       1.555   4.143  19.527  0.00  0.00    +0.000 NA
ATOM     22  C   UNL     1       1.131   3.092  18.802  0.00  0.00    +0.000 A 
ATOM     23  C   UNL     1       1.867   2.582  17.756  0.00  0.00    +0.000 A 
ATOM     24  N   UNL     1       3.052   3.111  17.375  0.00  0.00    +0.000 NA
ATOM     25  C   UNL     1       3.521   4.185  18.067  0.00  0.00    +0.000 A 
BRANCH  25  26
ATOM     26  N   UNL     1       4.727   4.714  17.643  0.00  0.00    +0.000 N 
ATOM     27  C   UNL     1       5.944   4.336  18.354  0.00  0.00    +0.000 C 
ATOM     28  C   UNL     1       6.667   5.586  18.849  0.00  0.00    +0.000 C 
ATOM     29  C   UNL     1       6.915   6.562  17.703  0.00  0.00    +0.000 C 
ATOM     30  C   UNL     1       5.609   6.897  16.985  0.00  0.00    +0.000 C 
ATOM     31  C   UNL     1       4.859   5.642  16.529  0.00  0.00    +0.000 C 
ENDBRANCH  25  26
ENDBRANCH  19  20
ENDBRANCH   4  19
TORSDOF 5
ENDMDL
MODEL 4
REMARK VINA RESULT:      -9.1      1.288      3.276
REMARK  Name = 
REMARK  5 active torsions:
REMARK  status: ('A' for Active; 'I' for Inactive)
REMARK    1  A    between atoms: C_2  and  C_3
REMARK    2  A    between atoms: C_2  and  C_22
REMARK    3  A    between atoms: C_6  and  O_7
REMARK    4  A    between atoms: O_7  and  C_8
REMARK    5  A    between atoms: C_13  and  N_14
REMARK                            x       y       z     vdW  Elec       q    Type
REMARK                         _______ _______ _______ _____ _____    ______ ____
ROOT
ATOM      1  C   UNL     1       1.493   9.446  19.000  0.00  0.00    +0.000 A 
ATOM      2  C   UNL     1       1.271   8.956  20.290  0.00  0.00    +0.000 A 
ATOM      3  C   UNL     1       1.714   7.672  20.630  0.00  0.00    +0.000 A 
ATOM      4  C   UNL     1       2.385   6.880  19.690  0.00  0.00    +0.000 A 
ATOM      5  C   UNL     1       2.652   7.390  18.421  0.00  0.00    +0.000 A 
ATOM      6  C   UNL     1       2.196   8.660  18.073  0.00  0.00    +0.000 A 
ENDROOT
BRANCH   1   8
ATOM      7  O   UNL     1       1.876  11.704  18.451  0.00  0.00    +0.000 OA
ATOM      8  C   UNL     1       1.041  10.820  18.627  0.00  0.00    +0.000 C 
BRANCH   8   9
ATOM      9  C   UNL     1      -0.377  11.007  18.404  0.00  0.00    +0.000 A 
ATOM     10  N   UNL     1      -1.115  11.869  19.080  0.00  0.00    +0.000 NA
ATOM     11  C   UNL     1      -2.408  11.593  18.741  0.00  0.00    +0.000 A 
ATOM     12  C   UNL     1      -3.587  12.164  19.235  0.00  0.00    +0.000 A 
ATOM     13  C   UNL     1      -4.808  11.653  18.791  0.00  0.00    +0.000 A 
ATOM     14  C   UNL     1      -4.850  10.599  17.874  0.00  0.00    +0.000 A 
ATOM     15  C   UNL     1      -3.678  10.033  17.349  0.00  0.00    +0.000 A 
ATOM     16  C   UNL     1      -2.472  10.564  17.806  0.00  0.00    +0.000 A 
ATOM     17  N   UNL     1      -1.153  10.278  17.535  0.00  0.00    +0.000 N 
ATOM     18  H   UNL     1      -0.804   9.569  16.904  0.00  0.00    +0.000 HD
ENDBRANCH   8   9
ENDBRANCH   1   8
BRANCH   4  19
ATOM     19  O   UNL     1       2.825   5.654  20.129  0.00  0.00    +0.000 OA
BRANCH  19  20
ATOM     20  C   UNL     1       2.243   4.501  19.613  0.00  0.00    +0.000 A 
ATOM     21  N   UNL     1       1.008   4.151  20.075  0.00  0.00    +0.000 NA
ATOM     22  C   UNL     1       0.459   3.066  19.502  0.00  0.00    +0.000 A 
ATOM     23  C   UNL     1       1.120   2.335  18.540  0.00  0.00    +0.000 A 
ATOM     24  N   UNL     1       2.353   2.667  18.093  0.00  0.00    +0.000 NA
ATOM     25  C   UNL     1       2.948   3.767  18.631  0.00  0.00    +0.000 A 
BRANCH  25  26
ATOM     26  N   UNL     1       4.201   4.091  18.143  0.00  0.00    +0.000 N 
ATOM     27  C   UNL     1       5.340   4.045  19.054  0.00  0.00    +0.000 C 
ATOM     28  C   UNL     1       6.052   5.394  19.067  0.00  0.00    +0.000 C 
ATOM     29  C   UNL     1       6.427   5.827  17.653  0.00  0.00    +0.000 C 
ATOM     30  C   UNL     1       5.199   5.831  16.745  0.00  0.00    +0.000 C 
ATOM     31  C   UNL     1       4.457   4.492  16.766  0.00  0.00    +0.000 C 
ENDBRANCH  25  26
ENDBRANCH  19  20
ENDBRANCH   4  19
TORSDOF 5
ENDMDL
MODEL 5
REMARK VINA RESULT:      -9.1      1.349      1.886
REMARK  Name = 
REMARK  5 active torsions:
REMARK  status: ('A' for Active; 'I' for Inactive)
REMARK    1  A    between atoms: C_2  and  C_3
REMARK    2  A    between atoms: C_2  and  C_22
REMARK    3  A    between atoms: C_6  and  O_7
REMARK    4  A    between atoms: O_7  and  C_8
REMARK    5  A    between atoms: C_13  and  N_14
REMARK                            x       y       z     vdW  Elec       q    Type
REMARK                         _______ _______ _______ _____ _____    ______ ____
ROOT
ATOM      1  C   UNL     1       0.911   9.314  19.734  0.00  0.00    +0.000 A 
ATOM      2  C   UNL     1       1.067   8.435  20.810  0.00  0.00    +0.000 A 
ATOM      3  C   UNL     1       1.941   7.347  20.696  0.00  0.00    +0.000 A 
ATOM      4  C   UNL     1       2.665   7.138  19.515  0.00  0.00    +0.000 A 
ATOM      5  C   UNL     1       2.547   8.044  18.464  0.00  0.00    +0.000 A 
ATOM      6  C   UNL     1       1.665   9.118  18.566  0.00  0.00    +0.000 A 
ENDROOT
BRANCH   1   8
ATOM      7  O   UNL     1       0.122  11.265  20.791  0.00  0.00    +0.000 OA
ATOM      8  C   UNL     1      -0.004  10.489  19.847  0.00  0.00    +0.000 C 
BRANCH   8   9
ATOM      9  C   UNL     1      -0.944  10.695  18.766  0.00  0.00    +0.000 A 
ATOM     10  N   UNL     1      -2.045  11.416  18.883  0.00  0.00    +0.000 NA
ATOM     11  C   UNL     1      -2.758  11.186  17.741  0.00  0.00    +0.000 A 
ATOM     12  C   UNL     1      -4.034  11.648  17.396  0.00  0.00    +0.000 A 
ATOM     13  C   UNL     1      -4.596  11.207  16.196  0.00  0.00    +0.000 A 
ATOM     14  C   UNL     1      -3.899  10.330  15.361  0.00  0.00    +0.000 A 
ATOM     15  C   UNL     1      -2.609   9.879  15.680  0.00  0.00    +0.000 A 
ATOM     16  C   UNL     1      -2.069  10.337  16.882  0.00  0.00    +0.000 A 
ATOM     17  N   UNL     1      -0.870  10.119  17.520  0.00  0.00    +0.000 N 
ATOM     18  H   UNL     1      -0.109   9.536  17.197  0.00  0.00    +0.000 HD
ENDBRANCH   8   9
ENDBRANCH   1   8
BRANCH   4  19
ATOM     19  O   UNL     1       3.533   6.072  19.514  0.00  0.00    +0.000 OA
BRANCH  19  20
ATOM     20  C   UNL     1       3.924   5.519  18.300  0.00  0.00    +0.000 A 
ATOM     21  N   UNL     1       4.664   6.296  17.457  0.00  0.00    +0.000 NA
ATOM     22  C   UNL     1       5.073   5.699  16.324  0.00  0.00    +0.000 A 
ATOM     23  C   UNL     1       4.734   4.398  16.020  0.00  0.00    +0.000 A 
ATOM     24  N   UNL     1       3.985   3.631  16.845  0.00  0.00    +0.000 NA
ATOM     25  C   UNL     1       3.556   4.184  18.012  0.00  0.00    +0.000 A 
BRANCH  25  26
ATOM     26  N   UNL     1       2.807   3.369  18.842  0.00  0.00    +0.000 N 
ATOM     27  C   UNL     1       1.352   3.445  18.767  0.00  0.00    +0.000 C 
ATOM     28  C   UNL     1       0.775   3.755  20.145  0.00  0.00    +0.000 C 
ATOM     29  C   UNL     1       1.275   2.756  21.184  0.00  0.00    +0.000 C 
ATOM     30  C   UNL     1       2.801   2.706  21.195  0.00  0.00    +0.000 C 
ATOM     31  C   UNL     1       3.384   2.440  19.804  0.00  0.00    +0.000 C 
ENDBRANCH  25  26
ENDBRANCH  19  20
ENDBRANCH   4  19
TORSDOF 5
ENDMDL
MODEL 6
REMARK VINA RESULT:      -9.0      1.286      2.082
REMARK  Name = 
REMARK  5 active torsions:
REMARK  status: ('A' for Active; 'I' for Inactive)
REMARK    1  A    between atoms: C_2  and  C_3
REMARK    2  A    between atoms: C_2  and  C_22
REMARK    3  A    between atoms: C_6  and  O_7
REMARK    4  A    between atoms: O_7  and  C_8
REMARK    5  A    between atoms: C_13  and  N_14
REMARK                            x       y       z     vdW  Elec       q    Type
REMARK                         _______ _______ _______ _____ _____    ______ ____
ROOT
ATOM      1  C   UNL     1       1.183   9.400  19.321  0.00  0.00    +0.000 A 
ATOM      2  C   UNL     1       1.233   8.579  20.452  0.00  0.00    +0.000 A 
ATOM      3  C   UNL     1       2.038   7.433  20.442  0.00  0.00    +0.000 A 
ATOM      4  C   UNL     1       2.799   7.109  19.313  0.00  0.00    +0.000 A 
ATOM      5  C   UNL     1       2.788   7.956  18.206  0.00  0.00    +0.000 A 
ATOM      6  C   UNL     1       1.975   9.087  18.204  0.00  0.00    +0.000 A 
ENDROOT
BRANCH   1   8
ATOM      7  O   UNL     1       0.765  11.652  19.866  0.00  0.00    +0.000 OA
ATOM      8  C   UNL     1       0.343  10.635  19.322  0.00  0.00    +0.000 C 
BRANCH   8   9
ATOM      9  C   UNL     1      -0.903  10.581  18.589  0.00  0.00    +0.000 A 
ATOM     10  N   UNL     1      -1.040   9.976  17.422  0.00  0.00    +0.000 NA
ATOM     11  C   UNL     1      -2.275  10.333  16.964  0.00  0.00    +0.000 A 
ATOM     12  C   UNL     1      -2.880  10.027  15.739  0.00  0.00    +0.000 A 
ATOM     13  C   UNL     1      -4.130  10.581  15.460  0.00  0.00    +0.000 A 
ATOM     14  C   UNL     1      -4.763  11.418  16.384  0.00  0.00    +0.000 A 
ATOM     15  C   UNL     1      -4.183  11.713  17.626  0.00  0.00    +0.000 A 
ATOM     16  C   UNL     1      -2.935  11.145  17.882  0.00  0.00    +0.000 A 
ATOM     17  N   UNL     1      -2.073  11.204  18.953  0.00  0.00    +0.000 N 
ATOM     18  H   UNL     1      -2.211  11.718  19.813  0.00  0.00    +0.000 HD
ENDBRANCH   8   9
ENDBRANCH   1   8
BRANCH   4  19
ATOM     19  O   UNL     1       3.594   5.992  19.414  0.00  0.00    +0.000 OA
BRANCH  19  20
ATOM     20  C   UNL     1       4.027   5.361  18.253  0.00  0.00    +0.000 A 
ATOM     21  N   UNL     1       4.806   6.079  17.393  0.00  0.00    +0.000 NA
ATOM     22  C   UNL     1       5.253   5.408  16.317  0.00  0.00    +0.000 A 
ATOM     23  C   UNL     1       4.914   4.094  16.082  0.00  0.00    +0.000 A 
ATOM     24  N   UNL     1       4.127   3.385  16.923  0.00  0.00    +0.000 NA
ATOM     25  C   UNL     1       3.658   4.013  18.036  0.00  0.00    +0.000 A 
BRANCH  25  26
ATOM     26  N   UNL     1       2.870   3.258  18.885  0.00  0.00    +0.000 N 
ATOM     27  C   UNL     1       1.419   3.361  18.769  0.00  0.00    +0.000 C 
ATOM     28  C   UNL     1       0.816   3.752  20.115  0.00  0.00    +0.000 C 
ATOM     29  C   UNL     1       1.267   2.795  21.214  0.00  0.00    +0.000 C 
ATOM     30  C   UNL     1       2.791   2.712  21.267  0.00  0.00    +0.000 C 
ATOM     31  C   UNL     1       3.402   2.365  19.906  0.00  0.00    +0.000 C 
ENDBRANCH  25  26
ENDBRANCH  19  20
ENDBRANCH   4  19
TORSDOF 5
ENDMDL
MODEL 7
REMARK VINA RESULT:      -9.0      0.451      1.104
REMARK  Name = 
REMARK  5 active torsions:
REMARK  status: ('A' for Active; 'I' for Inactive)
REMARK    1  A    between atoms: C_2  and  C_3
REMARK    2  A    between atoms: C_2  and  C_22
REMARK    3  A    between atoms: C_6  and  O_7
REMARK    4  A    between atoms: O_7  and  C_8
REMARK    5  A    between atoms: C_13  and  N_14
REMARK                            x       y       z     vdW  Elec       q    Type
REMARK                         _______ _______ _______ _____ _____    ______ ____
ROOT
ATOM      1  C   UNL     1       1.373   9.409  19.192  0.00  0.00    +0.000 A 
ATOM      2  C   UNL     1       1.828   9.347  17.872  0.00  0.00    +0.000 A 
ATOM      3  C   UNL     1       2.477   8.193  17.415  0.00  0.00    +0.000 A 
ATOM      4  C   UNL     1       2.666   7.099  18.269  0.00  0.00    +0.000 A 
ATOM      5  C   UNL     1       2.165   7.143  19.569  0.00  0.00    +0.000 A 
ATOM      6  C   UNL     1       1.536   8.296  20.033  0.00  0.00    +0.000 A 
ENDROOT
BRANCH   1   8
ATOM      7  O   UNL     1       1.297  11.494  20.284  0.00  0.00    +0.000 OA
ATOM      8  C   UNL     1       0.664  10.626  19.689  0.00  0.00    +0.000 C 
BRANCH   8   9
ATOM      9  C   UNL     1      -0.739  10.751  19.353  0.00  0.00    +0.000 A 
ATOM     10  N   UNL     1      -1.296  10.160  18.313  0.00  0.00    +0.000 NA
ATOM     11  C   UNL     1      -2.549  10.693  18.214  0.00  0.00    +0.000 A 
ATOM     12  C   UNL     1      -3.525  10.465  17.236  0.00  0.00    +0.000 A 
ATOM     13  C   UNL     1      -4.712  11.197  17.301  0.00  0.00    +0.000 A 
ATOM     14  C   UNL     1      -4.920  12.131  18.321  0.00  0.00    +0.000 A 
ATOM     15  C   UNL     1      -3.964  12.351  19.323  0.00  0.00    +0.000 A 
ATOM     16  C   UNL     1      -2.789  11.604  19.236  0.00  0.00    +0.000 A 
ATOM     17  N   UNL     1      -1.649  11.547  20.007  0.00  0.00    +0.000 N 
ATOM     18  H   UNL     1      -1.454  12.086  20.840  0.00  0.00    +0.000 HD
ENDBRANCH   8   9
ENDBRANCH   1   8
BRANCH   4  19
ATOM     19  O   UNL     1       3.269   5.994  17.719  0.00  0.00    +0.000 OA
BRANCH  19  20
ATOM     20  C   UNL     1       4.592   5.712  18.042  0.00  0.00    +0.000 A 
ATOM     21  N   UNL     1       5.542   6.623  17.680  0.00  0.00    +0.000 NA
ATOM     22  C   UNL     1       6.797   6.339  18.069  0.00  0.00    +0.000 A 
ATOM     23  C   UNL     1       7.106   5.185  18.755  0.00  0.00    +0.000 A 
ATOM     24  N   UNL     1       6.170   4.271  19.099  0.00  0.00    +0.000 NA
ATOM     25  C   UNL     1       4.880   4.517  18.741  0.00  0.00    +0.000 A 
BRANCH  25  26
ATOM     26  N   UNL     1       3.943   3.573  19.121  0.00  0.00    +0.000 N 
ATOM     27  C   UNL     1       3.685   2.446  18.231  0.00  0.00    +0.000 C 
ATOM     28  C   UNL     1       2.200   2.382  17.890  0.00  0.00    +0.000 C 
ATOM     29  C   UNL     1       1.349   2.358  19.157  0.00  0.00    +0.000 C 
ATOM     30  C   UNL     1       1.684   3.546  20.055  0.00  0.00    +0.000 C 
ATOM     31  C   UNL     1       3.182   3.640  20.361  0.00  0.00    +0.000 C 
ENDBRANCH  25  26
ENDBRANCH  19  20
ENDBRANCH   4  19
TORSDOF 5
ENDMDL
MODEL 8
REMARK VINA RESULT:      -8.9      1.298      3.393
REMARK  Name = 
REMARK  5 active torsions:
REMARK  status: ('A' for Active; 'I' for Inactive)
REMARK    1  A    between atoms: C_2  and  C_3
REMARK    2  A    between atoms: C_2  and  C_22
REMARK    3  A    between atoms: C_6  and  O_7
REMARK    4  A    between atoms: O_7  and  C_8
REMARK    5  A    between atoms: C_13  and  N_14
REMARK                            x       y       z     vdW  Elec       q    Type
REMARK                         _______ _______ _______ _____ _____    ______ ____
ROOT
ATOM      1  C   UNL     1       0.989   9.884  19.045  0.00  0.00    +0.000 A 
ATOM      2  C   UNL     1       0.941   9.345  20.333  0.00  0.00    +0.000 A 
ATOM      3  C   UNL     1       1.561   8.116  20.595  0.00  0.00    +0.000 A 
ATOM      4  C   UNL     1       2.235   7.430  19.577  0.00  0.00    +0.000 A 
ATOM      5  C   UNL     1       2.327   7.995  18.307  0.00  0.00    +0.000 A 
ATOM      6  C   UNL     1       1.696   9.207  18.037  0.00  0.00    +0.000 A 
ENDROOT
BRANCH   1   8
ATOM      7  O   UNL     1       1.054  12.190  18.570  0.00  0.00    +0.000 OA
ATOM      8  C   UNL     1       0.348  11.202  18.755  0.00  0.00    +0.000 C 
BRANCH   8   9
ATOM      9  C   UNL     1      -1.093  11.215  18.619  0.00  0.00    +0.000 A 
ATOM     10  N   UNL     1      -1.727  10.822  17.529  0.00  0.00    +0.000 NA
ATOM     11  C   UNL     1      -3.030  11.190  17.708  0.00  0.00    +0.000 A 
ATOM     12  C   UNL     1      -4.105  11.076  16.818  0.00  0.00    +0.000 A 
ATOM     13  C   UNL     1      -5.340  11.605  17.199  0.00  0.00    +0.000 A 
ATOM     14  C   UNL     1      -5.497  12.228  18.440  0.00  0.00    +0.000 A 
ATOM     15  C   UNL     1      -4.437  12.327  19.354  0.00  0.00    +0.000 A 
ATOM     16  C   UNL     1      -3.215  11.788  18.950  0.00  0.00    +0.000 A 
ATOM     17  N   UNL     1      -1.980  11.700  19.550  0.00  0.00    +0.000 N 
ATOM     18  H   UNL     1      -1.726  12.043  20.467  0.00  0.00    +0.000 HD
ENDBRANCH   8   9
ENDBRANCH   1   8
BRANCH   4  19
ATOM     19  O   UNL     1       2.853   6.257  19.939  0.00  0.00    +0.000 OA
BRANCH  19  20
ATOM     20  C   UNL     1       2.580   5.097  19.222  0.00  0.00    +0.000 A 
ATOM     21  N   UNL     1       1.413   4.443  19.492  0.00  0.00    +0.000 NA
ATOM     22  C   UNL     1       1.162   3.364  18.730  0.00  0.00    +0.000 A 
ATOM     23  C   UNL     1       2.046   2.928  17.767  0.00  0.00    +0.000 A 
ATOM     24  N   UNL     1       3.212   3.564  17.510  0.00  0.00    +0.000 NA
ATOM     25  C   UNL     1       3.508   4.670  18.244  0.00  0.00    +0.000 A 
BRANCH  25  26
ATOM     26  N   UNL     1       4.699   5.308  17.947  0.00  0.00    +0.000 N 
ATOM     27  C   UNL     1       4.764   6.147  16.754  0.00  0.00    +0.000 C 
ATOM     28  C   UNL     1       5.900   5.679  15.850  0.00  0.00    +0.000 C 
ATOM     29  C   UNL     1       7.218   5.615  16.616  0.00  0.00    +0.000 C 
ATOM     30  C   UNL     1       7.077   4.745  17.863  0.00  0.00    +0.000 C 
ATOM     31  C   UNL     1       5.908   5.184  18.750  0.00  0.00    +0.000 C 
ENDBRANCH  25  26
ENDBRANCH  19  20
ENDBRANCH   4  19
TORSDOF 5
ENDMDL
MODEL 9
REMARK VINA RESULT:      -8.9      1.304      2.042
REMARK  Name = 
REMARK  5 active torsions:
REMARK  status: ('A' for Active; 'I' for Inactive)
REMARK    1  A    between atoms: C_2  and  C_3
REMARK    2  A    between atoms: C_2  and  C_22
REMARK    3  A    between atoms: C_6  and  O_7
REMARK    4  A    between atoms: O_7  and  C_8
REMARK    5  A    between atoms: C_13  and  N_14
REMARK                            x       y       z     vdW  Elec       q    Type
REMARK                         _______ _______ _______ _____ _____    ______ ____
ROOT
ATOM      1  C   UNL     1       1.042   9.994  18.962  0.00  0.00    +0.000 A 
ATOM      2  C   UNL     1       1.123   9.326  20.187  0.00  0.00    +0.000 A 
ATOM      3  C   UNL     1       1.784   8.094  20.263  0.00  0.00    +0.000 A 
ATOM      4  C   UNL     1       2.371   7.531  19.124  0.00  0.00    +0.000 A 
ATOM      5  C   UNL     1       2.336   8.223  17.915  0.00  0.00    +0.000 A 
ATOM      6  C   UNL     1       1.663   9.440  17.830  0.00  0.00    +0.000 A 
ENDROOT
BRANCH   1   8
ATOM      7  O   UNL     1       1.025  12.347  18.868  0.00  0.00    +0.000 OA
ATOM      8  C   UNL     1       0.356  11.318  18.867  0.00  0.00    +0.000 C 
BRANCH   8   9
ATOM      9  C   UNL     1      -1.080  11.301  18.688  0.00  0.00    +0.000 A 
ATOM     10  N   UNL     1      -1.672  10.928  17.568  0.00  0.00    +0.000 NA
ATOM     11  C   UNL     1      -2.988  11.259  17.719  0.00  0.00    +0.000 A 
ATOM     12  C   UNL     1      -4.033  11.148  16.794  0.00  0.00    +0.000 A 
ATOM     13  C   UNL     1      -5.292  11.635  17.153  0.00  0.00    +0.000 A 
ATOM     14  C   UNL     1      -5.501  12.215  18.408  0.00  0.00    +0.000 A 
ATOM     15  C   UNL     1      -4.471  12.310  19.355  0.00  0.00    +0.000 A 
ATOM     16  C   UNL     1      -3.225  11.813  18.973  0.00  0.00    +0.000 A 
ATOM     17  N   UNL     1      -2.006  11.735  19.607  0.00  0.00    +0.000 N 
ATOM     18  H   UNL     1      -1.788  12.055  20.541  0.00  0.00    +0.000 HD
ENDBRANCH   8   9
ENDBRANCH   1   8
BRANCH   4  19
ATOM     19  O   UNL     1       3.039   6.344  19.306  0.00  0.00    +0.000 OA
BRANCH  19  20
ATOM     20  C   UNL     1       3.690   5.759  18.226  0.00  0.00    +0.000 A 
ATOM     21  N   UNL     1       4.414   6.573  17.404  0.00  0.00    +0.000 NA
ATOM     22  C   UNL     1       5.077   5.956  16.411  0.00  0.00    +0.000 A 
ATOM     23  C   UNL     1       4.997   4.594  16.216  0.00  0.00    +0.000 A 
ATOM     24  N   UNL     1       4.265   3.787  17.017  0.00  0.00    +0.000 NA
ATOM     25  C   UNL     1       3.585   4.360  18.046  0.00  0.00    +0.000 A 
BRANCH  25  26
ATOM     26  N   UNL     1       2.859   3.507  18.858  0.00  0.00    +0.000 N 
ATOM     27  C   UNL     1       1.407   3.479  18.721  0.00  0.00    +0.000 C 
ATOM     28  C   UNL     1       0.751   3.767  20.068  0.00  0.00    +0.000 C 
ATOM     29  C   UNL     1       1.274   2.820  21.144  0.00  0.00    +0.000 C 
ATOM     30  C   UNL     1       2.798   2.877  21.219  0.00  0.00    +0.000 C 
ATOM     31  C   UNL     1       3.458   2.634  19.859  0.00  0.00    +0.000 C 
ENDBRANCH  25  26
ENDBRANCH  19  20
ENDBRANCH   4  19
TORSDOF 5
ENDMDL
