MODEL 1
REMARK VINA RESULT:      -8.9      0.000      0.000
REMARK  Name = 
REMARK  9 active torsions:
REMARK  status: ('A' for Active; 'I' for Inactive)
REMARK    1  A    between atoms: N_1  and  C_2
REMARK    2  A    between atoms: C_2  and  C_3
REMARK    3  A    between atoms: C_4  and  C_5
REMARK    4  A    between atoms: C_6  and  O_7
REMARK    5  A    between atoms: O_7  and  C_8
REMARK    6  A    between atoms: C_11  and  N_12
REMARK    7  A    between atoms: C_16  and  C_18
REMARK    8  A    between atoms: C_18  and  C_19
REMARK    9  A    between atoms: C_32  and  N_33
REMARK                            x       y       z     vdW  Elec       q    Type
REMARK                         _______ _______ _______ _____ _____    ______ ____
ROOT
ATOM      1  C   UNL     1       2.342   7.329  18.910  0.00  0.00    +0.000 A 
ATOM      2  C   UNL     1       1.931   7.062  20.217  0.00  0.00    +0.000 A 
ATOM      3  C   UNL     1       1.315   8.060  20.978  0.00  0.00    +0.000 A 
ATOM      4  C   UNL     1       1.030   9.308  20.424  0.00  0.00    +0.000 A 
ATOM      5  C   UNL     1       1.327   9.532  19.077  0.00  0.00    +0.000 A 
ATOM      6  C   UNL     1       1.973   8.544  18.332  0.00  0.00    +0.000 A 
ATOM      7  F   UNL     1       2.259   8.793  17.045  0.00  0.00    +0.000 F 
ENDROOT
BRANCH   4   8
ATOM      8  N   UNL     1       0.488  10.376  21.163  0.00  0.00    +0.000 N 
ATOM      9  C   UNL     1       0.275  11.665  20.749  0.00  0.00    +0.000 C 
ATOM     10  O   UNL     1       0.591  12.155  19.668  0.00  0.00    +0.000 OA
ATOM     11  N   UNL     1      -0.387  12.473  21.647  0.00  0.00    +0.000 N 
ATOM     12  C   UNL     1      -1.038  12.103  22.807  0.00  0.00    +0.000 C 
ATOM     13  O   UNL     1      -0.923  10.990  23.320  0.00  0.00    +0.000 OA
ATOM     14  H   UNL     1       0.204  10.178  22.122  0.00  0.00    +0.000 HD
ATOM     15  H   UNL     1      -0.519  13.408  21.289  0.00  0.00    +0.000 HD
BRANCH  12  16
ATOM     16  C   UNL     1      -1.863  13.205  23.437  0.00  0.00    +0.000 C 
BRANCH  16  17
ATOM     17  C   UNL     1      -3.346  12.954  23.356  0.00  0.00    +0.000 A 
ATOM     18  C   UNL     1      -4.077  12.634  24.508  0.00  0.00    +0.000 A 
ATOM     19  C   UNL     1      -5.465  12.468  24.442  0.00  0.00    +0.000 A 
ATOM     20  C   UNL     1      -6.119  12.630  23.228  0.00  0.00    +0.000 A 
ATOM     21  F   UNL     1      -7.450  12.498  23.173  0.00  0.00    +0.000 F 
ATOM     22  C   UNL     1      -5.413  12.936  22.073  0.00  0.00    +0.000 A 
ATOM     23  C   UNL     1      -4.028  13.103  22.136  0.00  0.00    +0.000 A 
ENDBRANCH  16  17
ENDBRANCH  12  16
ENDBRANCH   4   8
BRANCH   1  24
ATOM     24  O   UNL     1       3.107   6.482  18.140  0.00  0.00    +0.000 OA
BRANCH  24  26
ATOM     25  C   UNL     1       4.126   4.330  18.849  0.00  0.00    +0.000 A 
ATOM     26  C   UNL     1       3.068   5.120  18.368  0.00  0.00    +0.000 A 
ATOM     27  C   UNL     1       1.868   4.508  18.014  0.00  0.00    +0.000 A 
ATOM     28  C   UNL     1       1.735   3.151  18.234  0.00  0.00    +0.000 A 
ATOM     29  N   UNL     1       2.692   2.385  18.799  0.00  0.00    +0.000 NA
ATOM     30  C   UNL     1       3.863   2.977  19.103  0.00  0.00    +0.000 A 
BRANCH  30  31
ATOM     31  N   UNL     1       4.820   2.129  19.668  0.00  0.00    +0.000 N 
ATOM     32  H   UNL     1       5.474   2.707  20.186  0.00  0.00    +0.000 HD
ATOM     33  H   UNL     1       5.272   1.555  18.965  0.00  0.00    +0.000 HD
ENDBRANCH  30  31
BRANCH  25  35
ATOM     34  C   UNL     1       6.546   5.284  19.277  0.00  0.00    +0.000 C 
ATOM     35  C   UNL     1       5.445   4.849  19.072  0.00  0.00    +0.000 C 
BRANCH  34  36
ATOM     36  C   UNL     1       7.899   5.757  19.559  0.00  0.00    +0.000 C 
BRANCH  36  37
ATOM     37  N   UNL     1       8.173   6.927  18.738  0.00  0.00    +0.000 NA
ATOM     38  H   UNL     1       7.406   7.066  18.085  0.00  0.00    +0.000 HD
ATOM     39  H   UNL     1       9.002   6.746  18.173  0.00  0.00    +0.000 HD
ENDBRANCH  36  37
ENDBRANCH  34  36
ENDBRANCH  25  35
ENDBRANCH  24  26
ENDBRANCH   1  24
TORSDOF 9
ENDMDL
MODEL 2
REMARK VINA RESULT:      -8.9      0.987      1.235
REMARK  Name = 
REMARK  9 active torsions:
REMARK  status: ('A' for Active; 'I' for Inactive)
REMARK    1  A    between atoms: N_1  and  C_2
REMARK    2  A    between atoms: C_2  and  C_3
REMARK    3  A    between atoms: C_4  and  C_5
REMARK    4  A    between atoms: C_6  and  O_7
REMARK    5  A    between atoms: O_7  and  C_8
REMARK    6  A    between atoms: C_11  and  N_12
REMARK    7  A    between atoms: C_16  and  C_18
REMARK    8  A    between atoms: C_18  and  C_19
REMARK    9  A    between atoms: C_32  and  N_33
REMARK                            x       y       z     vdW  Elec       q    Type
REMARK                         _______ _______ _______ _____ _____    ______ ____
ROOT
ATOM      1  C   UNL     1       2.247   7.502  19.200  0.00  0.00    +0.000 A 
ATOM      2  C   UNL     1       1.789   7.152  20.470  0.00  0.00    +0.000 A 
ATOM      3  C   UNL     1       0.957   8.021  21.182  0.00  0.00    +0.000 A 
ATOM      4  C   UNL     1       0.509   9.212  20.608  0.00  0.00    +0.000 A 
ATOM      5  C   UNL     1       0.865   9.499  19.287  0.00  0.00    +0.000 A 
ATOM      6  C   UNL     1       1.724   8.644  18.595  0.00  0.00    +0.000 A 
ATOM      7  F   UNL     1       2.061   8.955  17.334  0.00  0.00    +0.000 F 
ENDROOT
BRANCH   4   8
ATOM      8  N   UNL     1      -0.261  10.162  21.303  0.00  0.00    +0.000 N 
ATOM      9  C   UNL     1      -0.261  10.425  22.649  0.00  0.00    +0.000 C 
ATOM     10  O   UNL     1       0.362   9.823  23.518  0.00  0.00    +0.000 OA
ATOM     11  N   UNL     1      -1.029  11.499  23.042  0.00  0.00    +0.000 N 
ATOM     12  C   UNL     1      -1.625  12.456  22.245  0.00  0.00    +0.000 C 
ATOM     13  O   UNL     1      -1.729  12.349  21.024  0.00  0.00    +0.000 OA
ATOM     14  H   UNL     1      -0.893  10.740  20.750  0.00  0.00    +0.000 HD
ATOM     15  H   UNL     1      -0.989  11.648  24.040  0.00  0.00    +0.000 HD
BRANCH  12  16
ATOM     16  C   UNL     1      -2.200  13.631  23.009  0.00  0.00    +0.000 C 
BRANCH  16  17
ATOM     17  C   UNL     1      -3.660  13.464  23.339  0.00  0.00    +0.000 A 
ATOM     18  C   UNL     1      -4.070  12.527  24.297  0.00  0.00    +0.000 A 
ATOM     19  C   UNL     1      -5.420  12.421  24.651  0.00  0.00    +0.000 A 
ATOM     20  C   UNL     1      -6.354  13.256  24.053  0.00  0.00    +0.000 A 
ATOM     21  F   UNL     1      -7.641  13.172  24.414  0.00  0.00    +0.000 F 
ATOM     22  C   UNL     1      -5.971  14.183  23.094  0.00  0.00    +0.000 A 
ATOM     23  C   UNL     1      -4.625  14.291  22.739  0.00  0.00    +0.000 A 
ENDBRANCH  16  17
ENDBRANCH  12  16
ENDBRANCH   4   8
BRANCH   1  24
ATOM     24  O   UNL     1       3.201   6.805  18.491  0.00  0.00    +0.000 OA
BRANCH  24  26
ATOM     25  C   UNL     1       4.204   4.549  18.765  0.00  0.00    +0.000 A 
ATOM     26  C   UNL     1       3.154   5.425  18.444  0.00  0.00    +0.000 A 
ATOM     27  C   UNL     1       1.953   4.903  17.969  0.00  0.00    +0.000 A 
ATOM     28  C   UNL     1       1.812   3.530  17.915  0.00  0.00    +0.000 A 
ATOM     29  N   UNL     1       2.760   2.662  18.322  0.00  0.00    +0.000 NA
ATOM     30  C   UNL     1       3.932   3.175  18.745  0.00  0.00    +0.000 A 
BRANCH  30  31
ATOM     31  N   UNL     1       4.881   2.225  19.135  0.00  0.00    +0.000 N 
ATOM     32  H   UNL     1       4.900   1.500  18.424  0.00  0.00    +0.000 HD
ATOM     33  H   UNL     1       4.688   1.862  20.061  0.00  0.00    +0.000 HD
ENDBRANCH  30  31
BRANCH  25  35
ATOM     34  C   UNL     1       6.635   5.380  19.355  0.00  0.00    +0.000 C 
ATOM     35  C   UNL     1       5.523   5.005  19.094  0.00  0.00    +0.000 C 
BRANCH  34  36
ATOM     36  C   UNL     1       7.985   5.872  19.618  0.00  0.00    +0.000 C 
BRANCH  36  37
ATOM     37  N   UNL     1       8.237   7.036  18.783  0.00  0.00    +0.000 NA
ATOM     38  H   UNL     1       8.985   6.823  18.127  0.00  0.00    +0.000 HD
ATOM     39  H   UNL     1       8.579   7.795  19.370  0.00  0.00    +0.000 HD
ENDBRANCH  36  37
ENDBRANCH  34  36
ENDBRANCH  25  35
ENDBRANCH  24  26
ENDBRANCH   1  24
TORSDOF 9
ENDMDL
MODEL 3
REMARK VINA RESULT:      -8.7      1.240      1.526
REMARK  Name = 
REMARK  9 active torsions:
REMARK  status: ('A' for Active; 'I' for Inactive)
REMARK    1  A    between atoms: N_1  and  C_2
REMARK    2  A    between atoms: C_2  and  C_3
REMARK    3  A    between atoms: C_4  and  C_5
REMARK    4  A    between atoms: C_6  and  O_7
REMARK    5  A    between atoms: O_7  and  C_8
REMARK    6  A    between atoms: C_11  and  N_12
REMARK    7  A    between atoms: C_16  and  C_18
REMARK    8  A    between atoms: C_18  and  C_19
REMARK    9  A    between atoms: C_32  and  N_33
REMARK                            x       y       z     vdW  Elec       q    Type
REMARK                         _______ _______ _______ _____ _____    ______ ____
ROOT
ATOM      1  C   UNL     1       2.227   7.624  19.140  0.00  0.00    +0.000 A 
ATOM      2  C   UNL     1       1.867   7.323  20.454  0.00  0.00    +0.000 A 
ATOM      3  C   UNL     1       1.110   8.229  21.201  0.00  0.00    +0.000 A 
ATOM      4  C   UNL     1       0.636   9.409  20.626  0.00  0.00    +0.000 A 
ATOM      5  C   UNL     1       0.888   9.649  19.273  0.00  0.00    +0.000 A 
ATOM      6  C   UNL     1       1.674   8.757  18.542  0.00  0.00    +0.000 A 
ATOM      7  F   UNL     1       1.913   9.021  17.248  0.00  0.00    +0.000 F 
ENDROOT
BRANCH   4   8
ATOM      8  N   UNL     1      -0.060  10.395  21.350  0.00  0.00    +0.000 N 
ATOM      9  C   UNL     1      -0.442  10.363  22.666  0.00  0.00    +0.000 C 
ATOM     10  O   UNL     1      -0.312   9.426  23.449  0.00  0.00    +0.000 OA
ATOM     11  N   UNL     1      -1.006  11.523  23.148  0.00  0.00    +0.000 N 
ATOM     12  C   UNL     1      -1.046  12.764  22.544  0.00  0.00    +0.000 C 
ATOM     13  O   UNL     1      -0.762  12.949  21.361  0.00  0.00    +0.000 OA
ATOM     14  H   UNL     1      -0.309  11.248  20.849  0.00  0.00    +0.000 HD
ATOM     15  H   UNL     1      -1.263  11.443  24.121  0.00  0.00    +0.000 HD
BRANCH  12  16
ATOM     16  C   UNL     1      -1.532  13.879  23.446  0.00  0.00    +0.000 C 
BRANCH  16  17
ATOM     17  C   UNL     1      -3.030  14.040  23.433  0.00  0.00    +0.000 A 
ATOM     18  C   UNL     1      -3.631  15.150  24.042  0.00  0.00    +0.000 A 
ATOM     19  C   UNL     1      -5.017  15.333  23.970  0.00  0.00    +0.000 A 
ATOM     20  C   UNL     1      -5.796  14.411  23.284  0.00  0.00    +0.000 A 
ATOM     21  F   UNL     1      -7.118  14.603  23.192  0.00  0.00    +0.000 F 
ATOM     22  C   UNL     1      -5.222  13.299  22.683  0.00  0.00    +0.000 A 
ATOM     23  C   UNL     1      -3.839  13.115  22.753  0.00  0.00    +0.000 A 
ENDBRANCH  16  17
ENDBRANCH  12  16
ENDBRANCH   4   8
BRANCH   1  24
ATOM     24  O   UNL     1       3.109   6.888  18.380  0.00  0.00    +0.000 OA
BRANCH  24  26
ATOM     25  C   UNL     1       4.034   4.600  18.661  0.00  0.00    +0.000 A 
ATOM     26  C   UNL     1       3.011   5.511  18.350  0.00  0.00    +0.000 A 
ATOM     27  C   UNL     1       1.782   5.028  17.905  0.00  0.00    +0.000 A 
ATOM     28  C   UNL     1       1.590   3.660  17.870  0.00  0.00    +0.000 A 
ATOM     29  N   UNL     1       2.515   2.762  18.270  0.00  0.00    +0.000 NA
ATOM     30  C   UNL     1       3.713   3.236  18.663  0.00  0.00    +0.000 A 
BRANCH  30  31
ATOM     31  N   UNL     1       4.634   2.257  19.046  0.00  0.00    +0.000 N 
ATOM     32  H   UNL     1       4.183   1.354  18.938  0.00  0.00    +0.000 HD
ATOM     33  H   UNL     1       4.978   2.415  19.986  0.00  0.00    +0.000 HD
ENDBRANCH  30  31
BRANCH  25  35
ATOM     34  C   UNL     1       6.506   5.349  19.193  0.00  0.00    +0.000 C 
ATOM     35  C   UNL     1       5.376   5.012  18.959  0.00  0.00    +0.000 C 
BRANCH  34  36
ATOM     36  C   UNL     1       7.876   5.799  19.426  0.00  0.00    +0.000 C 
BRANCH  36  37
ATOM     37  N   UNL     1       8.351   5.243  20.683  0.00  0.00    +0.000 NA
ATOM     38  H   UNL     1       8.862   4.384  20.500  0.00  0.00    +0.000 HD
ATOM     39  H   UNL     1       7.546   4.981  21.253  0.00  0.00    +0.000 HD
ENDBRANCH  36  37
ENDBRANCH  34  36
ENDBRANCH  25  35
ENDBRANCH  24  26
ENDBRANCH   1  24
TORSDOF 9
ENDMDL
MODEL 4
REMARK VINA RESULT:      -8.7      1.106      1.344
REMARK  Name = 
REMARK  9 active torsions:
REMARK  status: ('A' for Active; 'I' for Inactive)
REMARK    1  A    between atoms: N_1  and  C_2
REMARK    2  A    between atoms: C_2  and  C_3
REMARK    3  A    between atoms: C_4  and  C_5
REMARK    4  A    between atoms: C_6  and  O_7
REMARK    5  A    between atoms: O_7  and  C_8
REMARK    6  A    between atoms: C_11  and  N_12
REMARK    7  A    between atoms: C_16  and  C_18
REMARK    8  A    between atoms: C_18  and  C_19
REMARK    9  A    between atoms: C_32  and  N_33
REMARK                            x       y       z     vdW  Elec       q    Type
REMARK                         _______ _______ _______ _____ _____    ______ ____
ROOT
ATOM      1  C   UNL     1       2.315   7.306  18.892  0.00  0.00    +0.000 A 
ATOM      2  C   UNL     1       1.910   7.041  20.201  0.00  0.00    +0.000 A 
ATOM      3  C   UNL     1       1.289   8.038  20.960  0.00  0.00    +0.000 A 
ATOM      4  C   UNL     1       0.995   9.283  20.402  0.00  0.00    +0.000 A 
ATOM      5  C   UNL     1       1.285   9.502  19.052  0.00  0.00    +0.000 A 
ATOM      6  C   UNL     1       1.936   8.516  18.310  0.00  0.00    +0.000 A 
ATOM      7  F   UNL     1       2.217   8.761  17.021  0.00  0.00    +0.000 F 
ENDROOT
BRANCH   4   8
ATOM      8  N   UNL     1       0.446  10.349  21.138  0.00  0.00    +0.000 N 
ATOM      9  C   UNL     1       0.174  11.620  20.704  0.00  0.00    +0.000 C 
ATOM     10  O   UNL     1       0.430  12.094  19.600  0.00  0.00    +0.000 OA
ATOM     11  N   UNL     1      -0.478  12.428  21.609  0.00  0.00    +0.000 N 
ATOM     12  C   UNL     1      -1.068  12.065  22.803  0.00  0.00    +0.000 C 
ATOM     13  O   UNL     1      -0.895  10.969  23.336  0.00  0.00    +0.000 OA
ATOM     14  H   UNL     1       0.209  10.166  22.112  0.00  0.00    +0.000 HD
ATOM     15  H   UNL     1      -0.655  13.350  21.235  0.00  0.00    +0.000 HD
BRANCH  12  16
ATOM     16  C   UNL     1      -1.904  13.155  23.441  0.00  0.00    +0.000 C 
BRANCH  16  17
ATOM     17  C   UNL     1      -3.038  13.621  22.564  0.00  0.00    +0.000 A 
ATOM     18  C   UNL     1      -4.090  12.753  22.242  0.00  0.00    +0.000 A 
ATOM     19  C   UNL     1      -5.175  13.208  21.485  0.00  0.00    +0.000 A 
ATOM     20  C   UNL     1      -5.209  14.529  21.059  0.00  0.00    +0.000 A 
ATOM     21  F   UNL     1      -6.262  14.970  20.358  0.00  0.00    +0.000 F 
ATOM     22  C   UNL     1      -4.173  15.402  21.358  0.00  0.00    +0.000 A 
ATOM     23  C   UNL     1      -3.088  14.951  22.114  0.00  0.00    +0.000 A 
ENDBRANCH  16  17
ENDBRANCH  12  16
ENDBRANCH   4   8
BRANCH   1  24
ATOM     24  O   UNL     1       3.084   6.461  18.123  0.00  0.00    +0.000 OA
BRANCH  24  26
ATOM     25  C   UNL     1       4.070   4.287  18.809  0.00  0.00    +0.000 A 
ATOM     26  C   UNL     1       3.027   5.096  18.332  0.00  0.00    +0.000 A 
ATOM     27  C   UNL     1       1.821   4.505  17.961  0.00  0.00    +0.000 A 
ATOM     28  C   UNL     1       1.670   3.146  18.160  0.00  0.00    +0.000 A 
ATOM     29  N   UNL     1       2.613   2.361  18.722  0.00  0.00    +0.000 NA
ATOM     30  C   UNL     1       3.789   2.934  19.043  0.00  0.00    +0.000 A 
BRANCH  30  31
ATOM     31  N   UNL     1       4.731   2.065  19.602  0.00  0.00    +0.000 N 
ATOM     32  H   UNL     1       5.528   2.033  18.974  0.00  0.00    +0.000 HD
ATOM     33  H   UNL     1       4.335   1.150  19.783  0.00  0.00    +0.000 HD
ENDBRANCH  30  31
BRANCH  25  35
ATOM     34  C   UNL     1       6.501   5.215  19.236  0.00  0.00    +0.000 C 
ATOM     35  C   UNL     1       5.394   4.786  19.049  0.00  0.00    +0.000 C 
BRANCH  34  36
ATOM     36  C   UNL     1       7.819   5.795  19.476  0.00  0.00    +0.000 C 
BRANCH  36  37
ATOM     37  N   UNL     1       8.370   5.233  20.699  0.00  0.00    +0.000 NA
ATOM     38  H   UNL     1       9.145   4.617  20.468  0.00  0.00    +0.000 HD
ATOM     39  H   UNL     1       7.661   4.647  21.141  0.00  0.00    +0.000 HD
ENDBRANCH  36  37
ENDBRANCH  34  36
ENDBRANCH  25  35
ENDBRANCH  24  26
ENDBRANCH   1  24
TORSDOF 9
ENDMDL
MODEL 5
REMARK VINA RESULT:      -8.5      3.563     10.211
REMARK  Name = 
REMARK  9 active torsions:
REMARK  status: ('A' for Active; 'I' for Inactive)
REMARK    1  A    between atoms: N_1  and  C_2
REMARK    2  A    between atoms: C_2  and  C_3
REMARK    3  A    between atoms: C_4  and  C_5
REMARK    4  A    between atoms: C_6  and  O_7
REMARK    5  A    between atoms: O_7  and  C_8
REMARK    6  A    between atoms: C_11  and  N_12
REMARK    7  A    between atoms: C_16  and  C_18
REMARK    8  A    between atoms: C_18  and  C_19
REMARK    9  A    between atoms: C_32  and  N_33
REMARK                            x       y       z     vdW  Elec       q    Type
REMARK                         _______ _______ _______ _____ _____    ______ ____
ROOT
ATOM      1  C   UNL     1      -1.811  12.355  20.054  0.00  0.00    +0.000 A 
ATOM      2  C   UNL     1      -1.448  11.477  21.076  0.00  0.00    +0.000 A 
ATOM      3  C   UNL     1      -0.456  10.516  20.859  0.00  0.00    +0.000 A 
ATOM      4  C   UNL     1       0.239  10.467  19.650  0.00  0.00    +0.000 A 
ATOM      5  C   UNL     1      -0.037  11.429  18.674  0.00  0.00    +0.000 A 
ATOM      6  C   UNL     1      -1.052  12.364  18.884  0.00  0.00    +0.000 A 
ATOM      7  F   UNL     1      -1.305  13.265  17.923  0.00  0.00    +0.000 F 
ENDROOT
BRANCH   4   8
ATOM      8  N   UNL     1       1.187   9.473  19.344  0.00  0.00    +0.000 N 
ATOM      9  C   UNL     1       1.494   8.351  20.068  0.00  0.00    +0.000 C 
ATOM     10  O   UNL     1       1.048   8.037  21.168  0.00  0.00    +0.000 OA
ATOM     11  N   UNL     1       2.381   7.484  19.468  0.00  0.00    +0.000 N 
ATOM     12  C   UNL     1       2.832   7.496  18.163  0.00  0.00    +0.000 C 
ATOM     13  O   UNL     1       2.662   8.445  17.398  0.00  0.00    +0.000 OA
ATOM     14  H   UNL     1       1.710   9.584  18.476  0.00  0.00    +0.000 HD
ATOM     15  H   UNL     1       2.567   6.675  20.043  0.00  0.00    +0.000 HD
BRANCH  12  16
ATOM     16  C   UNL     1       3.617   6.264  17.765  0.00  0.00    +0.000 C 
BRANCH  16  17
ATOM     17  C   UNL     1       3.023   4.986  18.299  0.00  0.00    +0.000 A 
ATOM     18  C   UNL     1       1.790   4.521  17.822  0.00  0.00    +0.000 A 
ATOM     19  C   UNL     1       1.273   3.300  18.271  0.00  0.00    +0.000 A 
ATOM     20  C   UNL     1       1.993   2.545  19.187  0.00  0.00    +0.000 A 
ATOM     21  F   UNL     1       1.510   1.364  19.593  0.00  0.00    +0.000 F 
ATOM     22  C   UNL     1       3.210   2.992  19.680  0.00  0.00    +0.000 A 
ATOM     23  C   UNL     1       3.728   4.210  19.234  0.00  0.00    +0.000 A 
ENDBRANCH  16  17
ENDBRANCH  12  16
ENDBRANCH   4   8
BRANCH   1  24
ATOM     24  O   UNL     1      -2.885  13.216  20.105  0.00  0.00    +0.000 OA
BRANCH  24  26
ATOM     25  C   UNL     1      -4.926  11.921  19.536  0.00  0.00    +0.000 A 
ATOM     26  C   UNL     1      -4.147  12.728  20.381  0.00  0.00    +0.000 A 
ATOM     27  C   UNL     1      -4.679  13.154  21.596  0.00  0.00    +0.000 A 
ATOM     28  C   UNL     1      -5.928  12.691  21.962  0.00  0.00    +0.000 A 
ATOM     29  N   UNL     1      -6.653  11.825  21.224  0.00  0.00    +0.000 NA
ATOM     30  C   UNL     1      -6.148  11.447  20.034  0.00  0.00    +0.000 A 
BRANCH  30  31
ATOM     31  N   UNL     1      -6.953  10.565  19.308  0.00  0.00    +0.000 N 
ATOM     32  H   UNL     1      -7.092   9.737  19.879  0.00  0.00    +0.000 HD
ATOM     33  H   UNL     1      -6.554  10.354  18.401  0.00  0.00    +0.000 HD
ENDBRANCH  30  31
BRANCH  25  35
ATOM     34  C   UNL     1      -4.194  11.277  17.086  0.00  0.00    +0.000 C 
ATOM     35  C   UNL     1      -4.526  11.580  18.201  0.00  0.00    +0.000 C 
BRANCH  34  36
ATOM     36  C   UNL     1      -3.850  10.886  15.722  0.00  0.00    +0.000 C 
BRANCH  36  37
ATOM     37  N   UNL     1      -2.518  11.379  15.408  0.00  0.00    +0.000 NA
ATOM     38  H   UNL     1      -2.536  11.844  14.503  0.00  0.00    +0.000 HD
ATOM     39  H   UNL     1      -1.887  10.584  15.309  0.00  0.00    +0.000 HD
ENDBRANCH  36  37
ENDBRANCH  34  36
ENDBRANCH  25  35
ENDBRANCH  24  26
ENDBRANCH   1  24
TORSDOF 9
ENDMDL
MODEL 6
REMARK VINA RESULT:      -8.4      3.595     10.707
REMARK  Name = 
REMARK  9 active torsions:
REMARK  status: ('A' for Active; 'I' for Inactive)
REMARK    1  A    between atoms: N_1  and  C_2
REMARK    2  A    between atoms: C_2  and  C_3
REMARK    3  A    between atoms: C_4  and  C_5
REMARK    4  A    between atoms: C_6  and  O_7
REMARK    5  A    between atoms: O_7  and  C_8
REMARK    6  A    between atoms: C_11  and  N_12
REMARK    7  A    between atoms: C_16  and  C_18
REMARK    8  A    between atoms: C_18  and  C_19
REMARK    9  A    between atoms: C_32  and  N_33
REMARK                            x       y       z     vdW  Elec       q    Type
REMARK                         _______ _______ _______ _____ _____    ______ ____
ROOT
ATOM      1  C   UNL     1      -1.735  12.175  19.933  0.00  0.00    +0.000 A 
ATOM      2  C   UNL     1      -1.343  11.546  21.115  0.00  0.00    +0.000 A 
ATOM      3  C   UNL     1      -0.400  10.514  21.082  0.00  0.00    +0.000 A 
ATOM      4  C   UNL     1       0.219  10.149  19.886  0.00  0.00    +0.000 A 
ATOM      5  C   UNL     1      -0.081  10.867  18.725  0.00  0.00    +0.000 A 
ATOM      6  C   UNL     1      -1.048  11.873  18.757  0.00  0.00    +0.000 A 
ATOM      7  F   UNL     1      -1.327  12.534  17.624  0.00  0.00    +0.000 F 
ENDROOT
BRANCH   4   8
ATOM      8  N   UNL     1       1.113   9.067  19.777  0.00  0.00    +0.000 N 
ATOM      9  C   UNL     1       1.579   8.256  20.779  0.00  0.00    +0.000 C 
ATOM     10  O   UNL     1       1.361   8.369  21.982  0.00  0.00    +0.000 OA
ATOM     11  N   UNL     1       2.352   7.193  20.368  0.00  0.00    +0.000 N 
ATOM     12  C   UNL     1       2.543   6.726  19.083  0.00  0.00    +0.000 C 
ATOM     13  O   UNL     1       2.207   7.354  18.079  0.00  0.00    +0.000 OA
ATOM     14  H   UNL     1       1.456   8.842  18.844  0.00  0.00    +0.000 HD
ATOM     15  H   UNL     1       2.664   6.629  21.145  0.00  0.00    +0.000 HD
BRANCH  12  16
ATOM     16  C   UNL     1       3.263   5.396  19.005  0.00  0.00    +0.000 C 
BRANCH  16  17
ATOM     17  C   UNL     1       4.287   5.342  17.900  0.00  0.00    +0.000 A 
ATOM     18  C   UNL     1       4.170   4.401  16.869  0.00  0.00    +0.000 A 
ATOM     19  C   UNL     1       5.085   4.396  15.809  0.00  0.00    +0.000 A 
ATOM     20  C   UNL     1       6.106   5.336  15.779  0.00  0.00    +0.000 A 
ATOM     21  F   UNL     1       6.963   5.348  14.750  0.00  0.00    +0.000 F 
ATOM     22  C   UNL     1       6.246   6.270  16.797  0.00  0.00    +0.000 A 
ATOM     23  C   UNL     1       5.335   6.276  17.855  0.00  0.00    +0.000 A 
ENDBRANCH  16  17
ENDBRANCH  12  16
ENDBRANCH   4   8
BRANCH   1  24
ATOM     24  O   UNL     1      -2.774  13.074  19.831  0.00  0.00    +0.000 OA
BRANCH  24  26
ATOM     25  C   UNL     1      -4.902  11.904  19.311  0.00  0.00    +0.000 A 
ATOM     26  C   UNL     1      -4.062  12.676  20.131  0.00  0.00    +0.000 A 
ATOM     27  C   UNL     1      -4.551  13.161  21.341  0.00  0.00    +0.000 A 
ATOM     28  C   UNL     1      -5.823  12.788  21.730  0.00  0.00    +0.000 A 
ATOM     29  N   UNL     1      -6.612  11.956  21.018  0.00  0.00    +0.000 NA
ATOM     30  C   UNL     1      -6.146  11.523  19.830  0.00  0.00    +0.000 A 
BRANCH  30  31
ATOM     31  N   UNL     1      -7.016  10.681  19.131  0.00  0.00    +0.000 N 
ATOM     32  H   UNL     1      -6.474  10.206  18.416  0.00  0.00    +0.000 HD
ATOM     33  H   UNL     1      -7.806  11.190  18.753  0.00  0.00    +0.000 HD
ENDBRANCH  30  31
BRANCH  25  35
ATOM     34  C   UNL     1      -4.244  11.166  16.867  0.00  0.00    +0.000 C 
ATOM     35  C   UNL     1      -4.541  11.512  17.979  0.00  0.00    +0.000 C 
BRANCH  34  36
ATOM     36  C   UNL     1      -3.945  10.730  15.506  0.00  0.00    +0.000 C 
BRANCH  36  37
ATOM     37  N   UNL     1      -2.594  11.144  15.160  0.00  0.00    +0.000 NA
ATOM     38  H   UNL     1      -2.632  11.820  14.402  0.00  0.00    +0.000 HD
ATOM     39  H   UNL     1      -2.084  10.338  14.800  0.00  0.00    +0.000 HD
ENDBRANCH  36  37
ENDBRANCH  34  36
ENDBRANCH  25  35
ENDBRANCH  24  26
ENDBRANCH   1  24
TORSDOF 9
ENDMDL
MODEL 7
REMARK VINA RESULT:      -8.4      1.814      2.086
REMARK  Name = 
REMARK  9 active torsions:
REMARK  status: ('A' for Active; 'I' for Inactive)
REMARK    1  A    between atoms: N_1  and  C_2
REMARK    2  A    between atoms: C_2  and  C_3
REMARK    3  A    between atoms: C_4  and  C_5
REMARK    4  A    between atoms: C_6  and  O_7
REMARK    5  A    between atoms: O_7  and  C_8
REMARK    6  A    between atoms: C_11  and  N_12
REMARK    7  A    between atoms: C_16  and  C_18
REMARK    8  A    between atoms: C_18  and  C_19
REMARK    9  A    between atoms: C_32  and  N_33
REMARK                            x       y       z     vdW  Elec       q    Type
REMARK                         _______ _______ _______ _____ _____    ______ ____
ROOT
ATOM      1  C   UNL     1       2.224   7.283  19.642  0.00  0.00    +0.000 A 
ATOM      2  C   UNL     1       1.576   7.424  20.869  0.00  0.00    +0.000 A 
ATOM      3  C   UNL     1       0.867   8.594  21.159  0.00  0.00    +0.000 A 
ATOM      4  C   UNL     1       0.729   9.601  20.203  0.00  0.00    +0.000 A 
ATOM      5  C   UNL     1       1.270   9.402  18.930  0.00  0.00    +0.000 A 
ATOM      6  C   UNL     1       2.007   8.248  18.658  0.00  0.00    +0.000 A 
ATOM      7  F   UNL     1       2.528   8.092  17.432  0.00  0.00    +0.000 F 
ENDROOT
BRANCH   4   8
ATOM      8  N   UNL     1       0.098  10.831  20.464  0.00  0.00    +0.000 N 
ATOM      9  C   UNL     1      -1.057  11.320  19.910  0.00  0.00    +0.000 C 
ATOM     10  O   UNL     1      -1.723  10.803  19.017  0.00  0.00    +0.000 OA
ATOM     11  N   UNL     1      -1.513  12.505  20.442  0.00  0.00    +0.000 N 
ATOM     12  C   UNL     1      -1.080  13.149  21.584  0.00  0.00    +0.000 C 
ATOM     13  O   UNL     1      -0.046  12.846  22.179  0.00  0.00    +0.000 OA
ATOM     14  H   UNL     1       0.536  11.440  21.154  0.00  0.00    +0.000 HD
ATOM     15  H   UNL     1      -2.367  12.816  19.999  0.00  0.00    +0.000 HD
BRANCH  12  16
ATOM     16  C   UNL     1      -1.953  14.308  22.015  0.00  0.00    +0.000 C 
BRANCH  16  17
ATOM     17  C   UNL     1      -3.235  13.870  22.674  0.00  0.00    +0.000 A 
ATOM     18  C   UNL     1      -4.470  14.099  22.051  0.00  0.00    +0.000 A 
ATOM     19  C   UNL     1      -5.653  13.631  22.633  0.00  0.00    +0.000 A 
ATOM     20  C   UNL     1      -5.599  12.930  23.830  0.00  0.00    +0.000 A 
ATOM     21  F   UNL     1      -6.730  12.458  24.371  0.00  0.00    +0.000 F 
ATOM     22  C   UNL     1      -4.389  12.701  24.469  0.00  0.00    +0.000 A 
ATOM     23  C   UNL     1      -3.206  13.167  23.890  0.00  0.00    +0.000 A 
ENDBRANCH  16  17
ENDBRANCH  12  16
ENDBRANCH   4   8
BRANCH   1  24
ATOM     24  O   UNL     1       3.088   6.257  19.324  0.00  0.00    +0.000 OA
BRANCH  24  26
ATOM     25  C   UNL     1       3.041   3.929  18.460  0.00  0.00    +0.000 A 
ATOM     26  C   UNL     1       2.638   4.950  19.335  0.00  0.00    +0.000 A 
ATOM     27  C   UNL     1       1.649   4.687  20.279  0.00  0.00    +0.000 A 
ATOM     28  C   UNL     1       1.162   3.398  20.375  0.00  0.00    +0.000 A 
ATOM     29  N   UNL     1       1.610   2.369  19.625  0.00  0.00    +0.000 NA
ATOM     30  C   UNL     1       2.540   2.641  18.689  0.00  0.00    +0.000 A 
BRANCH  30  31
ATOM     31  N   UNL     1       2.949   1.539  17.932  0.00  0.00    +0.000 N 
ATOM     32  H   UNL     1       2.663   0.702  18.431  0.00  0.00    +0.000 HD
ATOM     33  H   UNL     1       3.944   1.563  17.743  0.00  0.00    +0.000 HD
ENDBRANCH  30  31
BRANCH  25  35
ATOM     34  C   UNL     1       4.672   4.334  16.428  0.00  0.00    +0.000 C 
ATOM     35  C   UNL     1       3.924   4.158  17.351  0.00  0.00    +0.000 C 
BRANCH  34  36
ATOM     36  C   UNL     1       5.562   4.493  15.281  0.00  0.00    +0.000 C 
BRANCH  36  37
ATOM     37  N   UNL     1       5.895   5.900  15.129  0.00  0.00    +0.000 NA
ATOM     38  H   UNL     1       5.118   6.467  15.459  0.00  0.00    +0.000 HD
ATOM     39  H   UNL     1       6.000   6.109  14.136  0.00  0.00    +0.000 HD
ENDBRANCH  36  37
ENDBRANCH  34  36
ENDBRANCH  25  35
ENDBRANCH  24  26
ENDBRANCH   1  24
TORSDOF 9
ENDMDL
MODEL 8
REMARK VINA RESULT:      -8.4      1.786      1.864
REMARK  Name = 
REMARK  9 active torsions:
REMARK  status: ('A' for Active; 'I' for Inactive)
REMARK    1  A    between atoms: N_1  and  C_2
REMARK    2  A    between atoms: C_2  and  C_3
REMARK    3  A    between atoms: C_4  and  C_5
REMARK    4  A    between atoms: C_6  and  O_7
REMARK    5  A    between atoms: O_7  and  C_8
REMARK    6  A    between atoms: C_11  and  N_12
REMARK    7  A    between atoms: C_16  and  C_18
REMARK    8  A    between atoms: C_18  and  C_19
REMARK    9  A    between atoms: C_32  and  N_33
REMARK                            x       y       z     vdW  Elec       q    Type
REMARK                         _______ _______ _______ _____ _____    ______ ____
ROOT
ATOM      1  C   UNL     1       2.430   7.145  19.477  0.00  0.00    +0.000 A 
ATOM      2  C   UNL     1       1.769   7.249  20.701  0.00  0.00    +0.000 A 
ATOM      3  C   UNL     1       1.026   8.395  21.003  0.00  0.00    +0.000 A 
ATOM      4  C   UNL     1       0.868   9.413  20.062  0.00  0.00    +0.000 A 
ATOM      5  C   UNL     1       1.425   9.249  18.791  0.00  0.00    +0.000 A 
ATOM      6  C   UNL     1       2.195   8.120  18.508  0.00  0.00    +0.000 A 
ATOM      7  F   UNL     1       2.730   7.996  17.283  0.00  0.00    +0.000 F 
ENDROOT
BRANCH   4   8
ATOM      8  N   UNL     1       0.202  10.622  20.337  0.00  0.00    +0.000 N 
ATOM      9  C   UNL     1      -0.981  11.070  19.810  0.00  0.00    +0.000 C 
ATOM     10  O   UNL     1      -1.651  10.530  18.934  0.00  0.00    +0.000 OA
ATOM     11  N   UNL     1      -1.464  12.241  20.352  0.00  0.00    +0.000 N 
ATOM     12  C   UNL     1      -1.026  12.900  21.482  0.00  0.00    +0.000 C 
ATOM     13  O   UNL     1       0.032  12.633  22.052  0.00  0.00    +0.000 OA
ATOM     14  H   UNL     1       0.636  11.246  21.016  0.00  0.00    +0.000 HD
ATOM     15  H   UNL     1      -2.338  12.521  19.929  0.00  0.00    +0.000 HD
BRANCH  12  16
ATOM     16  C   UNL     1      -1.928  14.030  21.933  0.00  0.00    +0.000 C 
BRANCH  16  17
ATOM     17  C   UNL     1      -3.206  13.549  22.570  0.00  0.00    +0.000 A 
ATOM     18  C   UNL     1      -3.192  12.981  23.851  0.00  0.00    +0.000 A 
ATOM     19  C   UNL     1      -4.388  12.598  24.467  0.00  0.00    +0.000 A 
ATOM     20  C   UNL     1      -5.594  12.790  23.806  0.00  0.00    +0.000 A 
ATOM     21  F   UNL     1      -6.740  12.448  24.409  0.00  0.00    +0.000 F 
ATOM     22  C   UNL     1      -5.629  13.341  22.533  0.00  0.00    +0.000 A 
ATOM     23  C   UNL     1      -4.437  13.724  21.915  0.00  0.00    +0.000 A 
ENDBRANCH  16  17
ENDBRANCH  12  16
ENDBRANCH   4   8
BRANCH   1  24
ATOM     24  O   UNL     1       3.323   6.147  19.151  0.00  0.00    +0.000 OA
BRANCH  24  26
ATOM     25  C   UNL     1       3.499   3.787  18.398  0.00  0.00    +0.000 A 
ATOM     26  C   UNL     1       2.906   4.831  19.127  0.00  0.00    +0.000 A 
ATOM     27  C   UNL     1       1.749   4.577  19.860  0.00  0.00    +0.000 A 
ATOM     28  C   UNL     1       1.278   3.279  19.911  0.00  0.00    +0.000 A 
ATOM     29  N   UNL     1       1.889   2.235  19.314  0.00  0.00    +0.000 NA
ATOM     30  C   UNL     1       2.986   2.496  18.576  0.00  0.00    +0.000 A 
BRANCH  30  31
ATOM     31  N   UNL     1       3.563   1.377  17.968  0.00  0.00    +0.000 N 
ATOM     32  H   UNL     1       3.460   0.594  18.606  0.00  0.00    +0.000 HD
ATOM     33  H   UNL     1       4.527   1.548  17.708  0.00  0.00    +0.000 HD
ENDBRANCH  30  31
BRANCH  25  35
ATOM     34  C   UNL     1       5.503   4.157  16.725  0.00  0.00    +0.000 C 
ATOM     35  C   UNL     1       4.586   3.997  17.484  0.00  0.00    +0.000 C 
BRANCH  34  36
ATOM     36  C   UNL     1       6.599   4.298  15.770  0.00  0.00    +0.000 C 
BRANCH  36  37
ATOM     37  N   UNL     1       6.245   3.612  14.537  0.00  0.00    +0.000 NA
ATOM     38  H   UNL     1       5.234   3.519  14.481  0.00  0.00    +0.000 HD
ATOM     39  H   UNL     1       6.619   2.664  14.568  0.00  0.00    +0.000 HD
ENDBRANCH  36  37
ENDBRANCH  34  36
ENDBRANCH  25  35
ENDBRANCH  24  26
ENDBRANCH   1  24
TORSDOF 9
ENDMDL
MODEL 9
REMARK VINA RESULT:      -8.4      3.537     10.103
REMARK  Name = 
REMARK  9 active torsions:
REMARK  status: ('A' for Active; 'I' for Inactive)
REMARK    1  A    between atoms: N_1  and  C_2
REMARK    2  A    between atoms: C_2  and  C_3
REMARK    3  A    between atoms: C_4  and  C_5
REMARK    4  A    between atoms: C_6  and  O_7
REMARK    5  A    between atoms: O_7  and  C_8
REMARK    6  A    between atoms: C_11  and  N_12
REMARK    7  A    between atoms: C_16  and  C_18
REMARK    8  A    between atoms: C_18  and  C_19
REMARK    9  A    between atoms: C_32  and  N_33
REMARK                            x       y       z     vdW  Elec       q    Type
REMARK                         _______ _______ _______ _____ _____    ______ ____
ROOT
ATOM      1  C   UNL     1      -1.614  12.451  20.297  0.00  0.00    +0.000 A 
ATOM      2  C   UNL     1      -1.219  11.667  21.381  0.00  0.00    +0.000 A 
ATOM      3  C   UNL     1      -0.316  10.615  21.195  0.00  0.00    +0.000 A 
ATOM      4  C   UNL     1       0.261  10.381  19.946  0.00  0.00    +0.000 A 
ATOM      5  C   UNL     1      -0.038  11.247  18.891  0.00  0.00    +0.000 A 
ATOM      6  C   UNL     1      -0.966  12.274  19.075  0.00  0.00    +0.000 A 
ATOM      7  F   UNL     1      -1.246  13.080  18.039  0.00  0.00    +0.000 F 
ENDROOT
BRANCH   4   8
ATOM      8  N   UNL     1       1.111   9.291  19.681  0.00  0.00    +0.000 N 
ATOM      9  C   UNL     1       1.513   8.306  20.545  0.00  0.00    +0.000 C 
ATOM     10  O   UNL     1       1.265   8.231  21.746  0.00  0.00    +0.000 OA
ATOM     11  N   UNL     1       2.252   7.289  19.982  0.00  0.00    +0.000 N 
ATOM     12  C   UNL     1       2.460   7.030  18.642  0.00  0.00    +0.000 C 
ATOM     13  O   UNL     1       2.180   7.829  17.748  0.00  0.00    +0.000 OA
ATOM     14  H   UNL     1       1.471   9.205  18.731  0.00  0.00    +0.000 HD
ATOM     15  H   UNL     1       2.517   6.591  20.662  0.00  0.00    +0.000 HD
BRANCH  12  16
ATOM     16  C   UNL     1       3.124   5.699  18.361  0.00  0.00    +0.000 C 
BRANCH  16  17
ATOM     17  C   UNL     1       2.692   4.610  19.310  0.00  0.00    +0.000 A 
ATOM     18  C   UNL     1       3.644   3.805  19.948  0.00  0.00    +0.000 A 
ATOM     19  C   UNL     1       3.244   2.840  20.880  0.00  0.00    +0.000 A 
ATOM     20  C   UNL     1       1.896   2.688  21.175  0.00  0.00    +0.000 A 
ATOM     21  F   UNL     1       1.517   1.784  22.088  0.00  0.00    +0.000 F 
ATOM     22  C   UNL     1       0.936   3.469  20.546  0.00  0.00    +0.000 A 
ATOM     23  C   UNL     1       1.333   4.432  19.616  0.00  0.00    +0.000 A 
ENDBRANCH  16  17
ENDBRANCH  12  16
ENDBRANCH   4   8
BRANCH   1  24
ATOM     24  O   UNL     1      -2.621  13.392  20.335  0.00  0.00    +0.000 OA
BRANCH  24  26
ATOM     25  C   UNL     1      -4.777  12.239  19.901  0.00  0.00    +0.000 A 
ATOM     26  C   UNL     1      -3.904  13.014  20.681  0.00  0.00    +0.000 A 
ATOM     27  C   UNL     1      -4.349  13.525  21.898  0.00  0.00    +0.000 A 
ATOM     28  C   UNL     1      -5.613  13.175  22.331  0.00  0.00    +0.000 A 
ATOM     29  N   UNL     1      -6.433  12.341  21.659  0.00  0.00    +0.000 NA
ATOM     30  C   UNL     1      -6.009  11.882  20.465  0.00  0.00    +0.000 A 
BRANCH  30  31
ATOM     31  N   UNL     1      -6.910  11.038  19.808  0.00  0.00    +0.000 N 
ATOM     32  H   UNL     1      -7.805  11.118  20.282  0.00  0.00    +0.000 HD
ATOM     33  H   UNL     1      -6.570  10.085  19.768  0.00  0.00    +0.000 HD
ENDBRANCH  30  31
BRANCH  25  35
ATOM     34  C   UNL     1      -4.214  11.458  17.447  0.00  0.00    +0.000 C 
ATOM     35  C   UNL     1      -4.462  11.819  18.565  0.00  0.00    +0.000 C 
BRANCH  34  36
ATOM     36  C   UNL     1      -3.965  11.052  16.066  0.00  0.00    +0.000 C 
BRANCH  36  37
ATOM     37  N   UNL     1      -2.579  11.340  15.729  0.00  0.00    +0.000 NA
ATOM     38  H   UNL     1      -2.517  12.272  15.329  0.00  0.00    +0.000 HD
ATOM     39  H   UNL     1      -2.276  10.694  15.001  0.00  0.00    +0.000 HD
ENDBRANCH  36  37
ENDBRANCH  34  36
ENDBRANCH  25  35
ENDBRANCH  24  26
ENDBRANCH   1  24
TORSDOF 9
ENDMDL
