MODEL 1
REMARK VINA RESULT:      -6.4      0.000      0.000
REMARK  Name = 
REMARK  7 active torsions:
REMARK  status: ('A' for Active; 'I' for Inactive)
REMARK    1  A    between atoms: C_1  and  C_2
REMARK    2  A    between atoms: C_7  and  O_8
REMARK    3  A    between atoms: C_9  and  C_10
REMARK    4  A    between atoms: C_10  and  C_11
REMARK    5  A    between atoms: C_11  and  O_13
REMARK    6  A    between atoms: O_13  and  C_14
REMARK    7  A    between atoms: C_14  and  C_15
REMARK                            x       y       z     vdW  Elec       q    Type
REMARK                         _______ _______ _______ _____ _____    ______ ____
ROOT
ATOM      1  C   UNL     1       4.689   3.799  17.896  0.00  0.00    +0.000 C 
ATOM      2  C   UNL     1       5.826   4.761  18.081  0.00  0.00    +0.000 A 
ATOM      3  N   UNL     1       6.447   4.686  19.280  0.00  0.00    +0.000 NA
ATOM      4  C   UNL     1       7.493   5.486  19.494  0.00  0.00    +0.000 A 
ATOM      5  N   UNL     1       8.141   5.364  20.706  0.00  0.00    +0.000 N 
ATOM      6  N   UNL     1       7.932   6.407  18.640  0.00  0.00    +0.000 NA
ATOM      7  C   UNL     1       7.293   6.443  17.470  0.00  0.00    +0.000 A 
ATOM      8  C   UNL     1       6.242   5.634  17.090  0.00  0.00    +0.000 A 
ATOM      9  H   UNL     1       7.523   4.934  21.380  0.00  0.00    +0.000 HD
ATOM     10  H   UNL     1       8.581   6.235  20.963  0.00  0.00    +0.000 HD
ENDROOT
BRANCH   7  11
ATOM     11  O   UNL     1       7.808   7.355  16.604  0.00  0.00    +0.000 OA
ATOM     12  H   UNL     1       6.983   7.730  16.244  0.00  0.00    +0.000 HD
ENDBRANCH   7  11
BRANCH   8  13
ATOM     13  C   UNL     1       5.704   5.679  15.694  0.00  0.00    +0.000 C 
BRANCH  13  14
ATOM     14  C   UNL     1       6.540   5.011  14.625  0.00  0.00    +0.000 C 
ATOM     15  O   UNL     1       7.654   5.361  14.261  0.00  0.00    +0.000 OA
BRANCH  14  16
ATOM     16  O   UNL     1       5.755   4.114  13.956  0.00  0.00    +0.000 OA
BRANCH  16  17
ATOM     17  C   UNL     1       6.274   3.655  12.699  0.00  0.00    +0.000 C 
BRANCH  17  18
ATOM     18  C   UNL     1       5.265   2.910  11.839  0.00  0.00    +0.000 C 
ATOM     19 CL   UNL     1       5.916   1.353  11.272  0.00  0.00    +0.000 Cl
ENDBRANCH  17  18
ENDBRANCH  16  17
ENDBRANCH  14  16
ENDBRANCH  13  14
ENDBRANCH   8  13
TORSDOF 6
ENDMDL
MODEL 2
REMARK VINA RESULT:      -6.3      4.007      5.336
REMARK  Name = 
REMARK  7 active torsions:
REMARK  status: ('A' for Active; 'I' for Inactive)
REMARK    1  A    between atoms: C_1  and  C_2
REMARK    2  A    between atoms: C_7  and  O_8
REMARK    3  A    between atoms: C_9  and  C_10
REMARK    4  A    between atoms: C_10  and  C_11
REMARK    5  A    between atoms: C_11  and  O_13
REMARK    6  A    between atoms: O_13  and  C_14
REMARK    7  A    between atoms: C_14  and  C_15
REMARK                            x       y       z     vdW  Elec       q    Type
REMARK                         _______ _______ _______ _____ _____    ______ ____
ROOT
ATOM      1  C   UNL     1       3.417   5.819  19.678  0.00  0.00    +0.000 C 
ATOM      2  C   UNL     1       4.655   5.319  18.992  0.00  0.00    +0.000 A 
ATOM      3  N   UNL     1       5.818   5.669  19.586  0.00  0.00    +0.000 NA
ATOM      4  C   UNL     1       6.955   5.222  19.050  0.00  0.00    +0.000 A 
ATOM      5  N   UNL     1       8.128   5.552  19.695  0.00  0.00    +0.000 N 
ATOM      6  N   UNL     1       7.037   4.511  17.928  0.00  0.00    +0.000 NA
ATOM      7  C   UNL     1       5.866   4.185  17.380  0.00  0.00    +0.000 A 
ATOM      8  C   UNL     1       4.618   4.522  17.860  0.00  0.00    +0.000 A 
ATOM      9  H   UNL     1       7.979   6.365  20.277  0.00  0.00    +0.000 HD
ATOM     10  H   UNL     1       8.898   5.580  19.043  0.00  0.00    +0.000 HD
ENDROOT
BRANCH   7  11
ATOM     11  O   UNL     1       5.990   3.409  16.270  0.00  0.00    +0.000 OA
ATOM     12  H   UNL     1       6.699   2.808  16.563  0.00  0.00    +0.000 HD
ENDBRANCH   7  11
BRANCH   8  13
ATOM     13  C   UNL     1       3.377   3.974  17.227  0.00  0.00    +0.000 C 
BRANCH  13  14
ATOM     14  C   UNL     1       2.825   2.696  17.819  0.00  0.00    +0.000 C 
ATOM     15  O   UNL     1       3.461   1.679  18.054  0.00  0.00    +0.000 OA
BRANCH  14  16
ATOM     16  O   UNL     1       1.459   2.769  17.813  0.00  0.00    +0.000 OA
BRANCH  16  17
ATOM     17  C   UNL     1       0.813   2.366  19.029  0.00  0.00    +0.000 C 
BRANCH  17  18
ATOM     18  C   UNL     1       0.878   3.397  20.145  0.00  0.00    +0.000 C 
ATOM     19 CL   UNL     1       1.776   2.778  21.553  0.00  0.00    +0.000 Cl
ENDBRANCH  17  18
ENDBRANCH  16  17
ENDBRANCH  14  16
ENDBRANCH  13  14
ENDBRANCH   8  13
TORSDOF 6
ENDMDL
MODEL 3
REMARK VINA RESULT:      -6.2      4.117      5.586
REMARK  Name = 
REMARK  7 active torsions:
REMARK  status: ('A' for Active; 'I' for Inactive)
REMARK    1  A    between atoms: C_1  and  C_2
REMARK    2  A    between atoms: C_7  and  O_8
REMARK    3  A    between atoms: C_9  and  C_10
REMARK    4  A    between atoms: C_10  and  C_11
REMARK    5  A    between atoms: C_11  and  O_13
REMARK    6  A    between atoms: O_13  and  C_14
REMARK    7  A    between atoms: C_14  and  C_15
REMARK                            x       y       z     vdW  Elec       q    Type
REMARK                         _______ _______ _______ _____ _____    ______ ____
ROOT
ATOM      1  C   UNL     1       1.465   4.580  17.732  0.00  0.00    +0.000 C 
ATOM      2  C   UNL     1       2.215   3.830  18.794  0.00  0.00    +0.000 A 
ATOM      3  N   UNL     1       1.514   3.587  19.924  0.00  0.00    +0.000 NA
ATOM      4  C   UNL     1       2.109   2.888  20.892  0.00  0.00    +0.000 A 
ATOM      5  N   UNL     1       1.363   2.612  22.019  0.00  0.00    +0.000 N 
ATOM      6  N   UNL     1       3.372   2.469  20.860  0.00  0.00    +0.000 NA
ATOM      7  C   UNL     1       4.023   2.727  19.725  0.00  0.00    +0.000 A 
ATOM      8  C   UNL     1       3.513   3.379  18.623  0.00  0.00    +0.000 A 
ATOM      9  H   UNL     1       0.598   3.269  22.090  0.00  0.00    +0.000 HD
ATOM     10  H   UNL     1       1.961   2.503  22.824  0.00  0.00    +0.000 HD
ENDROOT
BRANCH   7  11
ATOM     11  O   UNL     1       5.289   2.232  19.708  0.00  0.00    +0.000 OA
ATOM     12  H   UNL     1       5.112   1.328  19.388  0.00  0.00    +0.000 HD
ENDBRANCH   7  11
BRANCH   8  13
ATOM     13  C   UNL     1       4.305   3.481  17.356  0.00  0.00    +0.000 C 
BRANCH  13  14
ATOM     14  C   UNL     1       5.114   4.746  17.165  0.00  0.00    +0.000 C 
ATOM     15  O   UNL     1       5.280   5.341  16.111  0.00  0.00    +0.000 OA
BRANCH  14  16
ATOM     16  O   UNL     1       5.837   4.974  18.303  0.00  0.00    +0.000 OA
BRANCH  16  17
ATOM     17  C   UNL     1       7.259   5.062  18.125  0.00  0.00    +0.000 C 
BRANCH  17  18
ATOM     18  C   UNL     1       7.881   6.338  18.670  0.00  0.00    +0.000 C 
ATOM     19 CL   UNL     1       7.703   7.691  17.525  0.00  0.00    +0.000 Cl
ENDBRANCH  17  18
ENDBRANCH  16  17
ENDBRANCH  14  16
ENDBRANCH  13  14
ENDBRANCH   8  13
TORSDOF 6
ENDMDL
MODEL 4
REMARK VINA RESULT:      -6.2      4.014      5.203
REMARK  Name = 
REMARK  7 active torsions:
REMARK  status: ('A' for Active; 'I' for Inactive)
REMARK    1  A    between atoms: C_1  and  C_2
REMARK    2  A    between atoms: C_7  and  O_8
REMARK    3  A    between atoms: C_9  and  C_10
REMARK    4  A    between atoms: C_10  and  C_11
REMARK    5  A    between atoms: C_11  and  O_13
REMARK    6  A    between atoms: O_13  and  C_14
REMARK    7  A    between atoms: C_14  and  C_15
REMARK                            x       y       z     vdW  Elec       q    Type
REMARK                         _______ _______ _______ _____ _____    ______ ____
ROOT
ATOM      1  C   UNL     1       5.431   5.777  15.259  0.00  0.00    +0.000 C 
ATOM      2  C   UNL     1       5.849   5.427  16.657  0.00  0.00    +0.000 A 
ATOM      3  N   UNL     1       6.845   6.190  17.162  0.00  0.00    +0.000 NA
ATOM      4  C   UNL     1       7.236   5.958  18.417  0.00  0.00    +0.000 A 
ATOM      5  N   UNL     1       8.223   6.775  18.929  0.00  0.00    +0.000 N 
ATOM      6  N   UNL     1       6.766   4.983  19.191  0.00  0.00    +0.000 NA
ATOM      7  C   UNL     1       5.783   4.261  18.654  0.00  0.00    +0.000 A 
ATOM      8  C   UNL     1       5.238   4.431  17.399  0.00  0.00    +0.000 A 
ATOM      9  H   UNL     1       8.741   7.199  18.172  0.00  0.00    +0.000 HD
ATOM     10  H   UNL     1       8.749   6.292  19.642  0.00  0.00    +0.000 HD
ENDROOT
BRANCH   7  11
ATOM     11  O   UNL     1       5.290   3.315  19.496  0.00  0.00    +0.000 OA
ATOM     12  H   UNL     1       6.122   2.900  19.790  0.00  0.00    +0.000 HD
ENDBRANCH   7  11
BRANCH   8  13
ATOM     13  C   UNL     1       4.040   3.642  16.968  0.00  0.00    +0.000 C 
BRANCH  13  14
ATOM     14  C   UNL     1       2.697   4.127  17.468  0.00  0.00    +0.000 C 
ATOM     15  O   UNL     1       2.470   5.214  17.980  0.00  0.00    +0.000 OA
BRANCH  14  16
ATOM     16  O   UNL     1       1.833   3.067  17.492  0.00  0.00    +0.000 OA
BRANCH  16  17
ATOM     17  C   UNL     1       1.057   2.929  18.691  0.00  0.00    +0.000 C 
BRANCH  17  18
ATOM     18  C   UNL     1       1.826   2.364  19.875  0.00  0.00    +0.000 C 
ATOM     19 CL   UNL     1       2.030   3.580  21.160  0.00  0.00    +0.000 Cl
ENDBRANCH  17  18
ENDBRANCH  16  17
ENDBRANCH  14  16
ENDBRANCH  13  14
ENDBRANCH   8  13
TORSDOF 6
ENDMDL
MODEL 5
REMARK VINA RESULT:      -6.1      3.461      4.707
REMARK  Name = 
REMARK  7 active torsions:
REMARK  status: ('A' for Active; 'I' for Inactive)
REMARK    1  A    between atoms: C_1  and  C_2
REMARK    2  A    between atoms: C_7  and  O_8
REMARK    3  A    between atoms: C_9  and  C_10
REMARK    4  A    between atoms: C_10  and  C_11
REMARK    5  A    between atoms: C_11  and  O_13
REMARK    6  A    between atoms: O_13  and  C_14
REMARK    7  A    between atoms: C_14  and  C_15
REMARK                            x       y       z     vdW  Elec       q    Type
REMARK                         _______ _______ _______ _____ _____    ______ ____
ROOT
ATOM      1  C   UNL     1       1.907   5.106  18.050  0.00  0.00    +0.000 C 
ATOM      2  C   UNL     1       2.487   4.133  19.034  0.00  0.00    +0.000 A 
ATOM      3  N   UNL     1       1.717   3.891  20.119  0.00  0.00    +0.000 NA
ATOM      4  C   UNL     1       2.157   3.003  21.013  0.00  0.00    +0.000 A 
ATOM      5  N   UNL     1       1.337   2.736  22.091  0.00  0.00    +0.000 N 
ATOM      6  N   UNL     1       3.334   2.385  20.954  0.00  0.00    +0.000 NA
ATOM      7  C   UNL     1       4.057   2.651  19.866  0.00  0.00    +0.000 A 
ATOM      8  C   UNL     1       3.699   3.493  18.835  0.00  0.00    +0.000 A 
ATOM      9  H   UNL     1       0.689   3.500  22.222  0.00  0.00    +0.000 HD
ATOM     10  H   UNL     1       1.882   2.443  22.888  0.00  0.00    +0.000 HD
ENDROOT
BRANCH   7  11
ATOM     11  O   UNL     1       5.224   1.956  19.814  0.00  0.00    +0.000 OA
ATOM     12  H   UNL     1       5.521   2.193  18.916  0.00  0.00    +0.000 HD
ENDBRANCH   7  11
BRANCH   8  13
ATOM     13  C   UNL     1       4.539   3.596  17.600  0.00  0.00    +0.000 C 
BRANCH  13  14
ATOM     14  C   UNL     1       5.763   4.481  17.689  0.00  0.00    +0.000 C 
ATOM     15  O   UNL     1       6.621   4.436  18.559  0.00  0.00    +0.000 OA
BRANCH  14  16
ATOM     16  O   UNL     1       5.627   5.503  16.790  0.00  0.00    +0.000 OA
BRANCH  16  17
ATOM     17  C   UNL     1       5.468   5.105  15.420  0.00  0.00    +0.000 C 
BRANCH  17  18
ATOM     18  C   UNL     1       6.702   4.459  14.809  0.00  0.00    +0.000 C 
ATOM     19 CL   UNL     1       6.358   3.805  13.187  0.00  0.00    +0.000 Cl
ENDBRANCH  17  18
ENDBRANCH  16  17
ENDBRANCH  14  16
ENDBRANCH  13  14
ENDBRANCH   8  13
TORSDOF 6
ENDMDL
MODEL 6
REMARK VINA RESULT:      -6.1      2.739      3.732
REMARK  Name = 
REMARK  7 active torsions:
REMARK  status: ('A' for Active; 'I' for Inactive)
REMARK    1  A    between atoms: C_1  and  C_2
REMARK    2  A    between atoms: C_7  and  O_8
REMARK    3  A    between atoms: C_9  and  C_10
REMARK    4  A    between atoms: C_10  and  C_11
REMARK    5  A    between atoms: C_11  and  O_13
REMARK    6  A    between atoms: O_13  and  C_14
REMARK    7  A    between atoms: C_14  and  C_15
REMARK                            x       y       z     vdW  Elec       q    Type
REMARK                         _______ _______ _______ _____ _____    ______ ____
ROOT
ATOM      1  C   UNL     1       4.361   6.810  16.850  0.00  0.00    +0.000 C 
ATOM      2  C   UNL     1       4.155   5.807  17.947  0.00  0.00    +0.000 A 
ATOM      3  N   UNL     1       3.253   6.168  18.887  0.00  0.00    +0.000 NA
ATOM      4  C   UNL     1       2.992   5.302  19.869  0.00  0.00    +0.000 A 
ATOM      5  N   UNL     1       2.036   5.669  20.794  0.00  0.00    +0.000 N 
ATOM      6  N   UNL     1       3.607   4.134  20.034  0.00  0.00    +0.000 NA
ATOM      7  C   UNL     1       4.485   3.818  19.082  0.00  0.00    +0.000 A 
ATOM      8  C   UNL     1       4.803   4.584  17.980  0.00  0.00    +0.000 A 
ATOM      9  H   UNL     1       1.926   6.674  20.788  0.00  0.00    +0.000 HD
ATOM     10  H   UNL     1       2.212   5.224  21.682  0.00  0.00    +0.000 HD
ENDROOT
BRANCH   7  11
ATOM     11  O   UNL     1       5.047   2.593  19.254  0.00  0.00    +0.000 OA
ATOM     12  H   UNL     1       5.904   2.853  19.639  0.00  0.00    +0.000 HD
ENDBRANCH   7  11
BRANCH   8  13
ATOM     13  C   UNL     1       5.703   4.052  16.909  0.00  0.00    +0.000 C 
BRANCH  13  14
ATOM     14  C   UNL     1       7.165   4.432  17.004  0.00  0.00    +0.000 C 
ATOM     15  O   UNL     1       7.820   4.517  18.033  0.00  0.00    +0.000 OA
BRANCH  14  16
ATOM     16  O   UNL     1       7.569   4.912  15.789  0.00  0.00    +0.000 OA
BRANCH  16  17
ATOM     17  C   UNL     1       6.651   4.703  14.705  0.00  0.00    +0.000 C 
BRANCH  17  18
ATOM     18  C   UNL     1       7.295   4.716  13.328  0.00  0.00    +0.000 C 
ATOM     19 CL   UNL     1       6.480   3.586  12.218  0.00  0.00    +0.000 Cl
ENDBRANCH  17  18
ENDBRANCH  16  17
ENDBRANCH  14  16
ENDBRANCH  13  14
ENDBRANCH   8  13
TORSDOF 6
ENDMDL
MODEL 7
REMARK VINA RESULT:      -6.1      4.092      5.676
REMARK  Name = 
REMARK  7 active torsions:
REMARK  status: ('A' for Active; 'I' for Inactive)
REMARK    1  A    between atoms: C_1  and  C_2
REMARK    2  A    between atoms: C_7  and  O_8
REMARK    3  A    between atoms: C_9  and  C_10
REMARK    4  A    between atoms: C_10  and  C_11
REMARK    5  A    between atoms: C_11  and  O_13
REMARK    6  A    between atoms: O_13  and  C_14
REMARK    7  A    between atoms: C_14  and  C_15
REMARK                            x       y       z     vdW  Elec       q    Type
REMARK                         _______ _______ _______ _____ _____    ______ ____
ROOT
ATOM      1  C   UNL     1       2.950   6.552  18.112  0.00  0.00    +0.000 C 
ATOM      2  C   UNL     1       4.219   6.029  17.504  0.00  0.00    +0.000 A 
ATOM      3  N   UNL     1       5.230   6.924  17.436  0.00  0.00    +0.000 NA
ATOM      4  C   UNL     1       6.399   6.511  16.943  0.00  0.00    +0.000 A 
ATOM      5  N   UNL     1       7.432   7.426  16.923  0.00  0.00    +0.000 N 
ATOM      6  N   UNL     1       6.628   5.298  16.448  0.00  0.00    +0.000 NA
ATOM      7  C   UNL     1       5.605   4.448  16.540  0.00  0.00    +0.000 A 
ATOM      8  C   UNL     1       4.367   4.718  17.083  0.00  0.00    +0.000 A 
ATOM      9  H   UNL     1       7.057   8.363  16.962  0.00  0.00    +0.000 HD
ATOM     10  H   UNL     1       8.081   7.213  16.179  0.00  0.00    +0.000 HD
ENDROOT
BRANCH   7  11
ATOM     11  O   UNL     1       5.897   3.203  16.078  0.00  0.00    +0.000 OA
ATOM     12  H   UNL     1       5.469   3.244  15.203  0.00  0.00    +0.000 HD
ENDBRANCH   7  11
BRANCH   8  13
ATOM     13  C   UNL     1       3.349   3.633  17.255  0.00  0.00    +0.000 C 
BRANCH  13  14
ATOM     14  C   UNL     1       3.569   2.678  18.407  0.00  0.00    +0.000 C 
ATOM     15  O   UNL     1       3.595   1.458  18.334  0.00  0.00    +0.000 OA
BRANCH  14  16
ATOM     16  O   UNL     1       3.480   3.380  19.577  0.00  0.00    +0.000 OA
BRANCH  16  17
ATOM     17  C   UNL     1       3.098   2.615  20.729  0.00  0.00    +0.000 C 
BRANCH  17  18
ATOM     18  C   UNL     1       1.857   3.132  21.442  0.00  0.00    +0.000 C 
ATOM     19 CL   UNL     1       0.839   4.105  20.352  0.00  0.00    +0.000 Cl
ENDBRANCH  17  18
ENDBRANCH  16  17
ENDBRANCH  14  16
ENDBRANCH  13  14
ENDBRANCH   8  13
TORSDOF 6
ENDMDL
MODEL 8
REMARK VINA RESULT:      -6.1      4.121      5.511
REMARK  Name = 
REMARK  7 active torsions:
REMARK  status: ('A' for Active; 'I' for Inactive)
REMARK    1  A    between atoms: C_1  and  C_2
REMARK    2  A    between atoms: C_7  and  O_8
REMARK    3  A    between atoms: C_9  and  C_10
REMARK    4  A    between atoms: C_10  and  C_11
REMARK    5  A    between atoms: C_11  and  O_13
REMARK    6  A    between atoms: O_13  and  C_14
REMARK    7  A    between atoms: C_14  and  C_15
REMARK                            x       y       z     vdW  Elec       q    Type
REMARK                         _______ _______ _______ _____ _____    ______ ____
ROOT
ATOM      1  C   UNL     1       3.039   6.527  18.134  0.00  0.00    +0.000 C 
ATOM      2  C   UNL     1       4.301   6.018  17.501  0.00  0.00    +0.000 A 
ATOM      3  N   UNL     1       5.313   6.914  17.446  0.00  0.00    +0.000 NA
ATOM      4  C   UNL     1       6.477   6.512  16.932  0.00  0.00    +0.000 A 
ATOM      5  N   UNL     1       7.511   7.426  16.924  0.00  0.00    +0.000 N 
ATOM      6  N   UNL     1       6.699   5.312  16.403  0.00  0.00    +0.000 NA
ATOM      7  C   UNL     1       5.676   4.461  16.484  0.00  0.00    +0.000 A 
ATOM      8  C   UNL     1       4.443   4.719  17.045  0.00  0.00    +0.000 A 
ATOM      9  H   UNL     1       7.137   8.362  16.991  0.00  0.00    +0.000 HD
ATOM     10  H   UNL     1       8.152   7.231  16.170  0.00  0.00    +0.000 HD
ENDROOT
BRANCH   7  11
ATOM     11  O   UNL     1       5.962   3.228  15.986  0.00  0.00    +0.000 OA
ATOM     12  H   UNL     1       6.586   2.913  16.666  0.00  0.00    +0.000 HD
ENDBRANCH   7  11
BRANCH   8  13
ATOM     13  C   UNL     1       3.426   3.631  17.199  0.00  0.00    +0.000 C 
BRANCH  13  14
ATOM     14  C   UNL     1       3.486   2.826  18.479  0.00  0.00    +0.000 C 
ATOM     15  O   UNL     1       4.416   2.808  19.273  0.00  0.00    +0.000 OA
BRANCH  14  16
ATOM     16  O   UNL     1       2.453   1.931  18.479  0.00  0.00    +0.000 OA
BRANCH  16  17
ATOM     17  C   UNL     1       1.181   2.456  18.888  0.00  0.00    +0.000 C 
BRANCH  17  18
ATOM     18  C   UNL     1       1.102   2.832  20.359  0.00  0.00    +0.000 C 
ATOM     19 CL   UNL     1       1.170   4.598  20.584  0.00  0.00    +0.000 Cl
ENDBRANCH  17  18
ENDBRANCH  16  17
ENDBRANCH  14  16
ENDBRANCH  13  14
ENDBRANCH   8  13
TORSDOF 6
ENDMDL
MODEL 9
REMARK VINA RESULT:      -6.0      3.365      4.847
REMARK  Name = 
REMARK  7 active torsions:
REMARK  status: ('A' for Active; 'I' for Inactive)
REMARK    1  A    between atoms: C_1  and  C_2
REMARK    2  A    between atoms: C_7  and  O_8
REMARK    3  A    between atoms: C_9  and  C_10
REMARK    4  A    between atoms: C_10  and  C_11
REMARK    5  A    between atoms: C_11  and  O_13
REMARK    6  A    between atoms: O_13  and  C_14
REMARK    7  A    between atoms: C_14  and  C_15
REMARK                            x       y       z     vdW  Elec       q    Type
REMARK                         _______ _______ _______ _____ _____    ______ ____
ROOT
ATOM      1  C   UNL     1       3.136   6.045  18.026  0.00  0.00    +0.000 C 
ATOM      2  C   UNL     1       3.191   4.799  18.861  0.00  0.00    +0.000 A 
ATOM      3  N   UNL     1       2.069   4.535  19.567  0.00  0.00    +0.000 NA
ATOM      4  C   UNL     1       2.038   3.419  20.298  0.00  0.00    +0.000 A 
ATOM      5  N   UNL     1       0.868   3.144  20.977  0.00  0.00    +0.000 N 
ATOM      6  N   UNL     1       3.057   2.576  20.441  0.00  0.00    +0.000 NA
ATOM      7  C   UNL     1       4.141   2.874  19.723  0.00  0.00    +0.000 A 
ATOM      8  C   UNL     1       4.288   3.954  18.879  0.00  0.00    +0.000 A 
ATOM      9  H   UNL     1       0.336   3.994  21.095  0.00  0.00    +0.000 HD
ATOM     10  H   UNL     1       1.056   2.591  21.800  0.00  0.00    +0.000 HD
ENDROOT
BRANCH   7  11
ATOM     11  O   UNL     1       5.138   1.958  19.851  0.00  0.00    +0.000 OA
ATOM     12  H   UNL     1       4.670   1.269  20.358  0.00  0.00    +0.000 HD
ENDBRANCH   7  11
BRANCH   8  13
ATOM     13  C   UNL     1       5.506   4.098  18.021  0.00  0.00    +0.000 C 
BRANCH  13  14
ATOM     14  C   UNL     1       6.622   4.960  18.571  0.00  0.00    +0.000 C 
ATOM     15  O   UNL     1       6.765   5.291  19.739  0.00  0.00    +0.000 OA
BRANCH  14  16
ATOM     16  O   UNL     1       7.297   5.518  17.521  0.00  0.00    +0.000 OA
BRANCH  16  17
ATOM     17  C   UNL     1       6.540   5.675  16.312  0.00  0.00    +0.000 C 
BRANCH  17  18
ATOM     18  C   UNL     1       7.157   5.003  15.095  0.00  0.00    +0.000 C 
ATOM     19 CL   UNL     1       5.949   4.056  14.191  0.00  0.00    +0.000 Cl
ENDBRANCH  17  18
ENDBRANCH  16  17
ENDBRANCH  14  16
ENDBRANCH  13  14
ENDBRANCH   8  13
TORSDOF 6
ENDMDL
