MODEL 1
REMARK VINA RESULT:      -6.9      0.000      0.000
REMARK  Name = 
REMARK  4 active torsions:
REMARK  status: ('A' for Active; 'I' for Inactive)
REMARK    1  A    between atoms: C_2  and  C_3
REMARK    2  A    between atoms: C_6  and  C_7
REMARK    3  A    between atoms: C_13  and  C_15
REMARK    4  A    between atoms: C_16  and  C_17
REMARK                            x       y       z     vdW  Elec       q    Type
REMARK                         _______ _______ _______ _____ _____    ______ ____
ROOT
ATOM      1  C   UNL     1       3.655   3.960  17.820  0.00  0.00    +0.000 C 
ATOM      2  O   UNL     1       3.520   2.773  18.107  0.00  0.00    +0.000 OA
ATOM      3  N   UNL     1       2.900   4.971  18.415  0.00  0.00    +0.000 N 
ATOM      4  C   UNL     1       2.027   4.661  19.559  0.00  0.00    +0.000 C 
ATOM      5  C   UNL     1       2.104   5.768  20.634  0.00  0.00    +0.000 C 
ATOM      6  N   UNL     1       1.962   7.119  20.053  0.00  0.00    +0.000 N 
ATOM      7  C   UNL     1       1.204   8.066  20.720  0.00  0.00    +0.000 C 
ATOM      8  O   UNL     1       0.625   7.840  21.779  0.00  0.00    +0.000 OA
ATOM      9  C   UNL     1       2.846   7.375  18.909  0.00  0.00    +0.000 C 
ATOM     10  C   UNL     1       2.647   6.295  17.841  0.00  0.00    +0.000 C 
ENDROOT
BRANCH   1  14
ATOM     11  C   UNL     1       6.674   5.011  14.936  0.00  0.00    +0.000 A 
ATOM     12  C   UNL     1       5.510   4.346  14.533  0.00  0.00    +0.000 A 
ATOM     13  C   UNL     1       4.526   4.014  15.474  0.00  0.00    +0.000 A 
ATOM     14  C   UNL     1       4.709   4.327  16.826  0.00  0.00    +0.000 A 
ATOM     15  C   UNL     1       5.917   4.918  17.224  0.00  0.00    +0.000 A 
ATOM     16  C   UNL     1       6.871   5.307  16.285  0.00  0.00    +0.000 A 
BRANCH  11  18
ATOM     17  N   UNL     1       8.499   5.683  13.226  0.00  0.00    +0.000 NA
ATOM     18  C   UNL     1       7.685   5.369  13.983  0.00  0.00    +0.000 C 
ENDBRANCH  11  18
ENDBRANCH   1  14
BRANCH   7  19
ATOM     19  C   UNL     1       1.070   9.396  20.068  0.00  0.00    +0.000 C 
ATOM     20  C   UNL     1       0.817  10.501  20.787  0.00  0.00    +0.000 C 
BRANCH  20  21
ATOM     21  C   UNL     1       0.603  11.829  20.185  0.00  0.00    +0.000 A 
ATOM     22  C   UNL     1      -0.304  12.033  19.134  0.00  0.00    +0.000 A 
ATOM     23  C   UNL     1      -0.531  13.313  18.620  0.00  0.00    +0.000 A 
ATOM     24  C   UNL     1       0.139  14.404  19.164  0.00  0.00    +0.000 A 
ATOM     25 BR   UNL     1      -0.199  16.138  18.495  0.00  0.00    +0.000 Br
ATOM     26  C   UNL     1       1.041  14.223  20.210  0.00  0.00    +0.000 A 
ATOM     27  C   UNL     1       1.269  12.940  20.720  0.00  0.00    +0.000 A 
ENDBRANCH  20  21
ENDBRANCH   7  19
TORSDOF 4
ENDMDL
MODEL 2
REMARK VINA RESULT:      -6.6      0.598      1.062
REMARK  Name = 
REMARK  4 active torsions:
REMARK  status: ('A' for Active; 'I' for Inactive)
REMARK    1  A    between atoms: C_2  and  C_3
REMARK    2  A    between atoms: C_6  and  C_7
REMARK    3  A    between atoms: C_13  and  C_15
REMARK    4  A    between atoms: C_16  and  C_17
REMARK                            x       y       z     vdW  Elec       q    Type
REMARK                         _______ _______ _______ _____ _____    ______ ____
ROOT
ATOM      1  C   UNL     1       3.312   4.188  18.340  0.00  0.00    +0.000 C 
ATOM      2  O   UNL     1       3.187   3.022  18.708  0.00  0.00    +0.000 OA
ATOM      3  N   UNL     1       2.555   5.233  18.870  0.00  0.00    +0.000 N 
ATOM      4  C   UNL     1       1.692   4.997  20.039  0.00  0.00    +0.000 C 
ATOM      5  C   UNL     1       1.769   6.176  21.034  0.00  0.00    +0.000 C 
ATOM      6  N   UNL     1       1.615   7.482  20.363  0.00  0.00    +0.000 N 
ATOM      7  C   UNL     1       0.855   8.469  20.970  0.00  0.00    +0.000 C 
ATOM      8  O   UNL     1       0.285   8.313  22.045  0.00  0.00    +0.000 OA
ATOM      9  C   UNL     1       2.490   7.665  19.198  0.00  0.00    +0.000 C 
ATOM     10  C   UNL     1       2.290   6.513  18.208  0.00  0.00    +0.000 C 
ENDROOT
BRANCH   1  14
ATOM     11  C   UNL     1       6.335   5.079  15.407  0.00  0.00    +0.000 A 
ATOM     12  C   UNL     1       6.215   5.862  16.562  0.00  0.00    +0.000 A 
ATOM     13  C   UNL     1       5.236   5.564  17.517  0.00  0.00    +0.000 A 
ATOM     14  C   UNL     1       4.357   4.492  17.315  0.00  0.00    +0.000 A 
ATOM     15  C   UNL     1       4.439   3.770  16.116  0.00  0.00    +0.000 A 
ATOM     16  C   UNL     1       5.449   4.024  15.191  0.00  0.00    +0.000 A 
BRANCH  11  18
ATOM     17  N   UNL     1       8.136   5.583  13.615  0.00  0.00    +0.000 NA
ATOM     18  C   UNL     1       7.342   5.366  14.425  0.00  0.00    +0.000 C 
ENDBRANCH  11  18
ENDBRANCH   1  14
BRANCH   7  19
ATOM     19  C   UNL     1       0.708   9.750  20.229  0.00  0.00    +0.000 C 
ATOM     20  C   UNL     1       0.857  10.933  20.848  0.00  0.00    +0.000 C 
BRANCH  20  21
ATOM     21  C   UNL     1       0.651  12.229  20.179  0.00  0.00    +0.000 A 
ATOM     22  C   UNL     1      -0.236  12.379  19.101  0.00  0.00    +0.000 A 
ATOM     23  C   UNL     1      -0.456  13.632  18.521  0.00  0.00    +0.000 A 
ATOM     24  C   UNL     1       0.198  14.751  19.026  0.00  0.00    +0.000 A 
ATOM     25 BR   UNL     1      -0.132  16.449  18.269  0.00  0.00    +0.000 Br
ATOM     26  C   UNL     1       1.079  14.624  20.098  0.00  0.00    +0.000 A 
ATOM     27  C   UNL     1       1.301  13.367  20.673  0.00  0.00    +0.000 A 
ENDBRANCH  20  21
ENDBRANCH   7  19
TORSDOF 4
ENDMDL
MODEL 3
REMARK VINA RESULT:      -6.4      5.085      9.840
REMARK  Name = 
REMARK  4 active torsions:
REMARK  status: ('A' for Active; 'I' for Inactive)
REMARK    1  A    between atoms: C_2  and  C_3
REMARK    2  A    between atoms: C_6  and  C_7
REMARK    3  A    between atoms: C_13  and  C_15
REMARK    4  A    between atoms: C_16  and  C_17
REMARK                            x       y       z     vdW  Elec       q    Type
REMARK                         _______ _______ _______ _____ _____    ______ ____
ROOT
ATOM      1  C   UNL     1       1.234  15.993  19.562  0.00  0.00    +0.000 C 
ATOM      2  O   UNL     1       0.405  16.896  19.647  0.00  0.00    +0.000 OA
ATOM      3  N   UNL     1       0.880  14.644  19.525  0.00  0.00    +0.000 N 
ATOM      4  C   UNL     1      -0.535  14.258  19.399  0.00  0.00    +0.000 C 
ATOM      5  C   UNL     1      -0.703  13.069  18.428  0.00  0.00    +0.000 C 
ATOM      6  N   UNL     1       0.248  11.976  18.715  0.00  0.00    +0.000 N 
ATOM      7  C   UNL     1      -0.187  10.663  18.640  0.00  0.00    +0.000 C 
ATOM      8  O   UNL     1      -1.339  10.352  18.353  0.00  0.00    +0.000 OA
ATOM      9  C   UNL     1       1.644  12.414  18.841  0.00  0.00    +0.000 C 
ATOM     10  C   UNL     1       1.752  13.524  19.890  0.00  0.00    +0.000 C 
ENDROOT
BRANCH   1  14
ATOM     11  C   UNL     1       5.384  17.083  19.202  0.00  0.00    +0.000 A 
ATOM     12  C   UNL     1       4.708  16.499  18.123  0.00  0.00    +0.000 A 
ATOM     13  C   UNL     1       3.356  16.154  18.242  0.00  0.00    +0.000 A 
ATOM     14  C   UNL     1       2.676  16.372  19.446  0.00  0.00    +0.000 A 
ATOM     15  C   UNL     1       3.389  16.881  20.541  0.00  0.00    +0.000 A 
ATOM     16  C   UNL     1       4.717  17.283  20.410  0.00  0.00    +0.000 A 
BRANCH  11  18
ATOM     17  N   UNL     1       7.871  17.770  18.982  0.00  0.00    +0.000 NA
ATOM     18  C   UNL     1       6.766  17.453  19.091  0.00  0.00    +0.000 C 
ENDBRANCH  11  18
ENDBRANCH   1  14
BRANCH   7  19
ATOM     19  C   UNL     1       0.807   9.609  18.974  0.00  0.00    +0.000 C 
ATOM     20  C   UNL     1       1.507   8.982  18.014  0.00  0.00    +0.000 C 
BRANCH  20  21
ATOM     21  C   UNL     1       2.449   7.882  18.285  0.00  0.00    +0.000 A 
ATOM     22  C   UNL     1       2.310   7.038  19.398  0.00  0.00    +0.000 A 
ATOM     23  C   UNL     1       3.183   5.965  19.599  0.00  0.00    +0.000 A 
ATOM     24  C   UNL     1       4.197   5.719  18.680  0.00  0.00    +0.000 A 
ATOM     25 BR   UNL     1       5.352   4.246  18.933  0.00  0.00    +0.000 Br
ATOM     26  C   UNL     1       4.351   6.543  17.567  0.00  0.00    +0.000 A 
ATOM     27  C   UNL     1       3.477   7.619  17.370  0.00  0.00    +0.000 A 
ENDBRANCH  20  21
ENDBRANCH   7  19
TORSDOF 4
ENDMDL
MODEL 4
REMARK VINA RESULT:      -6.4      4.849      7.786
REMARK  Name = 
REMARK  4 active torsions:
REMARK  status: ('A' for Active; 'I' for Inactive)
REMARK    1  A    between atoms: C_2  and  C_3
REMARK    2  A    between atoms: C_6  and  C_7
REMARK    3  A    between atoms: C_13  and  C_15
REMARK    4  A    between atoms: C_16  and  C_17
REMARK                            x       y       z     vdW  Elec       q    Type
REMARK                         _______ _______ _______ _____ _____    ______ ____
ROOT
ATOM      1  C   UNL     1      -0.062  10.953  18.667  0.00  0.00    +0.000 C 
ATOM      2  O   UNL     1      -1.254  10.810  18.405  0.00  0.00    +0.000 OA
ATOM      3  N   UNL     1       0.535  12.206  18.810  0.00  0.00    +0.000 N 
ATOM      4  C   UNL     1      -0.298  13.419  18.832  0.00  0.00    +0.000 C 
ATOM      5  C   UNL     1       0.200  14.417  19.901  0.00  0.00    +0.000 C 
ATOM      6  N   UNL     1       1.659  14.629  19.827  0.00  0.00    +0.000 N 
ATOM      7  C   UNL     1       2.166  15.907  19.995  0.00  0.00    +0.000 C 
ATOM      8  O   UNL     1       1.459  16.891  20.196  0.00  0.00    +0.000 OA
ATOM      9  C   UNL     1       2.445  13.389  19.797  0.00  0.00    +0.000 C 
ATOM     10  C   UNL     1       1.963  12.491  18.654  0.00  0.00    +0.000 C 
ENDROOT
BRANCH   1  14
ATOM     11  C   UNL     1       2.297   7.411  19.325  0.00  0.00    +0.000 A 
ATOM     12  C   UNL     1       1.660   8.049  20.397  0.00  0.00    +0.000 A 
ATOM     13  C   UNL     1       0.887   9.196  20.177  0.00  0.00    +0.000 A 
ATOM     14  C   UNL     1       0.761   9.724  18.887  0.00  0.00    +0.000 A 
ATOM     15  C   UNL     1       1.471   9.122  17.839  0.00  0.00    +0.000 A 
ATOM     16  C   UNL     1       2.191   7.946  18.041  0.00  0.00    +0.000 A 
BRANCH  11  18
ATOM     17  N   UNL     1       3.729   5.283  19.678  0.00  0.00    +0.000 NA
ATOM     18  C   UNL     1       3.082   6.229  19.533  0.00  0.00    +0.000 C 
ENDBRANCH  11  18
ENDBRANCH   1  14
BRANCH   7  19
ATOM     19  C   UNL     1       3.640  16.063  19.875  0.00  0.00    +0.000 C 
ATOM     20  C   UNL     1       4.249  16.032  18.678  0.00  0.00    +0.000 C 
BRANCH  20  21
ATOM     21  C   UNL     1       5.710  16.109  18.510  0.00  0.00    +0.000 A 
ATOM     22  C   UNL     1       6.454  17.218  18.942  0.00  0.00    +0.000 A 
ATOM     23  C   UNL     1       7.846  17.241  18.822  0.00  0.00    +0.000 A 
ATOM     24  C   UNL     1       8.510  16.144  18.282  0.00  0.00    +0.000 A 
ATOM     25 BR   UNL     1      10.395  16.159  18.158  0.00  0.00    +0.000 Br
ATOM     26  C   UNL     1       7.791  15.032  17.850  0.00  0.00    +0.000 A 
ATOM     27  C   UNL     1       6.397  15.014  17.967  0.00  0.00    +0.000 A 
ENDBRANCH  20  21
ENDBRANCH   7  19
TORSDOF 4
ENDMDL
MODEL 5
REMARK VINA RESULT:      -6.3      5.366      8.125
REMARK  Name = 
REMARK  4 active torsions:
REMARK  status: ('A' for Active; 'I' for Inactive)
REMARK    1  A    between atoms: C_2  and  C_3
REMARK    2  A    between atoms: C_6  and  C_7
REMARK    3  A    between atoms: C_13  and  C_15
REMARK    4  A    between atoms: C_16  and  C_17
REMARK                            x       y       z     vdW  Elec       q    Type
REMARK                         _______ _______ _______ _____ _____    ______ ____
ROOT
ATOM      1  C   UNL     1       0.070  11.165  18.753  0.00  0.00    +0.000 C 
ATOM      2  O   UNL     1      -1.157  11.116  18.775  0.00  0.00    +0.000 OA
ATOM      3  N   UNL     1       0.776  12.355  18.581  0.00  0.00    +0.000 N 
ATOM      4  C   UNL     1       0.063  13.643  18.604  0.00  0.00    +0.000 C 
ATOM      5  C   UNL     1       0.864  14.708  19.385  0.00  0.00    +0.000 C 
ATOM      6  N   UNL     1       2.280  14.755  18.970  0.00  0.00    +0.000 N 
ATOM      7  C   UNL     1       2.906  15.984  18.839  0.00  0.00    +0.000 C 
ATOM      8  O   UNL     1       2.339  17.053  19.041  0.00  0.00    +0.000 OA
ATOM      9  C   UNL     1       2.944  13.445  18.954  0.00  0.00    +0.000 C 
ATOM     10  C   UNL     1       2.149  12.467  18.083  0.00  0.00    +0.000 C 
ENDROOT
BRANCH   1  14
ATOM     11  C   UNL     1       2.261   7.506  19.346  0.00  0.00    +0.000 A 
ATOM     12  C   UNL     1       2.167   8.077  18.071  0.00  0.00    +0.000 A 
ATOM     13  C   UNL     1       1.460   9.272  17.885  0.00  0.00    +0.000 A 
ATOM     14  C   UNL     1       0.827   9.893  18.967  0.00  0.00    +0.000 A 
ATOM     15  C   UNL     1       0.862   9.265  20.221  0.00  0.00    +0.000 A 
ATOM     16  C   UNL     1       1.614   8.110  20.425  0.00  0.00    +0.000 A 
BRANCH  11  18
ATOM     17  N   UNL     1       3.569   5.298  19.699  0.00  0.00    +0.000 NA
ATOM     18  C   UNL     1       2.991   6.288  19.555  0.00  0.00    +0.000 C 
ENDBRANCH  11  18
ENDBRANCH   1  14
BRANCH   7  19
ATOM     19  C   UNL     1       4.322  15.967  18.385  0.00  0.00    +0.000 C 
ATOM     20  C   UNL     1       5.322  16.325  19.207  0.00  0.00    +0.000 C 
BRANCH  20  21
ATOM     21  C   UNL     1       6.732  16.397  18.787  0.00  0.00    +0.000 A 
ATOM     22  C   UNL     1       7.386  15.312  18.182  0.00  0.00    +0.000 A 
ATOM     23  C   UNL     1       8.707  15.425  17.740  0.00  0.00    +0.000 A 
ATOM     24  C   UNL     1       9.382  16.632  17.886  0.00  0.00    +0.000 A 
ATOM     25 BR   UNL     1      11.154  16.796  17.251  0.00  0.00    +0.000 Br
ATOM     26  C   UNL     1       8.750  17.722  18.480  0.00  0.00    +0.000 A 
ATOM     27  C   UNL     1       7.429  17.605  18.926  0.00  0.00    +0.000 A 
ENDBRANCH  20  21
ENDBRANCH   7  19
TORSDOF 4
ENDMDL
MODEL 6
REMARK VINA RESULT:      -6.3      5.077      9.902
REMARK  Name = 
REMARK  4 active torsions:
REMARK  status: ('A' for Active; 'I' for Inactive)
REMARK    1  A    between atoms: C_2  and  C_3
REMARK    2  A    between atoms: C_6  and  C_7
REMARK    3  A    between atoms: C_13  and  C_15
REMARK    4  A    between atoms: C_16  and  C_17
REMARK                            x       y       z     vdW  Elec       q    Type
REMARK                         _______ _______ _______ _____ _____    ______ ____
ROOT
ATOM      1  C   UNL     1       1.261  15.913  19.701  0.00  0.00    +0.000 C 
ATOM      2  O   UNL     1       0.411  16.790  19.838  0.00  0.00    +0.000 OA
ATOM      3  N   UNL     1       0.942  14.558  19.615  0.00  0.00    +0.000 N 
ATOM      4  C   UNL     1      -0.465  14.139  19.500  0.00  0.00    +0.000 C 
ATOM      5  C   UNL     1      -0.621  12.987  18.483  0.00  0.00    +0.000 C 
ATOM      6  N   UNL     1       0.363  11.909  18.709  0.00  0.00    +0.000 N 
ATOM      7  C   UNL     1      -0.040  10.589  18.588  0.00  0.00    +0.000 C 
ATOM      8  O   UNL     1      -1.189  10.259  18.309  0.00  0.00    +0.000 OA
ATOM      9  C   UNL     1       1.749  12.378  18.827  0.00  0.00    +0.000 C 
ATOM     10  C   UNL     1       1.849  13.448  19.918  0.00  0.00    +0.000 C 
ENDROOT
BRANCH   1  14
ATOM     11  C   UNL     1       5.377  17.132  19.365  0.00  0.00    +0.000 A 
ATOM     12  C   UNL     1       4.650  17.405  20.529  0.00  0.00    +0.000 A 
ATOM     13  C   UNL     1       3.313  16.999  20.638  0.00  0.00    +0.000 A 
ATOM     14  C   UNL     1       2.690  16.334  19.575  0.00  0.00    +0.000 A 
ATOM     15  C   UNL     1       3.408  16.142  18.386  0.00  0.00    +0.000 A 
ATOM     16  C   UNL     1       4.755  16.488  18.295  0.00  0.00    +0.000 A 
BRANCH  11  18
ATOM     17  N   UNL     1       7.857  17.854  19.175  0.00  0.00    +0.000 NA
ATOM     18  C   UNL     1       6.750  17.530  19.244  0.00  0.00    +0.000 C 
ENDBRANCH  11  18
ENDBRANCH   1  14
BRANCH   7  19
ATOM     19  C   UNL     1       0.987   9.549  18.860  0.00  0.00    +0.000 C 
ATOM     20  C   UNL     1       1.550   8.847  17.863  0.00  0.00    +0.000 C 
BRANCH  20  21
ATOM     21  C   UNL     1       2.516   7.757  18.083  0.00  0.00    +0.000 A 
ATOM     22  C   UNL     1       3.640   7.580  17.261  0.00  0.00    +0.000 A 
ATOM     23  C   UNL     1       4.573   6.574  17.527  0.00  0.00    +0.000 A 
ATOM     24  C   UNL     1       4.396   5.742  18.628  0.00  0.00    +0.000 A 
ATOM     25 BR   UNL     1       5.678   4.408  19.009  0.00  0.00    +0.000 Br
ATOM     26  C   UNL     1       3.289   5.903  19.458  0.00  0.00    +0.000 A 
ATOM     27  C   UNL     1       2.354   6.910  19.187  0.00  0.00    +0.000 A 
ENDBRANCH  20  21
ENDBRANCH   7  19
TORSDOF 4
ENDMDL
MODEL 7
REMARK VINA RESULT:      -6.2      5.138      9.778
REMARK  Name = 
REMARK  4 active torsions:
REMARK  status: ('A' for Active; 'I' for Inactive)
REMARK    1  A    between atoms: C_2  and  C_3
REMARK    2  A    between atoms: C_6  and  C_7
REMARK    3  A    between atoms: C_13  and  C_15
REMARK    4  A    between atoms: C_16  and  C_17
REMARK                            x       y       z     vdW  Elec       q    Type
REMARK                         _______ _______ _______ _____ _____    ______ ____
ROOT
ATOM      1  C   UNL     1       1.694  15.989  19.795  0.00  0.00    +0.000 C 
ATOM      2  O   UNL     1       0.921  16.929  19.967  0.00  0.00    +0.000 OA
ATOM      3  N   UNL     1       1.277  14.659  19.788  0.00  0.00    +0.000 N 
ATOM      4  C   UNL     1      -0.160  14.338  19.804  0.00  0.00    +0.000 C 
ATOM      5  C   UNL     1      -0.479  13.166  18.850  0.00  0.00    +0.000 C 
ATOM      6  N   UNL     1       0.444  12.029  19.037  0.00  0.00    +0.000 N 
ATOM      7  C   UNL     1      -0.056  10.738  19.000  0.00  0.00    +0.000 C 
ATOM      8  O   UNL     1      -1.245  10.482  18.830  0.00  0.00    +0.000 OA
ATOM      9  C   UNL     1       1.865  12.402  19.023  0.00  0.00    +0.000 C 
ATOM     10  C   UNL     1       2.128  13.497  20.060  0.00  0.00    +0.000 C 
ENDROOT
BRANCH   1  14
ATOM     11  C   UNL     1       5.840  16.904  19.076  0.00  0.00    +0.000 A 
ATOM     12  C   UNL     1       5.172  17.456  20.177  0.00  0.00    +0.000 A 
ATOM     13  C   UNL     1       3.826  17.149  20.411  0.00  0.00    +0.000 A 
ATOM     14  C   UNL     1       3.133  16.304  19.537  0.00  0.00    +0.000 A 
ATOM     15  C   UNL     1       3.793  15.826  18.396  0.00  0.00    +0.000 A 
ATOM     16  C   UNL     1       5.148  16.078  18.190  0.00  0.00    +0.000 A 
BRANCH  11  18
ATOM     17  N   UNL     1       8.327  17.461  18.616  0.00  0.00    +0.000 NA
ATOM     18  C   UNL     1       7.222  17.200  18.830  0.00  0.00    +0.000 C 
ENDBRANCH  11  18
ENDBRANCH   1  14
BRANCH   7  19
ATOM     19  C   UNL     1       0.916   9.637  19.229  0.00  0.00    +0.000 C 
ATOM     20  C   UNL     1       1.533   9.028  18.203  0.00  0.00    +0.000 C 
BRANCH  20  21
ATOM     21  C   UNL     1       2.448   7.885  18.370  0.00  0.00    +0.000 A 
ATOM     22  C   UNL     1       2.318   6.974  19.429  0.00  0.00    +0.000 A 
ATOM     23  C   UNL     1       3.163   5.866  19.532  0.00  0.00    +0.000 A 
ATOM     24  C   UNL     1       4.139   5.651  18.564  0.00  0.00    +0.000 A 
ATOM     25 BR   UNL     1       5.255   4.131  18.682  0.00  0.00    +0.000 Br
ATOM     26  C   UNL     1       4.283   6.541  17.503  0.00  0.00    +0.000 A 
ATOM     27  C   UNL     1       3.437   7.652  17.405  0.00  0.00    +0.000 A 
ENDBRANCH  20  21
ENDBRANCH   7  19
TORSDOF 4
ENDMDL
MODEL 8
REMARK VINA RESULT:      -6.2      3.827      9.477
REMARK  Name = 
REMARK  4 active torsions:
REMARK  status: ('A' for Active; 'I' for Inactive)
REMARK    1  A    between atoms: C_2  and  C_3
REMARK    2  A    between atoms: C_6  and  C_7
REMARK    3  A    between atoms: C_13  and  C_15
REMARK    4  A    between atoms: C_16  and  C_17
REMARK                            x       y       z     vdW  Elec       q    Type
REMARK                         _______ _______ _______ _____ _____    ______ ____
ROOT
ATOM      1  C   UNL     1      -0.377  11.799  22.226  0.00  0.00    +0.000 C 
ATOM      2  O   UNL     1      -0.993  11.964  23.276  0.00  0.00    +0.000 OA
ATOM      3  N   UNL     1       0.229  10.589  21.888  0.00  0.00    +0.000 N 
ATOM      4  C   UNL     1      -0.009   9.392  22.710  0.00  0.00    +0.000 C 
ATOM      5  C   UNL     1      -0.199   8.139  21.827  0.00  0.00    +0.000 C 
ATOM      6  N   UNL     1       0.850   8.022  20.794  0.00  0.00    +0.000 N 
ATOM      7  C   UNL     1       1.386   6.776  20.513  0.00  0.00    +0.000 C 
ATOM      8  O   UNL     1       1.041   5.749  21.090  0.00  0.00    +0.000 OA
ATOM      9  C   UNL     1       1.056   9.245  20.008  0.00  0.00    +0.000 C 
ATOM     10  C   UNL     1       1.336  10.426  20.941  0.00  0.00    +0.000 C 
ENDROOT
BRANCH   1  14
ATOM     11  C   UNL     1      -0.243  15.065  19.423  0.00  0.00    +0.000 A 
ATOM     12  C   UNL     1      -0.905  13.875  19.094  0.00  0.00    +0.000 A 
ATOM     13  C   UNL     1      -0.953  12.819  20.013  0.00  0.00    +0.000 A 
ATOM     14  C   UNL     1      -0.324  12.937  21.258  0.00  0.00    +0.000 A 
ATOM     15  C   UNL     1       0.403  14.103  21.538  0.00  0.00    +0.000 A 
ATOM     16  C   UNL     1       0.403  15.180  20.654  0.00  0.00    +0.000 A 
BRANCH  11  18
ATOM     17  N   UNL     1      -0.148  17.058  17.773  0.00  0.00    +0.000 NA
ATOM     18  C   UNL     1      -0.196  16.160  18.497  0.00  0.00    +0.000 C 
ENDBRANCH  11  18
ENDBRANCH   1  14
BRANCH   7  19
ATOM     19  C   UNL     1       2.462   6.728  19.488  0.00  0.00    +0.000 C 
ATOM     20  C   UNL     1       2.612   5.661  18.686  0.00  0.00    +0.000 C 
BRANCH  20  21
ATOM     21  C   UNL     1       3.705   5.531  17.705  0.00  0.00    +0.000 A 
ATOM     22  C   UNL     1       4.148   4.282  17.245  0.00  0.00    +0.000 A 
ATOM     23  C   UNL     1       5.147   4.189  16.271  0.00  0.00    +0.000 A 
ATOM     24  C   UNL     1       5.702   5.347  15.738  0.00  0.00    +0.000 A 
ATOM     25 BR   UNL     1       7.022   5.220  14.394  0.00  0.00    +0.000 Br
ATOM     26  C   UNL     1       5.273   6.597  16.179  0.00  0.00    +0.000 A 
ATOM     27  C   UNL     1       4.276   6.688  17.157  0.00  0.00    +0.000 A 
ENDBRANCH  20  21
ENDBRANCH   7  19
TORSDOF 4
ENDMDL
MODEL 9
REMARK VINA RESULT:      -6.2      4.323      9.918
REMARK  Name = 
REMARK  4 active torsions:
REMARK  status: ('A' for Active; 'I' for Inactive)
REMARK    1  A    between atoms: C_2  and  C_3
REMARK    2  A    between atoms: C_6  and  C_7
REMARK    3  A    between atoms: C_13  and  C_15
REMARK    4  A    between atoms: C_16  and  C_17
REMARK                            x       y       z     vdW  Elec       q    Type
REMARK                         _______ _______ _______ _____ _____    ______ ____
ROOT
ATOM      1  C   UNL     1      -0.249  14.180  21.719  0.00  0.00    +0.000 C 
ATOM      2  O   UNL     1      -0.911  14.613  22.660  0.00  0.00    +0.000 OA
ATOM      3  N   UNL     1       0.109  12.837  21.602  0.00  0.00    +0.000 N 
ATOM      4  C   UNL     1      -0.460  11.841  22.524  0.00  0.00    +0.000 C 
ATOM      5  C   UNL     1      -0.833  10.541  21.778  0.00  0.00    +0.000 C 
ATOM      6  N   UNL     1       0.258  10.070  20.901  0.00  0.00    +0.000 N 
ATOM      7  C   UNL     1       0.535   8.714  20.836  0.00  0.00    +0.000 C 
ATOM      8  O   UNL     1      -0.078   7.870  21.483  0.00  0.00    +0.000 OA
ATOM      9  C   UNL     1       0.798  11.102  20.008  0.00  0.00    +0.000 C 
ATOM     10  C   UNL     1       1.238  12.322  20.823  0.00  0.00    +0.000 C 
ENDROOT
BRANCH   1  14
ATOM     11  C   UNL     1       0.849  16.933  18.596  0.00  0.00    +0.000 A 
ATOM     12  C   UNL     1      -0.360  16.230  18.529  0.00  0.00    +0.000 A 
ATOM     13  C   UNL     1      -0.717  15.342  19.551  0.00  0.00    +0.000 A 
ATOM     14  C   UNL     1       0.141  15.136  20.638  0.00  0.00    +0.000 A 
ATOM     15  C   UNL     1       1.384  15.785  20.648  0.00  0.00    +0.000 A 
ATOM     16  C   UNL     1       1.718  16.716  19.666  0.00  0.00    +0.000 A 
BRANCH  11  18
ATOM     17  N   UNL     1       1.547  18.582  16.725  0.00  0.00    +0.000 NA
ATOM     18  C   UNL     1       1.223  17.855  17.562  0.00  0.00    +0.000 C 
ENDBRANCH  11  18
ENDBRANCH   1  14
BRANCH   7  19
ATOM     19  C   UNL     1       1.667   8.304  19.962  0.00  0.00    +0.000 C 
ATOM     20  C   UNL     1       2.046   7.020  19.871  0.00  0.00    +0.000 C 
BRANCH  20  21
ATOM     21  C   UNL     1       3.204   6.570  19.079  0.00  0.00    +0.000 A 
ATOM     22  C   UNL     1       4.030   5.516  19.498  0.00  0.00    +0.000 A 
ATOM     23  C   UNL     1       5.088   5.071  18.699  0.00  0.00    +0.000 A 
ATOM     24  C   UNL     1       5.321   5.670  17.466  0.00  0.00    +0.000 A 
ATOM     25 BR   UNL     1       6.725   5.041  16.370  0.00  0.00    +0.000 Br
ATOM     26  C   UNL     1       4.511   6.716  17.030  0.00  0.00    +0.000 A 
ATOM     27  C   UNL     1       3.454   7.162  17.833  0.00  0.00    +0.000 A 
ENDBRANCH  20  21
ENDBRANCH   7  19
TORSDOF 4
ENDMDL
