MODEL 1
REMARK VINA RESULT:      -6.6      0.000      0.000
REMARK  Name = 
REMARK  8 active torsions:
REMARK  status: ('A' for Active; 'I' for Inactive)
REMARK    1  A    between atoms: C_2  and  C_3
REMARK    2  A    between atoms: C_3  and  C_4
REMARK    3  A    between atoms: C_4  and  C_5
REMARK    4  A    between atoms: N_11  and  CA_12
REMARK    5  A    between atoms: CA_12  and  CB_13
REMARK    6  A    between atoms: CA_12  and  C_15
REMARK    7  A    between atoms: CB_13  and  OG_14
REMARK    8  A    between atoms: C_15  and  OXT_17
REMARK                            x       y       z     vdW  Elec       q    Type
REMARK                         _______ _______ _______ _____ _____    ______ ____
ROOT
ATOM      1  O   UNK A   0       5.396   4.630  18.849  0.00  0.00    +0.000 OA
ATOM      2  C   UNK A   0       4.780   5.328  18.057  0.00  0.00    +0.000 C 
ATOM      3  N   SER A   1       4.871   5.173  16.691  0.00  0.00    +0.000 N 
ATOM      4  H   SER A   1       4.494   5.908  16.094  0.00  0.00    +0.000 HD
ENDROOT
BRANCH   2   5
ATOM      5  C   UNK A   0       3.782   6.405  18.452  0.00  0.00    +0.000 C 
BRANCH   5   6
ATOM      6  C   UNK A   0       2.340   6.063  18.079  0.00  0.00    +0.000 C 
BRANCH   6   7
ATOM      7  C   UNK A   0       1.856   4.855  18.851  0.00  0.00    +0.000 A 
ATOM      8  C   UNK A   0       1.848   4.862  20.253  0.00  0.00    +0.000 A 
ATOM      9  C   UNK A   0       1.443   3.733  20.968  0.00  0.00    +0.000 A 
ATOM     10  C   UNK A   0       1.042   2.581  20.291  0.00  0.00    +0.000 A 
ATOM     11  C   UNK A   0       1.046   2.563  18.896  0.00  0.00    +0.000 A 
ATOM     12  C   UNK A   0       1.451   3.692  18.181  0.00  0.00    +0.000 A 
ENDBRANCH   6   7
ENDBRANCH   5   6
ENDBRANCH   2   5
BRANCH   3  13
ATOM     13  CA  SER A   1       5.836   4.275  16.033  0.00  0.00    +0.000 C 
BRANCH  13  14
ATOM     14  C   SER A   1       7.229   4.860  16.320  0.00  0.00    +0.000 C 
ATOM     15  O   SER A   1       7.586   5.953  15.887  0.00  0.00    +0.000 OA
BRANCH  14  16
ATOM     16  OXT SER A   1       8.017   4.144  17.149  0.00  0.00    +0.000 OA
ATOM     17  HXT SER A   1       7.851   4.250  18.104  0.00  0.00    +0.000 HD
ENDBRANCH  14  16
ENDBRANCH  13  14
BRANCH  13  18
ATOM     18  CB  SER A   1       5.565   4.151  14.531  0.00  0.00    +0.000 C 
BRANCH  18  19
ATOM     19  OG  SER A   1       6.758   4.321  13.771  0.00  0.00    +0.000 OA
ATOM     20  H   SER A   1       6.746   5.236  13.430  0.00  0.00    +0.000 HD
ENDBRANCH  18  19
ENDBRANCH  13  18
ENDBRANCH   3  13
TORSDOF 8
ENDMDL
MODEL 2
REMARK VINA RESULT:      -6.5      1.651      2.855
REMARK  Name = 
REMARK  8 active torsions:
REMARK  status: ('A' for Active; 'I' for Inactive)
REMARK    1  A    between atoms: C_2  and  C_3
REMARK    2  A    between atoms: C_3  and  C_4
REMARK    3  A    between atoms: C_4  and  C_5
REMARK    4  A    between atoms: N_11  and  CA_12
REMARK    5  A    between atoms: CA_12  and  CB_13
REMARK    6  A    between atoms: CA_12  and  C_15
REMARK    7  A    between atoms: CB_13  and  OG_14
REMARK    8  A    between atoms: C_15  and  OXT_17
REMARK                            x       y       z     vdW  Elec       q    Type
REMARK                         _______ _______ _______ _____ _____    ______ ____
ROOT
ATOM      1  O   UNK A   0       5.079   7.009  15.975  0.00  0.00    +0.000 OA
ATOM      2  C   UNK A   0       4.808   6.781  17.144  0.00  0.00    +0.000 C 
ATOM      3  N   SER A   1       5.762   6.474  18.089  0.00  0.00    +0.000 N 
ATOM      4  H   SER A   1       5.453   6.103  18.987  0.00  0.00    +0.000 HD
ENDROOT
BRANCH   2   5
ATOM      5  C   UNK A   0       3.412   6.873  17.740  0.00  0.00    +0.000 C 
BRANCH   5   6
ATOM      6  C   UNK A   0       3.313   6.290  19.148  0.00  0.00    +0.000 C 
BRANCH   6   7
ATOM      7  C   UNK A   0       2.460   5.040  19.155  0.00  0.00    +0.000 A 
ATOM      8  C   UNK A   0       2.394   4.216  18.023  0.00  0.00    +0.000 A 
ATOM      9  C   UNK A   0       1.574   3.086  18.013  0.00  0.00    +0.000 A 
ATOM     10  C   UNK A   0       0.806   2.766  19.132  0.00  0.00    +0.000 A 
ATOM     11  C   UNK A   0       0.864   3.579  20.264  0.00  0.00    +0.000 A 
ATOM     12  C   UNK A   0       1.684   4.709  20.275  0.00  0.00    +0.000 A 
ENDBRANCH   6   7
ENDBRANCH   5   6
ENDBRANCH   2   5
BRANCH   3  13
ATOM     13  CA  SER A   1       7.178   6.222  17.770  0.00  0.00    +0.000 C 
BRANCH  13  14
ATOM     14  C   SER A   1       7.252   4.766  17.282  0.00  0.00    +0.000 C 
ATOM     15  O   SER A   1       7.901   4.436  16.292  0.00  0.00    +0.000 OA
BRANCH  14  16
ATOM     16  OXT SER A   1       6.631   3.847  18.050  0.00  0.00    +0.000 OA
ATOM     17  HXT SER A   1       5.671   3.967  18.179  0.00  0.00    +0.000 HD
ENDBRANCH  14  16
ENDBRANCH  13  14
BRANCH  13  18
ATOM     18  CB  SER A   1       8.087   6.468  18.978  0.00  0.00    +0.000 C 
BRANCH  18  19
ATOM     19  OG  SER A   1       7.711   5.657  20.087  0.00  0.00    +0.000 OA
ATOM     20  H   SER A   1       8.446   5.034  20.241  0.00  0.00    +0.000 HD
ENDBRANCH  18  19
ENDBRANCH  13  18
ENDBRANCH   3  13
TORSDOF 8
ENDMDL
MODEL 3
REMARK VINA RESULT:      -6.4      1.675      2.733
REMARK  Name = 
REMARK  8 active torsions:
REMARK  status: ('A' for Active; 'I' for Inactive)
REMARK    1  A    between atoms: C_2  and  C_3
REMARK    2  A    between atoms: C_3  and  C_4
REMARK    3  A    between atoms: C_4  and  C_5
REMARK    4  A    between atoms: N_11  and  CA_12
REMARK    5  A    between atoms: CA_12  and  CB_13
REMARK    6  A    between atoms: CA_12  and  C_15
REMARK    7  A    between atoms: CB_13  and  OG_14
REMARK    8  A    between atoms: C_15  and  OXT_17
REMARK                            x       y       z     vdW  Elec       q    Type
REMARK                         _______ _______ _______ _____ _____    ______ ____
ROOT
ATOM      1  O   UNK A   0       3.491   5.117  17.363  0.00  0.00    +0.000 OA
ATOM      2  C   UNK A   0       3.892   4.046  16.934  0.00  0.00    +0.000 C 
ATOM      3  N   SER A   1       5.195   3.838  16.537  0.00  0.00    +0.000 N 
ATOM      4  H   SER A   1       5.411   2.994  16.007  0.00  0.00    +0.000 HD
ENDROOT
BRANCH   2   5
ATOM      5  C   UNK A   0       3.051   2.783  16.843  0.00  0.00    +0.000 C 
BRANCH   5   6
ATOM      6  C   UNK A   0       3.302   1.802  17.986  0.00  0.00    +0.000 C 
BRANCH   6   7
ATOM      7  C   UNK A   0       2.609   2.260  19.251  0.00  0.00    +0.000 A 
ATOM      8  C   UNK A   0       1.263   2.649  19.224  0.00  0.00    +0.000 A 
ATOM      9  C   UNK A   0       0.633   3.113  20.381  0.00  0.00    +0.000 A 
ATOM     10  C   UNK A   0       1.341   3.198  21.579  0.00  0.00    +0.000 A 
ATOM     11  C   UNK A   0       2.681   2.813  21.617  0.00  0.00    +0.000 A 
ATOM     12  C   UNK A   0       3.312   2.349  20.461  0.00  0.00    +0.000 A 
ENDBRANCH   6   7
ENDBRANCH   5   6
ENDBRANCH   2   5
BRANCH   3  13
ATOM     13  CA  SER A   1       6.197   4.912  16.425  0.00  0.00    +0.000 C 
BRANCH  13  14
ATOM     14  C   SER A   1       6.907   4.696  15.079  0.00  0.00    +0.000 C 
ATOM     15  O   SER A   1       7.826   5.416  14.696  0.00  0.00    +0.000 OA
BRANCH  14  16
ATOM     16  OXT SER A   1       6.522   3.615  14.369  0.00  0.00    +0.000 OA
ATOM     17  HXT SER A   1       6.726   2.745  14.760  0.00  0.00    +0.000 HD
ENDBRANCH  14  16
ENDBRANCH  13  14
BRANCH  13  18
ATOM     18  CB  SER A   1       7.180   4.899  17.600  0.00  0.00    +0.000 C 
BRANCH  18  19
ATOM     19  OG  SER A   1       8.282   4.032  17.346  0.00  0.00    +0.000 OA
ATOM     20  H   SER A   1       7.931   3.122  17.354  0.00  0.00    +0.000 HD
ENDBRANCH  18  19
ENDBRANCH  13  18
ENDBRANCH   3  13
TORSDOF 8
ENDMDL
MODEL 4
REMARK VINA RESULT:      -6.3      1.596      2.433
REMARK  Name = 
REMARK  8 active torsions:
REMARK  status: ('A' for Active; 'I' for Inactive)
REMARK    1  A    between atoms: C_2  and  C_3
REMARK    2  A    between atoms: C_3  and  C_4
REMARK    3  A    between atoms: C_4  and  C_5
REMARK    4  A    between atoms: N_11  and  CA_12
REMARK    5  A    between atoms: CA_12  and  CB_13
REMARK    6  A    between atoms: CA_12  and  C_15
REMARK    7  A    between atoms: CB_13  and  OG_14
REMARK    8  A    between atoms: C_15  and  OXT_17
REMARK                            x       y       z     vdW  Elec       q    Type
REMARK                         _______ _______ _______ _____ _____    ______ ____
ROOT
ATOM      1  O   UNK A   0       5.719   3.530  15.707  0.00  0.00    +0.000 OA
ATOM      2  C   UNK A   0       5.008   4.084  16.533  0.00  0.00    +0.000 C 
ATOM      3  N   SER A   1       5.372   5.245  17.178  0.00  0.00    +0.000 N 
ATOM      4  H   SER A   1       4.830   5.539  17.990  0.00  0.00    +0.000 HD
ENDROOT
BRANCH   2   5
ATOM      5  C   UNK A   0       3.609   3.625  16.913  0.00  0.00    +0.000 C 
BRANCH   5   6
ATOM      6  C   UNK A   0       2.804   4.686  17.660  0.00  0.00    +0.000 C 
BRANCH   6   7
ATOM      7  C   UNK A   0       2.275   4.139  18.968  0.00  0.00    +0.000 A 
ATOM      8  C   UNK A   0       2.679   4.696  20.189  0.00  0.00    +0.000 A 
ATOM      9  C   UNK A   0       2.226   4.165  21.399  0.00  0.00    +0.000 A 
ATOM     10  C   UNK A   0       1.366   3.067  21.404  0.00  0.00    +0.000 A 
ATOM     11  C   UNK A   0       0.957   2.505  20.195  0.00  0.00    +0.000 A 
ATOM     12  C   UNK A   0       1.410   3.035  18.985  0.00  0.00    +0.000 A 
ENDBRANCH   6   7
ENDBRANCH   5   6
ENDBRANCH   2   5
BRANCH   3  13
ATOM     13  CA  SER A   1       6.711   5.853  17.075  0.00  0.00    +0.000 C 
BRANCH  13  14
ATOM     14  C   SER A   1       7.592   5.120  18.099  0.00  0.00    +0.000 C 
ATOM     15  O   SER A   1       7.660   5.466  19.276  0.00  0.00    +0.000 OA
BRANCH  14  16
ATOM     16  OXT SER A   1       8.230   4.017  17.655  0.00  0.00    +0.000 OA
ATOM     17  HXT SER A   1       8.990   3.712  18.186  0.00  0.00    +0.000 HD
ENDBRANCH  14  16
ENDBRANCH  13  14
BRANCH  13  18
ATOM     18  CB  SER A   1       6.672   7.363  17.328  0.00  0.00    +0.000 C 
BRANCH  18  19
ATOM     19  OG  SER A   1       7.975   7.934  17.268  0.00  0.00    +0.000 OA
ATOM     20  H   SER A   1       8.201   8.021  16.323  0.00  0.00    +0.000 HD
ENDBRANCH  18  19
ENDBRANCH  13  18
ENDBRANCH   3  13
TORSDOF 8
ENDMDL
MODEL 5
REMARK VINA RESULT:      -6.3      2.005      3.021
REMARK  Name = 
REMARK  8 active torsions:
REMARK  status: ('A' for Active; 'I' for Inactive)
REMARK    1  A    between atoms: C_2  and  C_3
REMARK    2  A    between atoms: C_3  and  C_4
REMARK    3  A    between atoms: C_4  and  C_5
REMARK    4  A    between atoms: N_11  and  CA_12
REMARK    5  A    between atoms: CA_12  and  CB_13
REMARK    6  A    between atoms: CA_12  and  C_15
REMARK    7  A    between atoms: CB_13  and  OG_14
REMARK    8  A    between atoms: C_15  and  OXT_17
REMARK                            x       y       z     vdW  Elec       q    Type
REMARK                         _______ _______ _______ _____ _____    ______ ____
ROOT
ATOM      1  O   UNK A   0       4.175   6.673  17.739  0.00  0.00    +0.000 OA
ATOM      2  C   UNK A   0       4.591   5.532  17.607  0.00  0.00    +0.000 C 
ATOM      3  N   SER A   1       5.862   5.149  17.979  0.00  0.00    +0.000 N 
ATOM      4  H   SER A   1       6.208   4.245  17.660  0.00  0.00    +0.000 HD
ENDROOT
BRANCH   2   5
ATOM      5  C   UNK A   0       3.764   4.366  17.091  0.00  0.00    +0.000 C 
BRANCH   5   6
ATOM      6  C   UNK A   0       3.942   3.086  17.906  0.00  0.00    +0.000 C 
BRANCH   6   7
ATOM      7  C   UNK A   0       3.021   3.082  19.107  0.00  0.00    +0.000 A 
ATOM      8  C   UNK A   0       3.490   2.673  20.363  0.00  0.00    +0.000 A 
ATOM      9  C   UNK A   0       2.630   2.626  21.463  0.00  0.00    +0.000 A 
ATOM     10  C   UNK A   0       1.290   2.985  21.322  0.00  0.00    +0.000 A 
ATOM     11  C   UNK A   0       0.813   3.394  20.076  0.00  0.00    +0.000 A 
ATOM     12  C   UNK A   0       1.671   3.441  18.976  0.00  0.00    +0.000 A 
ENDBRANCH   6   7
ENDBRANCH   5   6
ENDBRANCH   2   5
BRANCH   3  13
ATOM     13  CA  SER A   1       6.906   6.093  18.415  0.00  0.00    +0.000 C 
BRANCH  13  14
ATOM     14  C   SER A   1       7.384   6.817  17.145  0.00  0.00    +0.000 C 
ATOM     15  O   SER A   1       7.605   6.223  16.093  0.00  0.00    +0.000 OA
BRANCH  14  16
ATOM     16  OXT SER A   1       7.469   8.161  17.222  0.00  0.00    +0.000 OA
ATOM     17  HXT SER A   1       7.697   8.629  16.397  0.00  0.00    +0.000 HD
ENDBRANCH  14  16
ENDBRANCH  13  14
BRANCH  13  18
ATOM     18  CB  SER A   1       8.054   5.380  19.135  0.00  0.00    +0.000 C 
BRANCH  18  19
ATOM     19  OG  SER A   1       7.926   5.486  20.550  0.00  0.00    +0.000 OA
ATOM     20  H   SER A   1       8.209   6.388  20.790  0.00  0.00    +0.000 HD
ENDBRANCH  18  19
ENDBRANCH  13  18
ENDBRANCH   3  13
TORSDOF 8
ENDMDL
MODEL 6
REMARK VINA RESULT:      -6.3      1.363      2.525
REMARK  Name = 
REMARK  8 active torsions:
REMARK  status: ('A' for Active; 'I' for Inactive)
REMARK    1  A    between atoms: C_2  and  C_3
REMARK    2  A    between atoms: C_3  and  C_4
REMARK    3  A    between atoms: C_4  and  C_5
REMARK    4  A    between atoms: N_11  and  CA_12
REMARK    5  A    between atoms: CA_12  and  CB_13
REMARK    6  A    between atoms: CA_12  and  C_15
REMARK    7  A    between atoms: CB_13  and  OG_14
REMARK    8  A    between atoms: C_15  and  OXT_17
REMARK                            x       y       z     vdW  Elec       q    Type
REMARK                         _______ _______ _______ _____ _____    ______ ____
ROOT
ATOM      1  O   UNK A   0       4.973   7.171  15.709  0.00  0.00    +0.000 OA
ATOM      2  C   UNK A   0       4.700   6.688  16.797  0.00  0.00    +0.000 C 
ATOM      3  N   SER A   1       5.635   6.071  17.600  0.00  0.00    +0.000 N 
ATOM      4  H   SER A   1       5.305   5.519  18.391  0.00  0.00    +0.000 HD
ENDROOT
BRANCH   2   5
ATOM      5  C   UNK A   0       3.330   6.756  17.452  0.00  0.00    +0.000 C 
BRANCH   5   6
ATOM      6  C   UNK A   0       3.334   6.321  18.916  0.00  0.00    +0.000 C 
BRANCH   6   7
ATOM      7  C   UNK A   0       2.476   5.090  19.114  0.00  0.00    +0.000 A 
ATOM      8  C   UNK A   0       2.328   4.151  18.084  0.00  0.00    +0.000 A 
ATOM      9  C   UNK A   0       1.503   3.037  18.250  0.00  0.00    +0.000 A 
ATOM     10  C   UNK A   0       0.811   2.847  19.446  0.00  0.00    +0.000 A 
ATOM     11  C   UNK A   0       0.951   3.776  20.478  0.00  0.00    +0.000 A 
ATOM     12  C   UNK A   0       1.776   4.890  20.313  0.00  0.00    +0.000 A 
ENDBRANCH   6   7
ENDBRANCH   5   6
ENDBRANCH   2   5
BRANCH   3  13
ATOM     13  CA  SER A   1       7.013   5.777  17.172  0.00  0.00    +0.000 C 
BRANCH  13  14
ATOM     14  C   SER A   1       6.893   4.884  15.926  0.00  0.00    +0.000 C 
ATOM     15  O   SER A   1       6.288   3.815  15.938  0.00  0.00    +0.000 OA
BRANCH  14  16
ATOM     16  OXT SER A   1       7.418   5.378  14.785  0.00  0.00    +0.000 OA
ATOM     17  HXT SER A   1       6.784   5.723  14.129  0.00  0.00    +0.000 HD
ENDBRANCH  14  16
ENDBRANCH  13  14
BRANCH  13  18
ATOM     18  CB  SER A   1       7.823   5.103  18.283  0.00  0.00    +0.000 C 
BRANCH  18  19
ATOM     19  OG  SER A   1       8.479   3.930  17.811  0.00  0.00    +0.000 OA
ATOM     20  H   SER A   1       9.023   4.201  17.047  0.00  0.00    +0.000 HD
ENDBRANCH  18  19
ENDBRANCH  13  18
ENDBRANCH   3  13
TORSDOF 8
ENDMDL
MODEL 7
REMARK VINA RESULT:      -6.3      1.847      2.901
REMARK  Name = 
REMARK  8 active torsions:
REMARK  status: ('A' for Active; 'I' for Inactive)
REMARK    1  A    between atoms: C_2  and  C_3
REMARK    2  A    between atoms: C_3  and  C_4
REMARK    3  A    between atoms: C_4  and  C_5
REMARK    4  A    between atoms: N_11  and  CA_12
REMARK    5  A    between atoms: CA_12  and  CB_13
REMARK    6  A    between atoms: CA_12  and  C_15
REMARK    7  A    between atoms: CB_13  and  OG_14
REMARK    8  A    between atoms: C_15  and  OXT_17
REMARK                            x       y       z     vdW  Elec       q    Type
REMARK                         _______ _______ _______ _____ _____    ______ ____
ROOT
ATOM      1  O   UNK A   0       5.541   3.828  15.484  0.00  0.00    +0.000 OA
ATOM      2  C   UNK A   0       4.935   4.211  16.473  0.00  0.00    +0.000 C 
ATOM      3  N   SER A   1       5.401   5.212  17.298  0.00  0.00    +0.000 N 
ATOM      4  H   SER A   1       4.952   5.341  18.204  0.00  0.00    +0.000 HD
ENDROOT
BRANCH   2   5
ATOM      5  C   UNK A   0       3.566   3.703  16.897  0.00  0.00    +0.000 C 
BRANCH   5   6
ATOM      6  C   UNK A   0       3.629   2.519  17.861  0.00  0.00    +0.000 C 
BRANCH   6   7
ATOM      7  C   UNK A   0       2.813   2.795  19.106  0.00  0.00    +0.000 A 
ATOM      8  C   UNK A   0       1.604   3.498  19.024  0.00  0.00    +0.000 A 
ATOM      9  C   UNK A   0       0.872   3.791  20.176  0.00  0.00    +0.000 A 
ATOM     10  C   UNK A   0       1.340   3.387  21.426  0.00  0.00    +0.000 A 
ATOM     11  C   UNK A   0       2.542   2.686  21.519  0.00  0.00    +0.000 A 
ATOM     12  C   UNK A   0       3.275   2.393  20.368  0.00  0.00    +0.000 A 
ENDBRANCH   6   7
ENDBRANCH   5   6
ENDBRANCH   2   5
BRANCH   3  13
ATOM     13  CA  SER A   1       6.742   5.810  17.180  0.00  0.00    +0.000 C 
BRANCH  13  14
ATOM     14  C   SER A   1       7.633   5.062  18.186  0.00  0.00    +0.000 C 
ATOM     15  O   SER A   1       7.635   5.325  19.386  0.00  0.00    +0.000 OA
BRANCH  14  16
ATOM     16  OXT SER A   1       8.357   4.036  17.692  0.00  0.00    +0.000 OA
ATOM     17  HXT SER A   1       8.938   4.240  16.935  0.00  0.00    +0.000 HD
ENDBRANCH  14  16
ENDBRANCH  13  14
BRANCH  13  18
ATOM     18  CB  SER A   1       6.718   7.318  17.447  0.00  0.00    +0.000 C 
BRANCH  18  19
ATOM     19  OG  SER A   1       7.968   7.776  17.956  0.00  0.00    +0.000 OA
ATOM     20  H   SER A   1       8.488   8.083  17.189  0.00  0.00    +0.000 HD
ENDBRANCH  18  19
ENDBRANCH  13  18
ENDBRANCH   3  13
TORSDOF 8
ENDMDL
MODEL 8
REMARK VINA RESULT:      -6.3      0.967      1.683
REMARK  Name = 
REMARK  8 active torsions:
REMARK  status: ('A' for Active; 'I' for Inactive)
REMARK    1  A    between atoms: C_2  and  C_3
REMARK    2  A    between atoms: C_3  and  C_4
REMARK    3  A    between atoms: C_4  and  C_5
REMARK    4  A    between atoms: N_11  and  CA_12
REMARK    5  A    between atoms: CA_12  and  CB_13
REMARK    6  A    between atoms: CA_12  and  C_15
REMARK    7  A    between atoms: CB_13  and  OG_14
REMARK    8  A    between atoms: C_15  and  OXT_17
REMARK                            x       y       z     vdW  Elec       q    Type
REMARK                         _______ _______ _______ _____ _____    ______ ____
ROOT
ATOM      1  O   UNK A   0       5.379   6.787  16.579  0.00  0.00    +0.000 OA
ATOM      2  C   UNK A   0       4.711   5.937  17.149  0.00  0.00    +0.000 C 
ATOM      3  N   SER A   1       4.959   4.587  17.035  0.00  0.00    +0.000 N 
ATOM      4  H   SER A   1       4.251   3.934  17.370  0.00  0.00    +0.000 HD
ENDROOT
BRANCH   2   5
ATOM      5  C   UNK A   0       3.574   6.237  18.112  0.00  0.00    +0.000 C 
BRANCH   5   6
ATOM      6  C   UNK A   0       2.325   5.394  17.858  0.00  0.00    +0.000 C 
BRANCH   6   7
ATOM      7  C   UNK A   0       2.026   4.504  19.045  0.00  0.00    +0.000 A 
ATOM      8  C   UNK A   0       1.169   3.403  18.912  0.00  0.00    +0.000 A 
ATOM      9  C   UNK A   0       0.858   2.605  20.015  0.00  0.00    +0.000 A 
ATOM     10  C   UNK A   0       1.396   2.900  21.267  0.00  0.00    +0.000 A 
ATOM     11  C   UNK A   0       2.250   3.994  21.412  0.00  0.00    +0.000 A 
ATOM     12  C   UNK A   0       2.561   4.792  20.309  0.00  0.00    +0.000 A 
ENDBRANCH   6   7
ENDBRANCH   5   6
ENDBRANCH   2   5
BRANCH   3  13
ATOM     13  CA  SER A   1       5.935   4.011  16.092  0.00  0.00    +0.000 C 
BRANCH  13  14
ATOM     14  C   SER A   1       7.288   4.658  16.431  0.00  0.00    +0.000 C 
ATOM     15  O   SER A   1       8.022   4.225  17.315  0.00  0.00    +0.000 OA
BRANCH  14  16
ATOM     16  OXT SER A   1       7.671   5.685  15.644  0.00  0.00    +0.000 OA
ATOM     17  HXT SER A   1       7.885   6.523  16.096  0.00  0.00    +0.000 HD
ENDBRANCH  14  16
ENDBRANCH  13  14
BRANCH  13  18
ATOM     18  CB  SER A   1       5.531   4.255  14.635  0.00  0.00    +0.000 C 
BRANCH  18  19
ATOM     19  OG  SER A   1       6.365   3.529  13.736  0.00  0.00    +0.000 OA
ATOM     20  H   SER A   1       6.874   2.895  14.275  0.00  0.00    +0.000 HD
ENDBRANCH  18  19
ENDBRANCH  13  18
ENDBRANCH   3  13
TORSDOF 8
ENDMDL
MODEL 9
REMARK VINA RESULT:      -6.2      2.613      5.589
REMARK  Name = 
REMARK  8 active torsions:
REMARK  status: ('A' for Active; 'I' for Inactive)
REMARK    1  A    between atoms: C_2  and  C_3
REMARK    2  A    between atoms: C_3  and  C_4
REMARK    3  A    between atoms: C_4  and  C_5
REMARK    4  A    between atoms: N_11  and  CA_12
REMARK    5  A    between atoms: CA_12  and  CB_13
REMARK    6  A    between atoms: CA_12  and  C_15
REMARK    7  A    between atoms: CB_13  and  OG_14
REMARK    8  A    between atoms: C_15  and  OXT_17
REMARK                            x       y       z     vdW  Elec       q    Type
REMARK                         _______ _______ _______ _____ _____    ______ ____
ROOT
ATOM      1  O   UNK A   0       1.838   4.701  17.793  0.00  0.00    +0.000 OA
ATOM      2  C   UNK A   0       2.610   5.186  18.606  0.00  0.00    +0.000 C 
ATOM      3  N   SER A   1       3.236   4.441  19.582  0.00  0.00    +0.000 N 
ATOM      4  H   SER A   1       3.703   4.934  20.343  0.00  0.00    +0.000 HD
ENDROOT
BRANCH   2   5
ATOM      5  C   UNK A   0       3.046   6.642  18.621  0.00  0.00    +0.000 C 
BRANCH   5   6
ATOM      6  C   UNK A   0       3.850   7.048  17.388  0.00  0.00    +0.000 C 
BRANCH   6   7
ATOM      7  C   UNK A   0       5.051   6.145  17.207  0.00  0.00    +0.000 A 
ATOM      8  C   UNK A   0       6.118   6.187  18.115  0.00  0.00    +0.000 A 
ATOM      9  C   UNK A   0       7.246   5.386  17.926  0.00  0.00    +0.000 A 
ATOM     10  C   UNK A   0       7.325   4.534  16.825  0.00  0.00    +0.000 A 
ATOM     11  C   UNK A   0       6.269   4.484  15.914  0.00  0.00    +0.000 A 
ATOM     12  C   UNK A   0       5.141   5.285  16.103  0.00  0.00    +0.000 A 
ENDBRANCH   6   7
ENDBRANCH   5   6
ENDBRANCH   2   5
BRANCH   3  13
ATOM     13  CA  SER A   1       2.922   3.029  19.861  0.00  0.00    +0.000 C 
BRANCH  13  14
ATOM     14  C   SER A   1       1.990   3.031  21.084  0.00  0.00    +0.000 C 
ATOM     15  O   SER A   1       2.416   3.042  22.236  0.00  0.00    +0.000 OA
BRANCH  14  16
ATOM     16  OXT SER A   1       0.668   3.106  20.825  0.00  0.00    +0.000 OA
ATOM     17  HXT SER A   1       0.074   2.700  21.484  0.00  0.00    +0.000 HD
ENDBRANCH  14  16
ENDBRANCH  13  14
BRANCH  13  18
ATOM     18  CB  SER A   1       4.187   2.202  20.106  0.00  0.00    +0.000 C 
BRANCH  18  19
ATOM     19  OG  SER A   1       5.318   2.776  19.455  0.00  0.00    +0.000 OA
ATOM     20  H   SER A   1       5.860   2.033  19.129  0.00  0.00    +0.000 HD
ENDBRANCH  18  19
ENDBRANCH  13  18
ENDBRANCH   3  13
TORSDOF 8
ENDMDL
