MODEL 1
REMARK VINA RESULT:      -8.2      0.000      0.000
REMARK  Name = 
REMARK  4 active torsions:
REMARK  status: ('A' for Active; 'I' for Inactive)
REMARK    1  A    between atoms: C_1  and  O_2
REMARK    2  A    between atoms: O_2  and  C_3
REMARK    3  A    between atoms: C_9  and  C_10
REMARK    4  A    between atoms: N_12  and  C_13
REMARK                            x       y       z     vdW  Elec       q    Type
REMARK                         _______ _______ _______ _____ _____    ______ ____
ROOT
ATOM      1  C   UNL     1       5.509   4.424  18.047  0.00  0.00    +0.000 C 
ATOM      2  O   UNL     1       6.235   4.424  19.039  0.00  0.00    +0.000 OA
ATOM      3  N   UNL     1       4.148   4.241  18.136  0.00  0.00    +0.000 N 
ATOM      4  H   UNL     1       3.586   4.333  17.295  0.00  0.00    +0.000 HD
ENDROOT
BRANCH   1  11
ATOM      5  C   UNL     1       7.143   5.461  16.355  0.00  0.00    +0.000 A 
ATOM      6  N   UNL     1       7.619   5.577  15.093  0.00  0.00    +0.000 NA
ATOM      7  C   UNL     1       7.066   4.806  14.158  0.00  0.00    +0.000 A 
ATOM      8  N   UNL     1       7.526   4.923  12.866  0.00  0.00    +0.000 N 
ATOM      9  N   UNL     1       6.064   3.957  14.378  0.00  0.00    +0.000 NA
ATOM     10  C   UNL     1       5.614   3.872  15.653  0.00  0.00    +0.000 A 
ATOM     11  C   UNL     1       6.117   4.609  16.708  0.00  0.00    +0.000 A 
ATOM     12  H   UNL     1       7.923   5.838  12.711  0.00  0.00    +0.000 HD
ATOM     13  H   UNL     1       6.817   4.610  12.217  0.00  0.00    +0.000 HD
BRANCH   5  15
ATOM     14  C   UNL     1       7.258   7.600  17.320  0.00  0.00    +0.000 C 
ATOM     15  O   UNL     1       7.724   6.250  17.335  0.00  0.00    +0.000 OA
ENDBRANCH   5  15
ENDBRANCH   1  11
BRANCH   3  16
ATOM     16  C   UNL     1       3.466   4.057  19.419  0.00  0.00    +0.000 C 
ATOM     17  C   UNL     1       3.389   2.559  19.824  0.00  0.00    +0.000 C 
ATOM     18  N   UNL     1       1.990   2.067  19.910  0.00  0.00    +0.000 NA
ATOM     19  C   UNL     1       1.303   2.808  20.992  0.00  0.00    +0.000 C 
ATOM     20  C   UNL     1       1.388   4.330  20.778  0.00  0.00    +0.000 C 
ATOM     21  C   UNL     1       2.025   4.626  19.405  0.00  0.00    +0.000 C 
ATOM     22  C   UNL     1       1.197   3.862  18.358  0.00  0.00    +0.000 C 
ATOM     23  C   UNL     1       1.301   2.353  18.632  0.00  0.00    +0.000 C 
ENDBRANCH   3  16
TORSDOF 3
ENDMDL
MODEL 2
REMARK VINA RESULT:      -7.9      1.257      1.296
REMARK  Name = 
REMARK  4 active torsions:
REMARK  status: ('A' for Active; 'I' for Inactive)
REMARK    1  A    between atoms: C_1  and  O_2
REMARK    2  A    between atoms: O_2  and  C_3
REMARK    3  A    between atoms: C_9  and  C_10
REMARK    4  A    between atoms: N_12  and  C_13
REMARK                            x       y       z     vdW  Elec       q    Type
REMARK                         _______ _______ _______ _____ _____    ______ ____
ROOT
ATOM      1  C   UNL     1       4.638   5.309  17.995  0.00  0.00    +0.000 C 
ATOM      2  O   UNL     1       4.156   6.395  18.309  0.00  0.00    +0.000 OA
ATOM      3  N   UNL     1       4.323   4.147  18.661  0.00  0.00    +0.000 N 
ATOM      4  H   UNL     1       4.685   3.266  18.307  0.00  0.00    +0.000 HD
ENDROOT
BRANCH   1  11
ATOM      5  C   UNL     1       6.925   4.849  16.913  0.00  0.00    +0.000 A 
ATOM      6  N   UNL     1       7.741   4.847  15.833  0.00  0.00    +0.000 NA
ATOM      7  C   UNL     1       7.217   5.236  14.671  0.00  0.00    +0.000 A 
ATOM      8  N   UNL     1       8.036   5.257  13.566  0.00  0.00    +0.000 N 
ATOM      9  N   UNL     1       5.962   5.652  14.513  0.00  0.00    +0.000 NA
ATOM     10  C   UNL     1       5.179   5.643  15.619  0.00  0.00    +0.000 A 
ATOM     11  C   UNL     1       5.605   5.247  16.873  0.00  0.00    +0.000 A 
ATOM     12  H   UNL     1       9.002   5.367  13.839  0.00  0.00    +0.000 HD
ATOM     13  H   UNL     1       7.672   5.902  12.878  0.00  0.00    +0.000 HD
BRANCH   5  15
ATOM     14  C   UNL     1       7.907   5.511  18.943  0.00  0.00    +0.000 C 
ATOM     15  O   UNL     1       7.460   4.431  18.121  0.00  0.00    +0.000 OA
ENDBRANCH   5  15
ENDBRANCH   1  11
BRANCH   3  16
ATOM     16  C   UNL     1       3.374   4.119  19.776  0.00  0.00    +0.000 C 
ATOM     17  C   UNL     1       3.308   2.719  20.446  0.00  0.00    +0.000 C 
ATOM     18  N   UNL     1       1.966   2.094  20.323  0.00  0.00    +0.000 NA
ATOM     19  C   UNL     1       0.994   2.934  21.060  0.00  0.00    +0.000 C 
ATOM     20  C   UNL     1       1.020   4.393  20.569  0.00  0.00    +0.000 C 
ATOM     21  C   UNL     1       1.940   4.509  19.337  0.00  0.00    +0.000 C 
ATOM     22  C   UNL     1       1.437   3.481  18.309  0.00  0.00    +0.000 C 
ATOM     23  C   UNL     1       1.578   2.067  18.895  0.00  0.00    +0.000 C 
ENDBRANCH   3  16
TORSDOF 3
ENDMDL
MODEL 3
REMARK VINA RESULT:      -7.2      1.334      1.696
REMARK  Name = 
REMARK  4 active torsions:
REMARK  status: ('A' for Active; 'I' for Inactive)
REMARK    1  A    between atoms: C_1  and  O_2
REMARK    2  A    between atoms: O_2  and  C_3
REMARK    3  A    between atoms: C_9  and  C_10
REMARK    4  A    between atoms: N_12  and  C_13
REMARK                            x       y       z     vdW  Elec       q    Type
REMARK                         _______ _______ _______ _____ _____    ______ ____
ROOT
ATOM      1  C   UNL     1       4.177   5.551  17.257  0.00  0.00    +0.000 C 
ATOM      2  O   UNL     1       3.728   6.645  17.591  0.00  0.00    +0.000 OA
ATOM      3  N   UNL     1       3.656   4.369  17.731  0.00  0.00    +0.000 N 
ATOM      4  H   UNL     1       4.011   3.493  17.358  0.00  0.00    +0.000 HD
ENDROOT
BRANCH   1  11
ATOM      5  C   UNL     1       6.606   5.980  16.529  0.00  0.00    +0.000 A 
ATOM      6  N   UNL     1       7.591   5.905  15.604  0.00  0.00    +0.000 NA
ATOM      7  C   UNL     1       7.298   5.315  14.446  0.00  0.00    +0.000 A 
ATOM      8  N   UNL     1       8.283   5.245  13.488  0.00  0.00    +0.000 N 
ATOM      9  N   UNL     1       6.100   4.825  14.132  0.00  0.00    +0.000 NA
ATOM     10  C   UNL     1       5.141   4.922  15.083  0.00  0.00    +0.000 A 
ATOM     11  C   UNL     1       5.329   5.499  16.325  0.00  0.00    +0.000 A 
ATOM     12  H   UNL     1       8.957   5.987  13.613  0.00  0.00    +0.000 HD
ATOM     13  H   UNL     1       7.868   5.146  12.571  0.00  0.00    +0.000 HD
BRANCH   5  15
ATOM     14  C   UNL     1       7.643   7.796  17.599  0.00  0.00    +0.000 C 
ATOM     15  O   UNL     1       6.908   6.580  17.741  0.00  0.00    +0.000 OA
ENDBRANCH   5  15
ENDBRANCH   1  11
BRANCH   3  16
ATOM     16  C   UNL     1       2.516   4.331  18.650  0.00  0.00    +0.000 C 
ATOM     17  C   UNL     1       2.934   4.673  20.106  0.00  0.00    +0.000 C 
ATOM     18  N   UNL     1       2.712   3.539  21.040  0.00  0.00    +0.000 NA
ATOM     19  C   UNL     1       1.258   3.262  21.097  0.00  0.00    +0.000 C 
ATOM     20  C   UNL     1       0.676   3.004  19.696  0.00  0.00    +0.000 C 
ATOM     21  C   UNL     1       1.818   2.948  18.662  0.00  0.00    +0.000 C 
ATOM     22  C   UNL     1       2.817   1.889  19.161  0.00  0.00    +0.000 C 
ATOM     23  C   UNL     1       3.399   2.340  20.511  0.00  0.00    +0.000 C 
ENDBRANCH   3  16
TORSDOF 3
ENDMDL
MODEL 4
REMARK VINA RESULT:      -7.2      1.389      1.537
REMARK  Name = 
REMARK  4 active torsions:
REMARK  status: ('A' for Active; 'I' for Inactive)
REMARK    1  A    between atoms: C_1  and  O_2
REMARK    2  A    between atoms: O_2  and  C_3
REMARK    3  A    between atoms: C_9  and  C_10
REMARK    4  A    between atoms: N_12  and  C_13
REMARK                            x       y       z     vdW  Elec       q    Type
REMARK                         _______ _______ _______ _____ _____    ______ ____
ROOT
ATOM      1  C   UNL     1       5.535   4.386  18.472  0.00  0.00    +0.000 C 
ATOM      2  O   UNL     1       6.278   4.544  19.438  0.00  0.00    +0.000 OA
ATOM      3  N   UNL     1       4.273   3.850  18.599  0.00  0.00    +0.000 N 
ATOM      4  H   UNL     1       3.671   3.819  17.782  0.00  0.00    +0.000 HD
ENDROOT
BRANCH   1  11
ATOM      5  C   UNL     1       5.375   5.554  16.188  0.00  0.00    +0.000 A 
ATOM      6  N   UNL     1       5.885   5.831  14.965  0.00  0.00    +0.000 NA
ATOM      7  C   UNL     1       7.082   5.322  14.674  0.00  0.00    +0.000 A 
ATOM      8  N   UNL     1       7.609   5.579  13.429  0.00  0.00    +0.000 N 
ATOM      9  N   UNL     1       7.786   4.540  15.490  0.00  0.00    +0.000 NA
ATOM     10  C   UNL     1       7.239   4.284  16.702  0.00  0.00    +0.000 A 
ATOM     11  C   UNL     1       6.015   4.768  17.123  0.00  0.00    +0.000 A 
ATOM     12  H   UNL     1       6.874   5.768  12.762  0.00  0.00    +0.000 HD
ATOM     13  H   UNL     1       8.284   4.866  13.185  0.00  0.00    +0.000 HD
BRANCH   5  15
ATOM     14  C   UNL     1       4.224   7.272  17.306  0.00  0.00    +0.000 C 
ATOM     15  O   UNL     1       4.137   6.093  16.503  0.00  0.00    +0.000 OA
ENDBRANCH   5  15
ENDBRANCH   1  11
BRANCH   3  16
ATOM     16  C   UNL     1       3.720   3.452  19.895  0.00  0.00    +0.000 C 
ATOM     17  C   UNL     1       3.045   2.054  19.832  0.00  0.00    +0.000 C 
ATOM     18  N   UNL     1       1.589   2.115  20.120  0.00  0.00    +0.000 NA
ATOM     19  C   UNL     1       1.410   2.581  21.514  0.00  0.00    +0.000 C 
ATOM     20  C   UNL     1       2.122   3.924  21.757  0.00  0.00    +0.000 C 
ATOM     21  C   UNL     1       2.676   4.467  20.424  0.00  0.00    +0.000 C 
ATOM     22  C   UNL     1       1.492   4.522  19.442  0.00  0.00    +0.000 C 
ATOM     23  C   UNL     1       0.960   3.098  19.210  0.00  0.00    +0.000 C 
ENDBRANCH   3  16
TORSDOF 3
ENDMDL
MODEL 5
REMARK VINA RESULT:      -7.0      1.004      1.098
REMARK  Name = 
REMARK  4 active torsions:
REMARK  status: ('A' for Active; 'I' for Inactive)
REMARK    1  A    between atoms: C_1  and  O_2
REMARK    2  A    between atoms: O_2  and  C_3
REMARK    3  A    between atoms: C_9  and  C_10
REMARK    4  A    between atoms: N_12  and  C_13
REMARK                            x       y       z     vdW  Elec       q    Type
REMARK                         _______ _______ _______ _____ _____    ______ ____
ROOT
ATOM      1  C   UNL     1       4.948   3.973  17.286  0.00  0.00    +0.000 C 
ATOM      2  O   UNL     1       4.462   2.845  17.251  0.00  0.00    +0.000 OA
ATOM      3  N   UNL     1       4.691   4.851  18.315  0.00  0.00    +0.000 N 
ATOM      4  H   UNL     1       5.185   5.738  18.336  0.00  0.00    +0.000 HD
ENDROOT
BRANCH   1  11
ATOM      5  C   UNL     1       6.900   5.280  16.240  0.00  0.00    +0.000 A 
ATOM      6  N   UNL     1       7.634   5.642  15.162  0.00  0.00    +0.000 NA
ATOM      7  C   UNL     1       7.300   5.109  13.988  0.00  0.00    +0.000 A 
ATOM      8  N   UNL     1       8.025   5.479  12.879  0.00  0.00    +0.000 N 
ATOM      9  N   UNL     1       6.280   4.273  13.804  0.00  0.00    +0.000 NA
ATOM     10  C   UNL     1       5.567   3.938  14.907  0.00  0.00    +0.000 A 
ATOM     11  C   UNL     1       5.828   4.414  16.177  0.00  0.00    +0.000 A 
ATOM     12  H   UNL     1       8.441   6.390  13.011  0.00  0.00    +0.000 HD
ATOM     13  H   UNL     1       7.474   5.338  12.042  0.00  0.00    +0.000 HD
BRANCH   5  15
ATOM     14  C   UNL     1       7.362   7.244  17.444  0.00  0.00    +0.000 C 
ATOM     15  O   UNL     1       7.252   5.820  17.467  0.00  0.00    +0.000 OA
ENDBRANCH   5  15
ENDBRANCH   1  11
BRANCH   3  16
ATOM     16  C   UNL     1       3.839   4.494  19.452  0.00  0.00    +0.000 C 
ATOM     17  C   UNL     1       3.256   3.061  19.311  0.00  0.00    +0.000 C 
ATOM     18  N   UNL     1       1.773   3.059  19.214  0.00  0.00    +0.000 NA
ATOM     19  C   UNL     1       1.225   3.590  20.483  0.00  0.00    +0.000 C 
ATOM     20  C   UNL     1       1.800   4.980  20.811  0.00  0.00    +0.000 C 
ATOM     21  C   UNL     1       2.656   5.479  19.630  0.00  0.00    +0.000 C 
ATOM     22  C   UNL     1       1.764   5.418  18.378  0.00  0.00    +0.000 C 
ATOM     23  C   UNL     1       1.363   3.957  18.112  0.00  0.00    +0.000 C 
ENDBRANCH   3  16
TORSDOF 3
ENDMDL
MODEL 6
REMARK VINA RESULT:      -7.0      1.420      1.777
REMARK  Name = 
REMARK  4 active torsions:
REMARK  status: ('A' for Active; 'I' for Inactive)
REMARK    1  A    between atoms: C_1  and  O_2
REMARK    2  A    between atoms: O_2  and  C_3
REMARK    3  A    between atoms: C_9  and  C_10
REMARK    4  A    between atoms: N_12  and  C_13
REMARK                            x       y       z     vdW  Elec       q    Type
REMARK                         _______ _______ _______ _____ _____    ______ ____
ROOT
ATOM      1  C   UNL     1       4.357   3.580  17.153  0.00  0.00    +0.000 C 
ATOM      2  O   UNL     1       3.228   3.437  16.689  0.00  0.00    +0.000 OA
ATOM      3  N   UNL     1       4.668   3.224  18.446  0.00  0.00    +0.000 N 
ATOM      4  H   UNL     1       5.635   3.286  18.750  0.00  0.00    +0.000 HD
ENDROOT
BRANCH   1  11
ATOM      5  C   UNL     1       6.311   5.167  16.630  0.00  0.00    +0.000 A 
ATOM      6  N   UNL     1       7.235   5.658  15.772  0.00  0.00    +0.000 NA
ATOM      7  C   UNL     1       7.282   5.123  14.552  0.00  0.00    +0.000 A 
ATOM      8  N   UNL     1       8.204   5.622  13.661  0.00  0.00    +0.000 N 
ATOM      9  N   UNL     1       6.464   4.166  14.118  0.00  0.00    +0.000 NA
ATOM     10  C   UNL     1       5.551   3.704  15.006  0.00  0.00    +0.000 A 
ATOM     11  C   UNL     1       5.417   4.169  16.301  0.00  0.00    +0.000 A 
ATOM     12  H   UNL     1       8.445   6.575  13.892  0.00  0.00    +0.000 HD
ATOM     13  H   UNL     1       7.904   5.437  12.713  0.00  0.00    +0.000 HD
BRANCH   5  15
ATOM     14  C   UNL     1       7.515   5.625  18.595  0.00  0.00    +0.000 C 
ATOM     15  O   UNL     1       6.268   5.709  17.905  0.00  0.00    +0.000 OA
ENDBRANCH   5  15
ENDBRANCH   1  11
BRANCH   3  16
ATOM     16  C   UNL     1       3.683   2.631  19.352  0.00  0.00    +0.000 C 
ATOM     17  C   UNL     1       2.293   2.477  18.675  0.00  0.00    +0.000 C 
ATOM     18  N   UNL     1       1.245   3.291  19.342  0.00  0.00    +0.000 NA
ATOM     19  C   UNL     1       1.074   2.787  20.723  0.00  0.00    +0.000 C 
ATOM     20  C   UNL     1       2.406   2.782  21.494  0.00  0.00    +0.000 C 
ATOM     21  C   UNL     1       3.498   3.464  20.645  0.00  0.00    +0.000 C 
ATOM     22  C   UNL     1       2.964   4.857  20.269  0.00  0.00    +0.000 C 
ATOM     23  C   UNL     1       1.699   4.698  19.408  0.00  0.00    +0.000 C 
ENDBRANCH   3  16
TORSDOF 3
ENDMDL
MODEL 7
REMARK VINA RESULT:      -6.7      2.118      6.739
REMARK  Name = 
REMARK  4 active torsions:
REMARK  status: ('A' for Active; 'I' for Inactive)
REMARK    1  A    between atoms: C_1  and  O_2
REMARK    2  A    between atoms: O_2  and  C_3
REMARK    3  A    between atoms: C_9  and  C_10
REMARK    4  A    between atoms: N_12  and  C_13
REMARK                            x       y       z     vdW  Elec       q    Type
REMARK                         _______ _______ _______ _____ _____    ______ ____
ROOT
ATOM      1  C   UNL     1       3.898   2.903  18.003  0.00  0.00    +0.000 C 
ATOM      2  O   UNL     1       3.459   2.319  17.015  0.00  0.00    +0.000 OA
ATOM      3  N   UNL     1       5.055   3.648  17.961  0.00  0.00    +0.000 N 
ATOM      4  H   UNL     1       5.327   4.177  18.784  0.00  0.00    +0.000 HD
ENDROOT
BRANCH   1  11
ATOM      5  C   UNL     1       3.685   2.473  20.529  0.00  0.00    +0.000 A 
ATOM      6  N   UNL     1       2.933   2.372  21.649  0.00  0.00    +0.000 NA
ATOM      7  C   UNL     1       1.628   2.615  21.533  0.00  0.00    +0.000 A 
ATOM      8  N   UNL     1       0.845   2.500  22.659  0.00  0.00    +0.000 N 
ATOM      9  N   UNL     1       1.018   2.918  20.388  0.00  0.00    +0.000 NA
ATOM     10  C   UNL     1       1.805   3.005  19.290  0.00  0.00    +0.000 A 
ATOM     11  C   UNL     1       3.170   2.791  19.289  0.00  0.00    +0.000 A 
ATOM     12  H   UNL     1       1.266   1.868  23.324  0.00  0.00    +0.000 HD
ATOM     13  H   UNL     1      -0.116   2.324  22.395  0.00  0.00    +0.000 HD
BRANCH   5  15
ATOM     14  C   UNL     1       5.350   0.930  21.138  0.00  0.00    +0.000 C 
ATOM     15  O   UNL     1       5.046   2.237  20.646  0.00  0.00    +0.000 OA
ENDBRANCH   5  15
ENDBRANCH   1  11
BRANCH   3  16
ATOM     16  C   UNL     1       5.832   3.815  16.730  0.00  0.00    +0.000 C 
ATOM     17  C   UNL     1       7.226   4.442  17.007  0.00  0.00    +0.000 C 
ATOM     18  N   UNL     1       7.392   5.765  16.352  0.00  0.00    +0.000 NA
ATOM     19  C   UNL     1       7.326   5.570  14.886  0.00  0.00    +0.000 C 
ATOM     20  C   UNL     1       6.028   4.857  14.468  0.00  0.00    +0.000 C 
ATOM     21  C   UNL     1       5.102   4.704  15.692  0.00  0.00    +0.000 C 
ATOM     22  C   UNL     1       4.914   6.111  16.285  0.00  0.00    +0.000 C 
ATOM     23  C   UNL     1       6.275   6.646  16.761  0.00  0.00    +0.000 C 
ENDBRANCH   3  16
TORSDOF 3
ENDMDL
MODEL 8
REMARK VINA RESULT:      -6.7      2.198      6.797
REMARK  Name = 
REMARK  4 active torsions:
REMARK  status: ('A' for Active; 'I' for Inactive)
REMARK    1  A    between atoms: C_1  and  O_2
REMARK    2  A    between atoms: O_2  and  C_3
REMARK    3  A    between atoms: C_9  and  C_10
REMARK    4  A    between atoms: N_12  and  C_13
REMARK                            x       y       z     vdW  Elec       q    Type
REMARK                         _______ _______ _______ _____ _____    ______ ____
ROOT
ATOM      1  C   UNL     1       4.080   2.634  18.110  0.00  0.00    +0.000 C 
ATOM      2  O   UNL     1       4.122   1.652  17.372  0.00  0.00    +0.000 OA
ATOM      3  N   UNL     1       4.878   3.737  17.908  0.00  0.00    +0.000 N 
ATOM      4  H   UNL     1       4.743   4.553  18.497  0.00  0.00    +0.000 HD
ENDROOT
BRANCH   1  11
ATOM      5  C   UNL     1       1.792   2.860  19.261  0.00  0.00    +0.000 A 
ATOM      6  N   UNL     1       1.027   2.856  20.377  0.00  0.00    +0.000 NA
ATOM      7  C   UNL     1       1.635   2.593  21.534  0.00  0.00    +0.000 A 
ATOM      8  N   UNL     1       0.876   2.601  22.681  0.00  0.00    +0.000 N 
ATOM      9  N   UNL     1       2.941   2.366  21.662  0.00  0.00    +0.000 NA
ATOM     10  C   UNL     1       3.672   2.384  20.522  0.00  0.00    +0.000 A 
ATOM     11  C   UNL     1       3.151   2.628  19.266  0.00  0.00    +0.000 A 
ATOM     12  H   UNL     1       0.063   3.189  22.567  0.00  0.00    +0.000 HD
ATOM     13  H   UNL     1       1.465   2.775  23.485  0.00  0.00    +0.000 HD
BRANCH   5  15
ATOM     14  C   UNL     1       1.319   4.468  17.613  0.00  0.00    +0.000 C 
ATOM     15  O   UNL     1       1.162   3.118  18.053  0.00  0.00    +0.000 OA
ENDBRANCH   5  15
ENDBRANCH   1  11
BRANCH   3  16
ATOM     16  C   UNL     1       5.818   3.827  16.788  0.00  0.00    +0.000 C 
ATOM     17  C   UNL     1       7.146   4.519  17.201  0.00  0.00    +0.000 C 
ATOM     18  N   UNL     1       7.376   5.788  16.464  0.00  0.00    +0.000 NA
ATOM     19  C   UNL     1       7.522   5.471  15.026  0.00  0.00    +0.000 C 
ATOM     20  C   UNL     1       6.311   4.684  14.494  0.00  0.00    +0.000 C 
ATOM     21  C   UNL     1       5.225   4.603  15.586  0.00  0.00    +0.000 C 
ATOM     22  C   UNL     1       4.926   6.047  16.022  0.00  0.00    +0.000 C 
ATOM     23  C   UNL     1       6.195   6.663  16.636  0.00  0.00    +0.000 C 
ENDBRANCH   3  16
TORSDOF 3
ENDMDL
MODEL 9
REMARK VINA RESULT:      -6.6      1.349      1.786
REMARK  Name = 
REMARK  4 active torsions:
REMARK  status: ('A' for Active; 'I' for Inactive)
REMARK    1  A    between atoms: C_1  and  O_2
REMARK    2  A    between atoms: O_2  and  C_3
REMARK    3  A    between atoms: C_9  and  C_10
REMARK    4  A    between atoms: N_12  and  C_13
REMARK                            x       y       z     vdW  Elec       q    Type
REMARK                         _______ _______ _______ _____ _____    ______ ____
ROOT
ATOM      1  C   UNL     1       4.393   5.036  17.887  0.00  0.00    +0.000 C 
ATOM      2  O   UNL     1       4.607   5.567  18.974  0.00  0.00    +0.000 OA
ATOM      3  N   UNL     1       3.220   4.368  17.616  0.00  0.00    +0.000 N 
ATOM      4  H   UNL     1       3.062   4.020  16.674  0.00  0.00    +0.000 HD
ENDROOT
BRANCH   1  11
ATOM      5  C   UNL     1       6.783   4.832  16.961  0.00  0.00    +0.000 A 
ATOM      6  N   UNL     1       7.667   4.940  15.941  0.00  0.00    +0.000 NA
ATOM      7  C   UNL     1       7.188   5.311  14.754  0.00  0.00    +0.000 A 
ATOM      8  N   UNL     1       8.075   5.442  13.711  0.00  0.00    +0.000 N 
ATOM      9  N   UNL     1       5.911   5.607  14.517  0.00  0.00    +0.000 NA
ATOM     10  C   UNL     1       5.060   5.490  15.564  0.00  0.00    +0.000 A 
ATOM     11  C   UNL     1       5.436   5.100  16.835  0.00  0.00    +0.000 A 
ATOM     12  H   UNL     1       9.004   5.638  14.055  0.00  0.00    +0.000 HD
ATOM     13  H   UNL     1       7.697   6.070  13.013  0.00  0.00    +0.000 HD
BRANCH   5  15
ATOM     14  C   UNL     1       7.913   5.487  18.913  0.00  0.00    +0.000 C 
ATOM     15  O   UNL     1       7.272   4.433  18.194  0.00  0.00    +0.000 OA
ENDBRANCH   5  15
ENDBRANCH   1  11
BRANCH   3  16
ATOM     16  C   UNL     1       2.137   4.262  18.595  0.00  0.00    +0.000 C 
ATOM     17  C   UNL     1       2.578   4.753  20.001  0.00  0.00    +0.000 C 
ATOM     18  N   UNL     1       2.537   3.670  21.018  0.00  0.00    +0.000 NA
ATOM     19  C   UNL     1       1.132   3.230  21.172  0.00  0.00    +0.000 C 
ATOM     20  C   UNL     1       0.520   2.806  19.824  0.00  0.00    +0.000 C 
ATOM     21  C   UNL     1       1.612   2.811  18.735  0.00  0.00    +0.000 C 
ATOM     22  C   UNL     1       2.753   1.915  19.247  0.00  0.00    +0.000 C 
ATOM     23  C   UNL     1       3.339   2.525  20.531  0.00  0.00    +0.000 C 
ENDBRANCH   3  16
TORSDOF 3
ENDMDL
