MODEL 1
REMARK VINA RESULT:      -8.6      0.000      0.000
REMARK  Name = 
REMARK  5 active torsions:
REMARK  status: ('A' for Active; 'I' for Inactive)
REMARK    1  A    between atoms: C_2  and  O_3
REMARK    2  A    between atoms: C_2  and  C_4
REMARK    3  A    between atoms: C_4  and  C_6
REMARK    4  A    between atoms: C_6  and  C_18
REMARK    5  A    between atoms: C_7  and  C_8
REMARK                            x       y       z     vdW  Elec       q    Type
REMARK                         _______ _______ _______ _____ _____    ______ ____
ROOT
ATOM      1  C   UNL     1       5.194   5.426  16.798  0.00  0.00    +0.000 C 
ATOM      2  C   UNL     1       3.877   5.211  16.982  0.00  0.00    +0.000 C 
ENDROOT
BRANCH   2   3
ATOM      3  C   UNL     1       3.014   5.552  18.128  0.00  0.00    +0.000 A 
ATOM      4  C   UNL     1       2.892   6.905  18.477  0.00  0.00    +0.000 A 
ATOM      5  C   UNL     1       2.268   7.272  19.668  0.00  0.00    +0.000 A 
ATOM      6  C   UNL     1       1.763   6.293  20.521  0.00  0.00    +0.000 A 
ATOM      7  C   UNL     1       1.840   4.935  20.181  0.00  0.00    +0.000 A 
ATOM      8  C   UNL     1       1.319   3.960  21.050  0.00  0.00    +0.000 A 
ATOM      9  C   UNL     1       1.375   2.606  20.726  0.00  0.00    +0.000 A 
ATOM     10  C   UNL     1       1.956   2.208  19.529  0.00  0.00    +0.000 A 
ATOM     11  C   UNL     1       2.497   3.163  18.664  0.00  0.00    +0.000 A 
ATOM     12  C   UNL     1       2.457   4.545  18.964  0.00  0.00    +0.000 A 
ENDBRANCH   2   3
BRANCH   1  13
ATOM     13  C   UNL     1       5.768   5.023  15.505  0.00  0.00    +0.000 A 
ATOM     14  C   UNL     1       7.096   5.292  15.205  0.00  0.00    +0.000 A 
ATOM     15  C   UNL     1       7.611   4.812  14.008  0.00  0.00    +0.000 A 
ATOM     16  C   UNL     1       6.785   4.099  13.135  0.00  0.00    +0.000 A 
ATOM     17  C   UNL     1       7.277   3.584  11.923  0.00  0.00    +0.000 A 
ATOM     18  C   UNL     1       6.437   2.877  11.067  0.00  0.00    +0.000 A 
ATOM     19  C   UNL     1       5.103   2.694  11.414  0.00  0.00    +0.000 A 
ATOM     20  C   UNL     1       4.618   3.207  12.621  0.00  0.00    +0.000 A 
ATOM     21  C   UNL     1       5.436   3.900  13.504  0.00  0.00    +0.000 A 
ATOM     22  N   UNL     1       4.938   4.347  14.676  0.00  0.00    +0.000 NA
ENDBRANCH   1  13
BRANCH   1  23
ATOM     23  C   UNL     1       6.102   6.012  17.821  0.00  0.00    +0.000 C 
ATOM     24  O   UNL     1       6.432   7.193  17.883  0.00  0.00    +0.000 OA
BRANCH  23  26
ATOM     25  O   UNL     1       7.120   5.494  19.961  0.00  0.00    +0.000 OA
ATOM     26  C   UNL     1       6.533   5.100  18.974  0.00  0.00    +0.000 C 
BRANCH  26  27
ATOM     27  O   UNL     1       6.153   3.824  18.750  0.00  0.00    +0.000 OA
ATOM     28  H   UNL     1       6.934   3.230  18.789  0.00  0.00    +0.000 HD
ENDBRANCH  26  27
ENDBRANCH  23  26
ENDBRANCH   1  23
TORSDOF 5
ENDMDL
MODEL 2
REMARK VINA RESULT:      -8.5      2.928      7.743
REMARK  Name = 
REMARK  5 active torsions:
REMARK  status: ('A' for Active; 'I' for Inactive)
REMARK    1  A    between atoms: C_2  and  O_3
REMARK    2  A    between atoms: C_2  and  C_4
REMARK    3  A    between atoms: C_4  and  C_6
REMARK    4  A    between atoms: C_6  and  C_18
REMARK    5  A    between atoms: C_7  and  C_8
REMARK                            x       y       z     vdW  Elec       q    Type
REMARK                         _______ _______ _______ _____ _____    ______ ____
ROOT
ATOM      1  C   UNL     1       3.116   6.620  18.673  0.00  0.00    +0.000 C 
ATOM      2  C   UNL     1       4.425   6.853  18.455  0.00  0.00    +0.000 C 
ENDROOT
BRANCH   2   3
ATOM      3  C   UNL     1       5.517   5.907  18.162  0.00  0.00    +0.000 A 
ATOM      4  C   UNL     1       6.421   5.610  19.193  0.00  0.00    +0.000 A 
ATOM      5  C   UNL     1       7.587   4.895  18.923  0.00  0.00    +0.000 A 
ATOM      6  C   UNL     1       7.861   4.473  17.625  0.00  0.00    +0.000 A 
ATOM      7  C   UNL     1       6.958   4.725  16.581  0.00  0.00    +0.000 A 
ATOM      8  C   UNL     1       7.247   4.286  15.277  0.00  0.00    +0.000 A 
ATOM      9  C   UNL     1       6.359   4.517  14.229  0.00  0.00    +0.000 A 
ATOM     10  C   UNL     1       5.170   5.193  14.470  0.00  0.00    +0.000 A 
ATOM     11  C   UNL     1       4.878   5.654  15.756  0.00  0.00    +0.000 A 
ATOM     12  C   UNL     1       5.759   5.437  16.841  0.00  0.00    +0.000 A 
ENDBRANCH   2   3
BRANCH   1  13
ATOM     13  C   UNL     1       2.249   7.791  18.880  0.00  0.00    +0.000 A 
ATOM     14  C   UNL     1       1.868   8.588  17.810  0.00  0.00    +0.000 A 
ATOM     15  C   UNL     1       0.978   9.627  18.048  0.00  0.00    +0.000 A 
ATOM     16  C   UNL     1       0.511   9.857  19.345  0.00  0.00    +0.000 A 
ATOM     17  C   UNL     1      -0.404  10.889  19.619  0.00  0.00    +0.000 A 
ATOM     18  C   UNL     1      -0.856  11.101  20.918  0.00  0.00    +0.000 A 
ATOM     19  C   UNL     1      -0.387  10.291  21.947  0.00  0.00    +0.000 A 
ATOM     20  C   UNL     1       0.522   9.265  21.670  0.00  0.00    +0.000 A 
ATOM     21  C   UNL     1       0.977   9.017  20.380  0.00  0.00    +0.000 A 
ATOM     22  N   UNL     1       1.825   7.994  20.149  0.00  0.00    +0.000 NA
ENDBRANCH   1  13
BRANCH   1  23
ATOM     23  C   UNL     1       2.501   5.266  18.745  0.00  0.00    +0.000 C 
ATOM     24  O   UNL     1       1.948   4.689  17.815  0.00  0.00    +0.000 OA
BRANCH  23  26
ATOM     25  O   UNL     1       3.083   3.316  20.066  0.00  0.00    +0.000 OA
ATOM     26  C   UNL     1       2.716   4.474  20.039  0.00  0.00    +0.000 C 
BRANCH  26  27
ATOM     27  O   UNL     1       2.463   5.238  21.123  0.00  0.00    +0.000 OA
ATOM     28  H   UNL     1       2.455   6.187  20.871  0.00  0.00    +0.000 HD
ENDBRANCH  26  27
ENDBRANCH  23  26
ENDBRANCH   1  23
TORSDOF 5
ENDMDL
MODEL 3
REMARK VINA RESULT:      -8.2      2.946      7.753
REMARK  Name = 
REMARK  5 active torsions:
REMARK  status: ('A' for Active; 'I' for Inactive)
REMARK    1  A    between atoms: C_2  and  O_3
REMARK    2  A    between atoms: C_2  and  C_4
REMARK    3  A    between atoms: C_4  and  C_6
REMARK    4  A    between atoms: C_6  and  C_18
REMARK    5  A    between atoms: C_7  and  C_8
REMARK                            x       y       z     vdW  Elec       q    Type
REMARK                         _______ _______ _______ _____ _____    ______ ____
ROOT
ATOM      1  C   UNL     1       3.178   6.587  18.821  0.00  0.00    +0.000 C 
ATOM      2  C   UNL     1       4.428   6.823  18.379  0.00  0.00    +0.000 C 
ENDROOT
BRANCH   2   3
ATOM      3  C   UNL     1       5.527   5.878  18.103  0.00  0.00    +0.000 A 
ATOM      4  C   UNL     1       6.455   5.636  19.125  0.00  0.00    +0.000 A 
ATOM      5  C   UNL     1       7.624   4.925  18.862  0.00  0.00    +0.000 A 
ATOM      6  C   UNL     1       7.877   4.453  17.576  0.00  0.00    +0.000 A 
ATOM      7  C   UNL     1       6.951   4.649  16.542  0.00  0.00    +0.000 A 
ATOM      8  C   UNL     1       7.218   4.160  15.252  0.00  0.00    +0.000 A 
ATOM      9  C   UNL     1       6.305   4.336  14.214  0.00  0.00    +0.000 A 
ATOM     10  C   UNL     1       5.114   5.007  14.451  0.00  0.00    +0.000 A 
ATOM     11  C   UNL     1       4.842   5.518  15.723  0.00  0.00    +0.000 A 
ATOM     12  C   UNL     1       5.747   5.357  16.798  0.00  0.00    +0.000 A 
ENDBRANCH   2   3
BRANCH   1  13
ATOM     13  C   UNL     1       2.277   7.745  18.941  0.00  0.00    +0.000 A 
ATOM     14  C   UNL     1       1.878   8.452  17.816  0.00  0.00    +0.000 A 
ATOM     15  C   UNL     1       0.958   9.479  17.976  0.00  0.00    +0.000 A 
ATOM     16  C   UNL     1       0.479   9.788  19.252  0.00  0.00    +0.000 A 
ATOM     17  C   UNL     1      -0.466  10.810  19.449  0.00  0.00    +0.000 A 
ATOM     18  C   UNL     1      -0.930  11.102  20.729  0.00  0.00    +0.000 A 
ATOM     19  C   UNL     1      -0.443  10.382  21.814  0.00  0.00    +0.000 A 
ATOM     20  C   UNL     1       0.496   9.365  21.614  0.00  0.00    +0.000 A 
ATOM     21  C   UNL     1       0.964   9.039  20.346  0.00  0.00    +0.000 A 
ATOM     22  N   UNL     1       1.842   8.026  20.192  0.00  0.00    +0.000 NA
ENDBRANCH   1  13
BRANCH   1  23
ATOM     23  C   UNL     1       2.663   5.249  19.219  0.00  0.00    +0.000 C 
ATOM     24  O   UNL     1       2.453   4.885  20.372  0.00  0.00    +0.000 OA
BRANCH  23  26
ATOM     25  O   UNL     1       1.222   4.500  17.417  0.00  0.00    +0.000 OA
ATOM     26  C   UNL     1       2.214   4.313  18.093  0.00  0.00    +0.000 C 
BRANCH  26  27
ATOM     27  O   UNL     1       3.073   3.281  17.948  0.00  0.00    +0.000 OA
ATOM     28  H   UNL     1       3.931   3.497  18.375  0.00  0.00    +0.000 HD
ENDBRANCH  26  27
ENDBRANCH  23  26
ENDBRANCH   1  23
TORSDOF 5
ENDMDL
MODEL 4
REMARK VINA RESULT:      -8.2      5.550      8.156
REMARK  Name = 
REMARK  5 active torsions:
REMARK  status: ('A' for Active; 'I' for Inactive)
REMARK    1  A    between atoms: C_2  and  O_3
REMARK    2  A    between atoms: C_2  and  C_4
REMARK    3  A    between atoms: C_4  and  C_6
REMARK    4  A    between atoms: C_6  and  C_18
REMARK    5  A    between atoms: C_7  and  C_8
REMARK                            x       y       z     vdW  Elec       q    Type
REMARK                         _______ _______ _______ _____ _____    ______ ____
ROOT
ATOM      1  C   UNL     1       0.588   9.471  20.267  0.00  0.00    +0.000 C 
ATOM      2  C   UNL     1       0.272  10.685  19.775  0.00  0.00    +0.000 C 
ENDROOT
BRANCH   2   3
ATOM      3  C   UNL     1      -0.536  11.765  20.372  0.00  0.00    +0.000 A 
ATOM      4  C   UNL     1       0.005  12.464  21.461  0.00  0.00    +0.000 A 
ATOM      5  C   UNL     1      -0.786  13.344  22.197  0.00  0.00    +0.000 A 
ATOM      6  C   UNL     1      -2.123  13.532  21.854  0.00  0.00    +0.000 A 
ATOM      7  C   UNL     1      -2.682  12.874  20.749  0.00  0.00    +0.000 A 
ATOM      8  C   UNL     1      -4.031  13.080  20.412  0.00  0.00    +0.000 A 
ATOM      9  C   UNL     1      -4.602  12.444  19.312  0.00  0.00    +0.000 A 
ATOM     10  C   UNL     1      -3.831  11.590  18.535  0.00  0.00    +0.000 A 
ATOM     11  C   UNL     1      -2.495  11.357  18.868  0.00  0.00    +0.000 A 
ATOM     12  C   UNL     1      -1.885  11.987  19.979  0.00  0.00    +0.000 A 
ENDBRANCH   2   3
BRANCH   1  13
ATOM     13  C   UNL     1       1.477   8.626  19.453  0.00  0.00    +0.000 A 
ATOM     14  C   UNL     1       1.885   9.037  18.192  0.00  0.00    +0.000 A 
ATOM     15  C   UNL     1       2.793   8.243  17.504  0.00  0.00    +0.000 A 
ATOM     16  C   UNL     1       3.251   7.055  18.079  0.00  0.00    +0.000 A 
ATOM     17  C   UNL     1       4.184   6.237  17.419  0.00  0.00    +0.000 A 
ATOM     18  C   UNL     1       4.627   5.056  18.010  0.00  0.00    +0.000 A 
ATOM     19  C   UNL     1       4.130   4.686  19.255  0.00  0.00    +0.000 A 
ATOM     20  C   UNL     1       3.204   5.504  19.910  0.00  0.00    +0.000 A 
ATOM     21  C   UNL     1       2.757   6.697  19.353  0.00  0.00    +0.000 A 
ATOM     22  N   UNL     1       1.891   7.476  20.034  0.00  0.00    +0.000 NA
ENDBRANCH   1  13
BRANCH   1  23
ATOM     23  C   UNL     1       0.078   8.924  21.553  0.00  0.00    +0.000 C 
ATOM     24  O   UNL     1      -0.800   8.074  21.663  0.00  0.00    +0.000 OA
BRANCH  23  26
ATOM     25  O   UNL     1       0.256   9.692  23.848  0.00  0.00    +0.000 OA
ATOM     26  C   UNL     1       0.817   9.342  22.829  0.00  0.00    +0.000 C 
BRANCH  26  27
ATOM     27  O   UNL     1       2.154   9.245  22.668  0.00  0.00    +0.000 OA
ATOM     28  H   UNL     1       2.529  10.125  22.445  0.00  0.00    +0.000 HD
ENDBRANCH  26  27
ENDBRANCH  23  26
ENDBRANCH   1  23
TORSDOF 5
ENDMDL
MODEL 5
REMARK VINA RESULT:      -8.1      4.861      7.453
REMARK  Name = 
REMARK  5 active torsions:
REMARK  status: ('A' for Active; 'I' for Inactive)
REMARK    1  A    between atoms: C_2  and  O_3
REMARK    2  A    between atoms: C_2  and  C_4
REMARK    3  A    between atoms: C_4  and  C_6
REMARK    4  A    between atoms: C_6  and  C_18
REMARK    5  A    between atoms: C_7  and  C_8
REMARK                            x       y       z     vdW  Elec       q    Type
REMARK                         _______ _______ _______ _____ _____    ______ ____
ROOT
ATOM      1  C   UNL     1       1.004   8.579  20.248  0.00  0.00    +0.000 C 
ATOM      2  C   UNL     1       0.922   9.560  19.328  0.00  0.00    +0.000 C 
ENDROOT
BRANCH   2   3
ATOM      3  C   UNL     1       0.196  10.843  19.377  0.00  0.00    +0.000 A 
ATOM      4  C   UNL     1       0.795  11.908  20.066  0.00  0.00    +0.000 A 
ATOM      5  C   UNL     1       0.073  13.071  20.328  0.00  0.00    +0.000 A 
ATOM      6  C   UNL     1      -1.251  13.180  19.908  0.00  0.00    +0.000 A 
ATOM      7  C   UNL     1      -1.863  12.145  19.187  0.00  0.00    +0.000 A 
ATOM      8  C   UNL     1      -3.198  12.273  18.764  0.00  0.00    +0.000 A 
ATOM      9  C   UNL     1      -3.821  11.261  18.037  0.00  0.00    +0.000 A 
ATOM     10  C   UNL     1      -3.119  10.104  17.727  0.00  0.00    +0.000 A 
ATOM     11  C   UNL     1      -1.799   9.952  18.157  0.00  0.00    +0.000 A 
ATOM     12  C   UNL     1      -1.138  10.960  18.897  0.00  0.00    +0.000 A 
ENDBRANCH   2   3
BRANCH   1  13
ATOM     13  C   UNL     1       1.869   7.430  19.932  0.00  0.00    +0.000 A 
ATOM     14  C   UNL     1       1.829   6.280  20.706  0.00  0.00    +0.000 A 
ATOM     15  C   UNL     1       2.600   5.194  20.312  0.00  0.00    +0.000 A 
ATOM     16  C   UNL     1       3.404   5.292  19.174  0.00  0.00    +0.000 A 
ATOM     17  C   UNL     1       4.184   4.208  18.736  0.00  0.00    +0.000 A 
ATOM     18  C   UNL     1       4.979   4.326  17.599  0.00  0.00    +0.000 A 
ATOM     19  C   UNL     1       5.005   5.531  16.905  0.00  0.00    +0.000 A 
ATOM     20  C   UNL     1       4.227   6.607  17.343  0.00  0.00    +0.000 A 
ATOM     21  C   UNL     1       3.409   6.513  18.463  0.00  0.00    +0.000 A 
ATOM     22  N   UNL     1       2.645   7.563  18.831  0.00  0.00    +0.000 NA
ENDBRANCH   1  13
BRANCH   1  23
ATOM     23  C   UNL     1       0.260   8.567  21.537  0.00  0.00    +0.000 C 
ATOM     24  O   UNL     1      -0.764   7.928  21.758  0.00  0.00    +0.000 OA
BRANCH  23  26
ATOM     25  O   UNL     1       0.287   9.752  23.654  0.00  0.00    +0.000 OA
ATOM     26  C   UNL     1       0.912   9.285  22.723  0.00  0.00    +0.000 C 
BRANCH  26  27
ATOM     27  O   UNL     1       2.257   9.305  22.598  0.00  0.00    +0.000 OA
ATOM     28  H   UNL     1       2.671   9.505  23.465  0.00  0.00    +0.000 HD
ENDBRANCH  26  27
ENDBRANCH  23  26
ENDBRANCH   1  23
TORSDOF 5
ENDMDL
MODEL 6
REMARK VINA RESULT:      -8.1      1.035      2.515
REMARK  Name = 
REMARK  5 active torsions:
REMARK  status: ('A' for Active; 'I' for Inactive)
REMARK    1  A    between atoms: C_2  and  O_3
REMARK    2  A    between atoms: C_2  and  C_4
REMARK    3  A    between atoms: C_4  and  C_6
REMARK    4  A    between atoms: C_6  and  C_18
REMARK    5  A    between atoms: C_7  and  C_8
REMARK                            x       y       z     vdW  Elec       q    Type
REMARK                         _______ _______ _______ _____ _____    ______ ____
ROOT
ATOM      1  C   UNL     1       5.580   5.508  16.835  0.00  0.00    +0.000 C 
ATOM      2  C   UNL     1       4.310   5.248  17.200  0.00  0.00    +0.000 C 
ENDROOT
BRANCH   2   3
ATOM      3  C   UNL     1       3.594   5.592  18.443  0.00  0.00    +0.000 A 
ATOM      4  C   UNL     1       3.460   4.594  19.419  0.00  0.00    +0.000 A 
ATOM      5  C   UNL     1       2.620   4.788  20.514  0.00  0.00    +0.000 A 
ATOM      6  C   UNL     1       1.906   5.977  20.643  0.00  0.00    +0.000 A 
ATOM      7  C   UNL     1       2.048   7.006  19.701  0.00  0.00    +0.000 A 
ATOM      8  C   UNL     1       1.326   8.203  19.850  0.00  0.00    +0.000 A 
ATOM      9  C   UNL     1       1.461   9.242  18.930  0.00  0.00    +0.000 A 
ATOM     10  C   UNL     1       2.318   9.096  17.848  0.00  0.00    +0.000 A 
ATOM     11  C   UNL     1       3.027   7.905  17.674  0.00  0.00    +0.000 A 
ATOM     12  C   UNL     1       2.912   6.831  18.589  0.00  0.00    +0.000 A 
ENDBRANCH   2   3
BRANCH   1  13
ATOM     13  C   UNL     1       5.993   5.086  15.487  0.00  0.00    +0.000 A 
ATOM     14  C   UNL     1       7.285   5.319  15.037  0.00  0.00    +0.000 A 
ATOM     15  C   UNL     1       7.647   4.823  13.792  0.00  0.00    +0.000 A 
ATOM     16  C   UNL     1       6.710   4.129  13.022  0.00  0.00    +0.000 A 
ATOM     17  C   UNL     1       7.047   3.598  11.765  0.00  0.00    +0.000 A 
ATOM     18  C   UNL     1       6.098   2.910  11.014  0.00  0.00    +0.000 A 
ATOM     19  C   UNL     1       4.808   2.762  11.512  0.00  0.00    +0.000 A 
ATOM     20  C   UNL     1       4.476   3.291  12.763  0.00  0.00    +0.000 A 
ATOM     21  C   UNL     1       5.408   3.966  13.544  0.00  0.00    +0.000 A 
ATOM     22  N   UNL     1       5.057   4.429  14.762  0.00  0.00    +0.000 NA
ENDBRANCH   1  13
BRANCH   1  23
ATOM     23  C   UNL     1       6.591   6.161  17.710  0.00  0.00    +0.000 C 
ATOM     24  O   UNL     1       6.844   7.362  17.727  0.00  0.00    +0.000 OA
BRANCH  23  26
ATOM     25  O   UNL     1       7.154   5.490  19.973  0.00  0.00    +0.000 OA
ATOM     26  C   UNL     1       7.255   5.287  18.779  0.00  0.00    +0.000 C 
BRANCH  26  27
ATOM     27  O   UNL     1       7.936   4.266  18.217  0.00  0.00    +0.000 OA
ATOM     28  H   UNL     1       8.766   4.600  17.811  0.00  0.00    +0.000 HD
ENDBRANCH  26  27
ENDBRANCH  23  26
ENDBRANCH   1  23
TORSDOF 5
ENDMDL
MODEL 7
REMARK VINA RESULT:      -8.1      4.940      7.794
REMARK  Name = 
REMARK  5 active torsions:
REMARK  status: ('A' for Active; 'I' for Inactive)
REMARK    1  A    between atoms: C_2  and  O_3
REMARK    2  A    between atoms: C_2  and  C_4
REMARK    3  A    between atoms: C_4  and  C_6
REMARK    4  A    between atoms: C_6  and  C_18
REMARK    5  A    between atoms: C_7  and  C_8
REMARK                            x       y       z     vdW  Elec       q    Type
REMARK                         _______ _______ _______ _____ _____    ______ ____
ROOT
ATOM      1  C   UNL     1       1.092   8.452  20.222  0.00  0.00    +0.000 C 
ATOM      2  C   UNL     1       1.109   9.419  19.284  0.00  0.00    +0.000 C 
ENDROOT
BRANCH   2   3
ATOM      3  C   UNL     1       0.494  10.759  19.298  0.00  0.00    +0.000 A 
ATOM      4  C   UNL     1       1.200  11.798  19.921  0.00  0.00    +0.000 A 
ATOM      5  C   UNL     1       0.586  13.028  20.153  0.00  0.00    +0.000 A 
ATOM      6  C   UNL     1      -0.737  13.230  19.767  0.00  0.00    +0.000 A 
ATOM      7  C   UNL     1      -1.456  12.221  19.111  0.00  0.00    +0.000 A 
ATOM      8  C   UNL     1      -2.788  12.444  18.721  0.00  0.00    +0.000 A 
ATOM      9  C   UNL     1      -3.517  11.458  18.059  0.00  0.00    +0.000 A 
ATOM     10  C   UNL     1      -2.924  10.235  17.779  0.00  0.00    +0.000 A 
ATOM     11  C   UNL     1      -1.607   9.990  18.177  0.00  0.00    +0.000 A 
ATOM     12  C   UNL     1      -0.841  10.969  18.852  0.00  0.00    +0.000 A 
ENDBRANCH   2   3
BRANCH   1  13
ATOM     13  C   UNL     1       1.862   7.229  19.941  0.00  0.00    +0.000 A 
ATOM     14  C   UNL     1       2.843   7.220  18.960  0.00  0.00    +0.000 A 
ATOM     15  C   UNL     1       3.600   6.067  18.797  0.00  0.00    +0.000 A 
ATOM     16  C   UNL     1       3.343   4.951  19.598  0.00  0.00    +0.000 A 
ATOM     17  C   UNL     1       4.101   3.773  19.472  0.00  0.00    +0.000 A 
ATOM     18  C   UNL     1       3.829   2.672  20.280  0.00  0.00    +0.000 A 
ATOM     19  C   UNL     1       2.793   2.742  21.206  0.00  0.00    +0.000 A 
ATOM     20  C   UNL     1       2.043   3.915  21.329  0.00  0.00    +0.000 A 
ATOM     21  C   UNL     1       2.303   5.037  20.549  0.00  0.00    +0.000 A 
ATOM     22  N   UNL     1       1.580   6.162  20.725  0.00  0.00    +0.000 NA
ENDBRANCH   1  13
BRANCH   1  23
ATOM     23  C   UNL     1       0.329   8.527  21.497  0.00  0.00    +0.000 C 
ATOM     24  O   UNL     1      -0.738   7.964  21.719  0.00  0.00    +0.000 OA
BRANCH  23  26
ATOM     25  O   UNL     1       0.402   9.744  23.595  0.00  0.00    +0.000 OA
ATOM     26  C   UNL     1       1.009   9.236  22.673  0.00  0.00    +0.000 C 
BRANCH  26  27
ATOM     27  O   UNL     1       2.353   9.196  22.553  0.00  0.00    +0.000 OA
ATOM     28  H   UNL     1       2.750   9.997  22.958  0.00  0.00    +0.000 HD
ENDBRANCH  26  27
ENDBRANCH  23  26
ENDBRANCH   1  23
TORSDOF 5
ENDMDL
MODEL 8
REMARK VINA RESULT:      -8.1      0.459      1.104
REMARK  Name = 
REMARK  5 active torsions:
REMARK  status: ('A' for Active; 'I' for Inactive)
REMARK    1  A    between atoms: C_2  and  O_3
REMARK    2  A    between atoms: C_2  and  C_4
REMARK    3  A    between atoms: C_4  and  C_6
REMARK    4  A    between atoms: C_6  and  C_18
REMARK    5  A    between atoms: C_7  and  C_8
REMARK                            x       y       z     vdW  Elec       q    Type
REMARK                         _______ _______ _______ _____ _____    ______ ____
ROOT
ATOM      1  C   UNL     1       5.208   5.137  17.019  0.00  0.00    +0.000 C 
ATOM      2  C   UNL     1       3.867   5.240  17.094  0.00  0.00    +0.000 C 
ENDROOT
BRANCH   2   3
ATOM      3  C   UNL     1       3.007   5.566  18.247  0.00  0.00    +0.000 A 
ATOM      4  C   UNL     1       2.875   6.916  18.605  0.00  0.00    +0.000 A 
ATOM      5  C   UNL     1       2.254   7.270  19.802  0.00  0.00    +0.000 A 
ATOM      6  C   UNL     1       1.762   6.281  20.650  0.00  0.00    +0.000 A 
ATOM      7  C   UNL     1       1.848   4.926  20.301  0.00  0.00    +0.000 A 
ATOM      8  C   UNL     1       1.340   3.941  21.166  0.00  0.00    +0.000 A 
ATOM      9  C   UNL     1       1.407   2.589  20.833  0.00  0.00    +0.000 A 
ATOM     10  C   UNL     1       1.985   2.205  19.631  0.00  0.00    +0.000 A 
ATOM     11  C   UNL     1       2.514   3.170  18.770  0.00  0.00    +0.000 A 
ATOM     12  C   UNL     1       2.463   4.549  19.079  0.00  0.00    +0.000 A 
ENDBRANCH   2   3
BRANCH   1  13
ATOM     13  C   UNL     1       5.789   4.856  15.696  0.00  0.00    +0.000 A 
ATOM     14  C   UNL     1       7.109   5.179  15.420  0.00  0.00    +0.000 A 
ATOM     15  C   UNL     1       7.632   4.812  14.187  0.00  0.00    +0.000 A 
ATOM     16  C   UNL     1       6.822   4.155  13.258  0.00  0.00    +0.000 A 
ATOM     17  C   UNL     1       7.323   3.753  12.008  0.00  0.00    +0.000 A 
ATOM     18  C   UNL     1       6.498   3.099  11.096  0.00  0.00    +0.000 A 
ATOM     19  C   UNL     1       5.169   2.857  11.427  0.00  0.00    +0.000 A 
ATOM     20  C   UNL     1       4.675   3.257  12.673  0.00  0.00    +0.000 A 
ATOM     21  C   UNL     1       5.479   3.894  13.610  0.00  0.00    +0.000 A 
ATOM     22  N   UNL     1       4.973   4.231  14.815  0.00  0.00    +0.000 NA
ENDBRANCH   1  13
BRANCH   1  23
ATOM     23  C   UNL     1       6.129   5.259  18.182  0.00  0.00    +0.000 C 
ATOM     24  O   UNL     1       6.337   4.383  19.016  0.00  0.00    +0.000 OA
BRANCH  23  26
ATOM     25  O   UNL     1       6.735   7.552  17.673  0.00  0.00    +0.000 OA
ATOM     26  C   UNL     1       6.999   6.517  18.252  0.00  0.00    +0.000 C 
BRANCH  26  27
ATOM     27  O   UNL     1       8.071   6.323  19.050  0.00  0.00    +0.000 OA
ATOM     28  H   UNL     1       8.586   5.548  18.737  0.00  0.00    +0.000 HD
ENDBRANCH  26  27
ENDBRANCH  23  26
ENDBRANCH   1  23
TORSDOF 5
ENDMDL
MODEL 9
REMARK VINA RESULT:      -8.1      2.885      7.761
REMARK  Name = 
REMARK  5 active torsions:
REMARK  status: ('A' for Active; 'I' for Inactive)
REMARK    1  A    between atoms: C_2  and  O_3
REMARK    2  A    between atoms: C_2  and  C_4
REMARK    3  A    between atoms: C_4  and  C_6
REMARK    4  A    between atoms: C_6  and  C_18
REMARK    5  A    between atoms: C_7  and  C_8
REMARK                            x       y       z     vdW  Elec       q    Type
REMARK                         _______ _______ _______ _____ _____    ______ ____
ROOT
ATOM      1  C   UNL     1       2.929   6.950  18.110  0.00  0.00    +0.000 C 
ATOM      2  C   UNL     1       4.067   7.316  17.489  0.00  0.00    +0.000 C 
ENDROOT
BRANCH   2   3
ATOM      3  C   UNL     1       5.071   6.491  16.791  0.00  0.00    +0.000 A 
ATOM      4  C   UNL     1       4.813   6.131  15.461  0.00  0.00    +0.000 A 
ATOM      5  C   UNL     1       5.612   5.186  14.819  0.00  0.00    +0.000 A 
ATOM      6  C   UNL     1       6.671   4.591  15.500  0.00  0.00    +0.000 A 
ATOM      7  C   UNL     1       6.974   4.958  16.820  0.00  0.00    +0.000 A 
ATOM      8  C   UNL     1       8.051   4.353  17.491  0.00  0.00    +0.000 A 
ATOM      9  C   UNL     1       8.374   4.711  18.798  0.00  0.00    +0.000 A 
ATOM     10  C   UNL     1       7.622   5.676  19.453  0.00  0.00    +0.000 A 
ATOM     11  C   UNL     1       6.536   6.272  18.808  0.00  0.00    +0.000 A 
ATOM     12  C   UNL     1       6.181   5.931  17.482  0.00  0.00    +0.000 A 
ENDBRANCH   2   3
BRANCH   1  13
ATOM     13  C   UNL     1       2.090   8.024  18.666  0.00  0.00    +0.000 A 
ATOM     14  C   UNL     1       1.526   8.984  17.838  0.00  0.00    +0.000 A 
ATOM     15  C   UNL     1       0.672   9.921  18.403  0.00  0.00    +0.000 A 
ATOM     16  C   UNL     1       0.421   9.890  19.777  0.00  0.00    +0.000 A 
ATOM     17  C   UNL     1      -0.452  10.813  20.380  0.00  0.00    +0.000 A 
ATOM     18  C   UNL     1      -0.688  10.765  21.751  0.00  0.00    +0.000 A 
ATOM     19  C   UNL     1      -0.044   9.804  22.524  0.00  0.00    +0.000 A 
ATOM     20  C   UNL     1       0.822   8.888  21.920  0.00  0.00    +0.000 A 
ATOM     21  C   UNL     1       1.063   8.899  20.551  0.00  0.00    +0.000 A 
ATOM     22  N   UNL     1       1.877   7.973  20.002  0.00  0.00    +0.000 NA
ENDBRANCH   1  13
BRANCH   1  23
ATOM     23  C   UNL     1       2.485   5.541  18.294  0.00  0.00    +0.000 C 
ATOM     24  O   UNL     1       1.706   4.942  17.558  0.00  0.00    +0.000 OA
BRANCH  23  26
ATOM     25  O   UNL     1       2.981   4.909  20.583  0.00  0.00    +0.000 OA
ATOM     26  C   UNL     1       3.175   4.733  19.397  0.00  0.00    +0.000 C 
BRANCH  26  27
ATOM     27  O   UNL     1       3.998   3.800  18.871  0.00  0.00    +0.000 OA
ATOM     28  H   UNL     1       4.931   4.013  19.092  0.00  0.00    +0.000 HD
ENDBRANCH  26  27
ENDBRANCH  23  26
ENDBRANCH   1  23
TORSDOF 5
ENDMDL
