MODEL 1
REMARK VINA RESULT:      -7.8      0.000      0.000
REMARK  Name = 
REMARK  3 active torsions:
REMARK  status: ('A' for Active; 'I' for Inactive)
REMARK    1  A    between atoms: C_4  and  C_5
REMARK    2  A    between atoms: C_8  and  C_9
REMARK    3  A    between atoms: C_11  and  C_12
REMARK                            x       y       z     vdW  Elec       q    Type
REMARK                         _______ _______ _______ _____ _____    ______ ____
ROOT
ATOM      1  C   UNL     1       1.051   9.267  19.769  0.00  0.00    +0.000 A 
ATOM      2  N   UNL     1       1.099   9.848  18.560  0.00  0.00    +0.000 NA
ATOM      3  O   UNL     1       1.928   9.015  17.821  0.00  0.00    +0.000 OA
ATOM      4  C   UNL     1       2.288   7.980  18.639  0.00  0.00    +0.000 A 
ATOM      5  N   UNL     1       1.768   8.092  19.846  0.00  0.00    +0.000 NA
ENDROOT
BRANCH   1   9
ATOM      6  C   UNL     1      -1.111  10.870  23.079  0.00  0.00    +0.000 A 
ATOM      7  C   UNL     1      -0.362   9.708  23.234  0.00  0.00    +0.000 A 
ATOM      8  C   UNL     1       0.369   9.201  22.157  0.00  0.00    +0.000 A 
ATOM      9  C   UNL     1       0.345   9.842  20.909  0.00  0.00    +0.000 A 
ATOM     10  C   UNL     1      -0.400  11.022  20.771  0.00  0.00    +0.000 A 
ATOM     11  C   UNL     1      -1.124  11.533  21.853  0.00  0.00    +0.000 A 
ENDBRANCH   1   9
BRANCH   4  12
ATOM     12  C   UNL     1       3.115   6.900  18.200  0.00  0.00    +0.000 A 
ATOM     13  N   UNL     1       3.879   6.924  17.123  0.00  0.00    +0.000 NA
ATOM     14  C   UNL     1       4.445   5.668  17.113  0.00  0.00    +0.000 A 
ATOM     15  N   UNL     1       4.036   4.884  18.122  0.00  0.00    +0.000 NA
ATOM     16  O   UNL     1       3.175   5.697  18.848  0.00  0.00    +0.000 OA
BRANCH  14  17
ATOM     17  C   UNL     1       5.402   5.250  16.102  0.00  0.00    +0.000 A 
ATOM     18  C   UNL     1       5.065   4.327  15.110  0.00  0.00    +0.000 A 
ATOM     19  C   UNL     1       6.009   3.966  14.148  0.00  0.00    +0.000 A 
ATOM     20  C   UNL     1       7.269   4.541  14.211  0.00  0.00    +0.000 A 
ATOM     21  N   UNL     1       7.634   5.433  15.155  0.00  0.00    +0.000 NA
ATOM     22  C   UNL     1       6.698   5.768  16.076  0.00  0.00    +0.000 A 
ENDBRANCH  14  17
ENDBRANCH   4  12
TORSDOF 3
ENDMDL
MODEL 2
REMARK VINA RESULT:      -7.6      5.001      7.119
REMARK  Name = 
REMARK  3 active torsions:
REMARK  status: ('A' for Active; 'I' for Inactive)
REMARK    1  A    between atoms: C_4  and  C_5
REMARK    2  A    between atoms: C_8  and  C_9
REMARK    3  A    between atoms: C_11  and  C_12
REMARK                            x       y       z     vdW  Elec       q    Type
REMARK                         _______ _______ _______ _____ _____    ______ ____
ROOT
ATOM      1  C   UNL     1       8.430   9.328  18.138  0.00  0.00    +0.000 A 
ATOM      2  N   UNL     1       8.993   8.383  18.908  0.00  0.00    +0.000 NA
ATOM      3  O   UNL     1       8.208   7.259  18.684  0.00  0.00    +0.000 OA
ATOM      4  C   UNL     1       7.253   7.612  17.772  0.00  0.00    +0.000 A 
ATOM      5  N   UNL     1       7.354   8.875  17.405  0.00  0.00    +0.000 NA
ENDROOT
BRANCH   1   9
ATOM      6  C   UNL     1       9.707  13.399  18.170  0.00  0.00    +0.000 A 
ATOM      7  C   UNL     1      10.521  12.409  18.714  0.00  0.00    +0.000 A 
ATOM      8  C   UNL     1      10.114  11.073  18.675  0.00  0.00    +0.000 A 
ATOM      9  C   UNL     1       8.882  10.714  18.108  0.00  0.00    +0.000 A 
ATOM     10  C   UNL     1       8.080  11.719  17.548  0.00  0.00    +0.000 A 
ATOM     11  C   UNL     1       8.492  13.056  17.579  0.00  0.00    +0.000 A 
ENDBRANCH   1   9
BRANCH   4  12
ATOM     12  C   UNL     1       6.284   6.688  17.272  0.00  0.00    +0.000 A 
ATOM     13  N   UNL     1       5.468   5.969  18.023  0.00  0.00    +0.000 NA
ATOM     14  C   UNL     1       4.761   5.232  17.099  0.00  0.00    +0.000 A 
ATOM     15  N   UNL     1       5.132   5.457  15.830  0.00  0.00    +0.000 NA
ATOM     16  O   UNL     1       6.121   6.428  15.939  0.00  0.00    +0.000 OA
BRANCH  14  17
ATOM     17  C   UNL     1       3.708   4.305  17.480  0.00  0.00    +0.000 A 
ATOM     18  C   UNL     1       2.412   4.742  17.761  0.00  0.00    +0.000 A 
ATOM     19  C   UNL     1       1.427   3.817  18.108  0.00  0.00    +0.000 A 
ATOM     20  C   UNL     1       1.772   2.476  18.166  0.00  0.00    +0.000 A 
ATOM     21  N   UNL     1       3.013   2.015  17.906  0.00  0.00    +0.000 NA
ATOM     22  C   UNL     1       3.951   2.934  17.570  0.00  0.00    +0.000 A 
ENDBRANCH  14  17
ENDBRANCH   4  12
TORSDOF 3
ENDMDL
MODEL 3
REMARK VINA RESULT:      -7.5      5.840      7.404
REMARK  Name = 
REMARK  3 active torsions:
REMARK  status: ('A' for Active; 'I' for Inactive)
REMARK    1  A    between atoms: C_4  and  C_5
REMARK    2  A    between atoms: C_8  and  C_9
REMARK    3  A    between atoms: C_11  and  C_12
REMARK                            x       y       z     vdW  Elec       q    Type
REMARK                         _______ _______ _______ _____ _____    ______ ____
ROOT
ATOM      1  C   UNL     1       8.619   9.661  18.354  0.00  0.00    +0.000 A 
ATOM      2  N   UNL     1       7.709  10.080  17.460  0.00  0.00    +0.000 NA
ATOM      3  O   UNL     1       7.051   8.916  17.082  0.00  0.00    +0.000 OA
ATOM      4  C   UNL     1       7.600   7.893  17.805  0.00  0.00    +0.000 A 
ATOM      5  N   UNL     1       8.565   8.306  18.604  0.00  0.00    +0.000 NA
ENDROOT
BRANCH   1   9
ATOM      6  C   UNL     1      11.563  12.140  20.196  0.00  0.00    +0.000 A 
ATOM      7  C   UNL     1      11.723  11.731  18.875  0.00  0.00    +0.000 A 
ATOM      8  C   UNL     1      10.743  10.945  18.265  0.00  0.00    +0.000 A 
ATOM      9  C   UNL     1       9.601  10.543  18.973  0.00  0.00    +0.000 A 
ATOM     10  C   UNL     1       9.443  10.977  20.298  0.00  0.00    +0.000 A 
ATOM     11  C   UNL     1      10.421  11.772  20.905  0.00  0.00    +0.000 A 
ENDBRANCH   1   9
BRANCH   4  12
ATOM     12  C   UNL     1       7.141   6.544  17.705  0.00  0.00    +0.000 A 
ATOM     13  N   UNL     1       5.994   6.098  18.186  0.00  0.00    +0.000 NA
ATOM     14  C   UNL     1       6.021   4.758  17.867  0.00  0.00    +0.000 A 
ATOM     15  N   UNL     1       7.142   4.375  17.238  0.00  0.00    +0.000 NA
ATOM     16  O   UNL     1       7.873   5.551  17.114  0.00  0.00    +0.000 OA
BRANCH  14  17
ATOM     17  C   UNL     1       4.924   3.858  18.182  0.00  0.00    +0.000 A 
ATOM     18  C   UNL     1       4.066   3.371  17.194  0.00  0.00    +0.000 A 
ATOM     19  C   UNL     1       3.035   2.496  17.538  0.00  0.00    +0.000 A 
ATOM     20  C   UNL     1       2.892   2.136  18.869  0.00  0.00    +0.000 A 
ATOM     21  N   UNL     1       3.697   2.587  19.853  0.00  0.00    +0.000 NA
ATOM     22  C   UNL     1       4.691   3.435  19.491  0.00  0.00    +0.000 A 
ENDBRANCH  14  17
ENDBRANCH   4  12
TORSDOF 3
ENDMDL
MODEL 4
REMARK VINA RESULT:      -7.5      4.958      7.155
REMARK  Name = 
REMARK  3 active torsions:
REMARK  status: ('A' for Active; 'I' for Inactive)
REMARK    1  A    between atoms: C_4  and  C_5
REMARK    2  A    between atoms: C_8  and  C_9
REMARK    3  A    between atoms: C_11  and  C_12
REMARK                            x       y       z     vdW  Elec       q    Type
REMARK                         _______ _______ _______ _____ _____    ______ ____
ROOT
ATOM      1  C   UNL     1       8.429   9.372  18.066  0.00  0.00    +0.000 A 
ATOM      2  N   UNL     1       8.961   8.462  18.897  0.00  0.00    +0.000 NA
ATOM      3  O   UNL     1       8.183   7.329  18.696  0.00  0.00    +0.000 OA
ATOM      4  C   UNL     1       7.263   7.641  17.734  0.00  0.00    +0.000 A 
ATOM      5  N   UNL     1       7.380   8.886  17.314  0.00  0.00    +0.000 NA
ENDROOT
BRANCH   1   9
ATOM      6  C   UNL     1       9.738  13.431  17.971  0.00  0.00    +0.000 A 
ATOM      7  C   UNL     1      10.621  12.423  18.345  0.00  0.00    +0.000 A 
ATOM      8  C   UNL     1      10.200  11.092  18.346  0.00  0.00    +0.000 A 
ATOM      9  C   UNL     1       8.885  10.755  17.991  0.00  0.00    +0.000 A 
ATOM     10  C   UNL     1       8.009  11.779  17.599  0.00  0.00    +0.000 A 
ATOM     11  C   UNL     1       8.436  13.111  17.590  0.00  0.00    +0.000 A 
ENDBRANCH   1   9
BRANCH   4  12
ATOM     12  C   UNL     1       6.311   6.696  17.241  0.00  0.00    +0.000 A 
ATOM     13  N   UNL     1       5.466   6.014  17.992  0.00  0.00    +0.000 NA
ATOM     14  C   UNL     1       4.792   5.235  17.077  0.00  0.00    +0.000 A 
ATOM     15  N   UNL     1       5.212   5.402  15.814  0.00  0.00    +0.000 NA
ATOM     16  O   UNL     1       6.198   6.376  15.916  0.00  0.00    +0.000 OA
BRANCH  14  17
ATOM     17  C   UNL     1       3.723   4.328  17.461  0.00  0.00    +0.000 A 
ATOM     18  C   UNL     1       3.909   2.944  17.491  0.00  0.00    +0.000 A 
ATOM     19  C   UNL     1       2.861   2.111  17.881  0.00  0.00    +0.000 A 
ATOM     20  C   UNL     1       1.650   2.691  18.227  0.00  0.00    +0.000 A 
ATOM     21  N   UNL     1       1.429   4.021  18.207  0.00  0.00    +0.000 NA
ATOM     22  C   UNL     1       2.465   4.808  17.826  0.00  0.00    +0.000 A 
ENDBRANCH  14  17
ENDBRANCH   4  12
TORSDOF 3
ENDMDL
MODEL 5
REMARK VINA RESULT:      -7.4      5.086      7.184
REMARK  Name = 
REMARK  3 active torsions:
REMARK  status: ('A' for Active; 'I' for Inactive)
REMARK    1  A    between atoms: C_4  and  C_5
REMARK    2  A    between atoms: C_8  and  C_9
REMARK    3  A    between atoms: C_11  and  C_12
REMARK                            x       y       z     vdW  Elec       q    Type
REMARK                         _______ _______ _______ _____ _____    ______ ____
ROOT
ATOM      1  C   UNL     1       8.395   9.261  18.165  0.00  0.00    +0.000 A 
ATOM      2  N   UNL     1       8.944   8.308  18.935  0.00  0.00    +0.000 NA
ATOM      3  O   UNL     1       8.152   7.191  18.701  0.00  0.00    +0.000 OA
ATOM      4  C   UNL     1       7.206   7.556  17.783  0.00  0.00    +0.000 A 
ATOM      5  N   UNL     1       7.320   8.820  17.422  0.00  0.00    +0.000 NA
ENDROOT
BRANCH   1   9
ATOM      6  C   UNL     1       9.793  13.288  17.988  0.00  0.00    +0.000 A 
ATOM      7  C   UNL     1       8.540  12.962  17.477  0.00  0.00    +0.000 A 
ATOM      8  C   UNL     1       8.072  11.649  17.563  0.00  0.00    +0.000 A 
ATOM      9  C   UNL     1       8.858  10.644  18.145  0.00  0.00    +0.000 A 
ATOM     10  C   UNL     1      10.111  10.989  18.673  0.00  0.00    +0.000 A 
ATOM     11  C   UNL     1      10.575  12.306  18.594  0.00  0.00    +0.000 A 
ENDBRANCH   1   9
BRANCH   4  12
ATOM     12  C   UNL     1       6.233   6.643  17.273  0.00  0.00    +0.000 A 
ATOM     13  N   UNL     1       5.465   5.864  18.014  0.00  0.00    +0.000 NA
ATOM     14  C   UNL     1       4.732   5.167  17.081  0.00  0.00    +0.000 A 
ATOM     15  N   UNL     1       5.042   5.473  15.812  0.00  0.00    +0.000 NA
ATOM     16  O   UNL     1       6.016   6.457  15.935  0.00  0.00    +0.000 OA
BRANCH  14  17
ATOM     17  C   UNL     1       3.714   4.198  17.452  0.00  0.00    +0.000 A 
ATOM     18  C   UNL     1       4.017   2.846  17.629  0.00  0.00    +0.000 A 
ATOM     19  C   UNL     1       3.013   1.952  18.002  0.00  0.00    +0.000 A 
ATOM     20  C   UNL     1       1.729   2.440  18.184  0.00  0.00    +0.000 A 
ATOM     21  N   UNL     1       1.395   3.737  18.020  0.00  0.00    +0.000 NA
ATOM     22  C   UNL     1       2.390   4.585  17.659  0.00  0.00    +0.000 A 
ENDBRANCH  14  17
ENDBRANCH   4  12
TORSDOF 3
ENDMDL
MODEL 6
REMARK VINA RESULT:      -7.4      5.515      7.930
REMARK  Name = 
REMARK  3 active torsions:
REMARK  status: ('A' for Active; 'I' for Inactive)
REMARK    1  A    between atoms: C_4  and  C_5
REMARK    2  A    between atoms: C_8  and  C_9
REMARK    3  A    between atoms: C_11  and  C_12
REMARK                            x       y       z     vdW  Elec       q    Type
REMARK                         _______ _______ _______ _____ _____    ______ ____
ROOT
ATOM      1  C   UNL     1       5.922   6.285  17.229  0.00  0.00    +0.000 A 
ATOM      2  N   UNL     1       6.836   6.022  16.281  0.00  0.00    +0.000 NA
ATOM      3  O   UNL     1       7.799   7.006  16.464  0.00  0.00    +0.000 OA
ATOM      4  C   UNL     1       7.400   7.765  17.530  0.00  0.00    +0.000 A 
ATOM      5  N   UNL     1       6.252   7.355  18.034  0.00  0.00    +0.000 NA
ENDROOT
BRANCH   1   9
ATOM      6  C   UNL     1       2.247   4.138  17.521  0.00  0.00    +0.000 A 
ATOM      7  C   UNL     1       3.379   3.514  17.005  0.00  0.00    +0.000 A 
ATOM      8  C   UNL     1       4.588   4.209  16.938  0.00  0.00    +0.000 A 
ATOM      9  C   UNL     1       4.675   5.541  17.370  0.00  0.00    +0.000 A 
ATOM     10  C   UNL     1       3.531   6.152  17.904  0.00  0.00    +0.000 A 
ATOM     11  C   UNL     1       2.323   5.452  17.979  0.00  0.00    +0.000 A 
ENDBRANCH   1   9
BRANCH   4  12
ATOM     12  C   UNL     1       8.173   8.856  18.033  0.00  0.00    +0.000 A 
ATOM     13  N   UNL     1       8.287  10.034  17.446  0.00  0.00    +0.000 NA
ATOM     14  C   UNL     1       9.138  10.720  18.285  0.00  0.00    +0.000 A 
ATOM     15  N   UNL     1       9.559   9.999  19.335  0.00  0.00    +0.000 NA
ATOM     16  O   UNL     1       8.911   8.779  19.181  0.00  0.00    +0.000 OA
BRANCH  14  17
ATOM     17  C   UNL     1       9.527  12.100  18.044  0.00  0.00    +0.000 A 
ATOM     18  C   UNL     1      10.721  12.423  17.396  0.00  0.00    +0.000 A 
ATOM     19  C   UNL     1      11.049  13.761  17.171  0.00  0.00    +0.000 A 
ATOM     20  C   UNL     1      10.168  14.738  17.606  0.00  0.00    +0.000 A 
ATOM     21  N   UNL     1       9.008  14.467  18.238  0.00  0.00    +0.000 NA
ATOM     22  C   UNL     1       8.713  13.160  18.443  0.00  0.00    +0.000 A 
ENDBRANCH  14  17
ENDBRANCH   4  12
TORSDOF 3
ENDMDL
MODEL 7
REMARK VINA RESULT:      -7.4      2.725      9.408
REMARK  Name = 
REMARK  3 active torsions:
REMARK  status: ('A' for Active; 'I' for Inactive)
REMARK    1  A    between atoms: C_4  and  C_5
REMARK    2  A    between atoms: C_8  and  C_9
REMARK    3  A    between atoms: C_11  and  C_12
REMARK                            x       y       z     vdW  Elec       q    Type
REMARK                         _______ _______ _______ _____ _____    ______ ____
ROOT
ATOM      1  C   UNL     1       2.110   8.198  18.612  0.00  0.00    +0.000 A 
ATOM      2  N   UNL     1       1.759   9.275  17.891  0.00  0.00    +0.000 NA
ATOM      3  O   UNL     1       1.043  10.059  18.786  0.00  0.00    +0.000 OA
ATOM      4  C   UNL     1       1.047   9.403  19.986  0.00  0.00    +0.000 A 
ATOM      5  N   UNL     1       1.695   8.256  19.926  0.00  0.00    +0.000 NA
ENDROOT
BRANCH   1   9
ATOM      6  C   UNL     1       4.247   4.833  17.094  0.00  0.00    +0.000 A 
ATOM      7  C   UNL     1       3.027   4.650  17.739  0.00  0.00    +0.000 A 
ATOM      8  C   UNL     1       2.315   5.756  18.208  0.00  0.00    +0.000 A 
ATOM      9  C   UNL     1       2.822   7.055  18.054  0.00  0.00    +0.000 A 
ATOM     10  C   UNL     1       4.044   7.226  17.386  0.00  0.00    +0.000 A 
ATOM     11  C   UNL     1       4.752   6.118  16.908  0.00  0.00    +0.000 A 
ENDBRANCH   1   9
BRANCH   4  12
ATOM     12  C   UNL     1       0.432   9.937  21.160  0.00  0.00    +0.000 A 
ATOM     13  N   UNL     1      -0.318  11.023  21.192  0.00  0.00    +0.000 NA
ATOM     14  C   UNL     1      -0.647  11.137  22.525  0.00  0.00    +0.000 A 
ATOM     15  N   UNL     1      -0.108  10.182  23.297  0.00  0.00    +0.000 NA
ATOM     16  O   UNL     1       0.587   9.380  22.400  0.00  0.00    +0.000 OA
BRANCH  14  17
ATOM     17  C   UNL     1      -1.506  12.195  23.029  0.00  0.00    +0.000 A 
ATOM     18  C   UNL     1      -2.835  11.956  23.383  0.00  0.00    +0.000 A 
ATOM     19  C   UNL     1      -3.621  12.997  23.879  0.00  0.00    +0.000 A 
ATOM     20  C   UNL     1      -3.049  14.254  24.003  0.00  0.00    +0.000 A 
ATOM     21  N   UNL     1      -1.771  14.526  23.669  0.00  0.00    +0.000 NA
ATOM     22  C   UNL     1      -1.029  13.497  23.191  0.00  0.00    +0.000 A 
ENDBRANCH  14  17
ENDBRANCH   4  12
TORSDOF 3
ENDMDL
MODEL 8
REMARK VINA RESULT:      -7.4      1.798      8.889
REMARK  Name = 
REMARK  3 active torsions:
REMARK  status: ('A' for Active; 'I' for Inactive)
REMARK    1  A    between atoms: C_4  and  C_5
REMARK    2  A    between atoms: C_8  and  C_9
REMARK    3  A    between atoms: C_11  and  C_12
REMARK                            x       y       z     vdW  Elec       q    Type
REMARK                         _______ _______ _______ _____ _____    ______ ____
ROOT
ATOM      1  C   UNL     1       6.063   4.578  15.926  0.00  0.00    +0.000 A 
ATOM      2  N   UNL     1       6.849   4.224  16.955  0.00  0.00    +0.000 NA
ATOM      3  O   UNL     1       6.121   4.599  18.077  0.00  0.00    +0.000 OA
ATOM      4  C   UNL     1       4.939   5.122  17.632  0.00  0.00    +0.000 A 
ATOM      5  N   UNL     1       4.858   5.126  16.315  0.00  0.00    +0.000 NA
ENDROOT
BRANCH   1   9
ATOM      6  C   UNL     1       7.139   4.272  11.809  0.00  0.00    +0.000 A 
ATOM      7  C   UNL     1       7.793   5.182  12.635  0.00  0.00    +0.000 A 
ATOM      8  C   UNL     1       7.460   5.259  13.989  0.00  0.00    +0.000 A 
ATOM      9  C   UNL     1       6.457   4.441  14.529  0.00  0.00    +0.000 A 
ATOM     10  C   UNL     1       5.818   3.516  13.690  0.00  0.00    +0.000 A 
ATOM     11  C   UNL     1       6.159   3.433  12.336  0.00  0.00    +0.000 A 
ENDBRANCH   1   9
BRANCH   4  12
ATOM     12  C   UNL     1       3.916   5.582  18.517  0.00  0.00    +0.000 A 
ATOM     13  N   UNL     1       3.440   6.814  18.547  0.00  0.00    +0.000 NA
ATOM     14  C   UNL     1       2.512   6.766  19.563  0.00  0.00    +0.000 A 
ATOM     15  N   UNL     1       2.426   5.568  20.160  0.00  0.00    +0.000 NA
ATOM     16  O   UNL     1       3.335   4.782  19.462  0.00  0.00    +0.000 OA
BRANCH  14  17
ATOM     17  C   UNL     1       1.703   7.915  19.935  0.00  0.00    +0.000 A 
ATOM     18  C   UNL     1       1.108   8.017  21.195  0.00  0.00    +0.000 A 
ATOM     19  C   UNL     1       0.352   9.145  21.517  0.00  0.00    +0.000 A 
ATOM     20  C   UNL     1       0.212  10.139  20.562  0.00  0.00    +0.000 A 
ATOM     21  N   UNL     1       0.766  10.077  19.334  0.00  0.00    +0.000 NA
ATOM     22  C   UNL     1       1.497   8.971  19.047  0.00  0.00    +0.000 A 
ENDBRANCH  14  17
ENDBRANCH   4  12
TORSDOF 3
ENDMDL
MODEL 9
REMARK VINA RESULT:      -7.4      0.979      1.458
REMARK  Name = 
REMARK  3 active torsions:
REMARK  status: ('A' for Active; 'I' for Inactive)
REMARK    1  A    between atoms: C_4  and  C_5
REMARK    2  A    between atoms: C_8  and  C_9
REMARK    3  A    between atoms: C_11  and  C_12
REMARK                            x       y       z     vdW  Elec       q    Type
REMARK                         _______ _______ _______ _____ _____    ______ ____
ROOT
ATOM      1  C   UNL     1       0.477   9.676  19.879  0.00  0.00    +0.000 A 
ATOM      2  N   UNL     1       0.419   9.964  18.569  0.00  0.00    +0.000 NA
ATOM      3  O   UNL     1       1.334   9.091  17.994  0.00  0.00    +0.000 OA
ATOM      4  C   UNL     1       1.848   8.326  19.005  0.00  0.00    +0.000 A 
ATOM      5  N   UNL     1       1.346   8.649  20.181  0.00  0.00    +0.000 NA
ENDROOT
BRANCH   1   9
ATOM      6  C   UNL     1      -1.608  11.880  22.879  0.00  0.00    +0.000 A 
ATOM      7  C   UNL     1      -1.505  12.388  21.587  0.00  0.00    +0.000 A 
ATOM      8  C   UNL     1      -0.848  11.651  20.599  0.00  0.00    +0.000 A 
ATOM      9  C   UNL     1      -0.272  10.406  20.896  0.00  0.00    +0.000 A 
ATOM     10  C   UNL     1      -0.399   9.898  22.197  0.00  0.00    +0.000 A 
ATOM     11  C   UNL     1      -1.066  10.633  23.183  0.00  0.00    +0.000 A 
ENDBRANCH   1   9
BRANCH   4  12
ATOM     12  C   UNL     1       2.800   7.286  18.778  0.00  0.00    +0.000 A 
ATOM     13  N   UNL     1       3.573   7.189  17.711  0.00  0.00    +0.000 NA
ATOM     14  C   UNL     1       4.281   6.030  17.941  0.00  0.00    +0.000 A 
ATOM     15  N   UNL     1       3.950   5.414  19.086  0.00  0.00    +0.000 NA
ATOM     16  O   UNL     1       2.990   6.247  19.647  0.00  0.00    +0.000 OA
BRANCH  14  17
ATOM     17  C   UNL     1       5.294   5.538  17.022  0.00  0.00    +0.000 A 
ATOM     18  C   UNL     1       5.093   5.536  15.640  0.00  0.00    +0.000 A 
ATOM     19  C   UNL     1       6.099   5.070  14.793  0.00  0.00    +0.000 A 
ATOM     20  C   UNL     1       7.280   4.615  15.358  0.00  0.00    +0.000 A 
ATOM     21  N   UNL     1       7.510   4.597  16.687  0.00  0.00    +0.000 NA
ATOM     22  C   UNL     1       6.518   5.057  17.488  0.00  0.00    +0.000 A 
ENDBRANCH  14  17
ENDBRANCH   4  12
TORSDOF 3
ENDMDL
