MODEL 1
REMARK VINA RESULT:      -8.7      0.000      0.000
REMARK  Name = 
REMARK  3 active torsions:
REMARK  status: ('A' for Active; 'I' for Inactive)
REMARK    1  A    between atoms: C_2  and  C_22
REMARK    2  A    between atoms: N_3  and  C_4
REMARK    3  A    between atoms: C_6  and  C_7
REMARK                            x       y       z     vdW  Elec       q    Type
REMARK                         _______ _______ _______ _____ _____    ______ ____
ROOT
ATOM      1  C   UNL     1       4.390   4.567  17.366  0.00  0.00    +0.000 C 
ATOM      2  N   UNL     1       3.714   5.805  17.717  0.00  0.00    +0.000 NA
ATOM      3  C   UNL     1       2.903   5.818  18.722  0.00  0.00    +0.000 C 
ATOM      4  C   UNL     1       2.611   4.644  19.609  0.00  0.00    +0.000 A 
ATOM      5  C   UNL     1       1.287   4.442  20.040  0.00  0.00    +0.000 A 
ATOM      6  C   UNL     1       0.990   3.468  20.996  0.00  0.00    +0.000 A 
ATOM      7  C   UNL     1       2.011   2.691  21.532  0.00  0.00    +0.000 A 
ATOM      8  C   UNL     1       3.324   2.871  21.098  0.00  0.00    +0.000 A 
ATOM      9  C   UNL     1       3.631   3.817  20.109  0.00  0.00    +0.000 A 
ATOM     10  N   UNL     1       4.970   3.867  19.697  0.00  0.00    +0.000 N 
ATOM     11  C   UNL     1       5.442   4.233  18.457  0.00  0.00    +0.000 C 
ATOM     12  O   UNL     1       6.661   4.208  18.262  0.00  0.00    +0.000 OA
ATOM     13  H   UNL     1       5.685   3.443  20.275  0.00  0.00    +0.000 HD
ENDROOT
BRANCH   3  14
ATOM     14  C   UNL     1       2.230   7.130  19.013  0.00  0.00    +0.000 A 
ATOM     15  C   UNL     1       2.041   8.039  17.962  0.00  0.00    +0.000 A 
ATOM     16  C   UNL     1       1.454   9.282  18.205  0.00  0.00    +0.000 A 
ATOM     17  C   UNL     1       1.054   9.623  19.495  0.00  0.00    +0.000 A 
ATOM     18  C   UNL     1       1.242   8.725  20.546  0.00  0.00    +0.000 A 
ATOM     19  C   UNL     1       1.837   7.484  20.309  0.00  0.00    +0.000 A 
ENDBRANCH   3  14
BRANCH   1  22
ATOM     20  O   UNL     1       5.325   2.605  15.621  0.00  0.00    +0.000 OA
ATOM     21  C   UNL     1       5.507   3.787  15.337  0.00  0.00    +0.000 C 
ATOM     22  N   UNL     1       5.028   4.821  16.099  0.00  0.00    +0.000 N 
ATOM     23  H   UNL     1       5.168   5.787  15.862  0.00  0.00    +0.000 HD
BRANCH  21  24
ATOM     24  C   UNL     1       6.239   4.134  14.092  0.00  0.00    +0.000 A 
ATOM     25  C   UNL     1       5.860   3.482  12.909  0.00  0.00    +0.000 A 
ATOM     26  C   UNL     1       6.541   3.727  11.716  0.00  0.00    +0.000 A 
ATOM     27  C   UNL     1       7.615   4.615  11.703  0.00  0.00    +0.000 A 
ATOM     28  C   UNL     1       7.997   5.258  12.884  0.00  0.00    +0.000 A 
ATOM     29 CL   UNL     1       9.344   6.332  12.858  0.00  0.00    +0.000 Cl
ATOM     30  C   UNL     1       7.314   5.029  14.080  0.00  0.00    +0.000 A 
ENDBRANCH  21  24
ENDBRANCH   1  22
TORSDOF 3
ENDMDL
MODEL 2
REMARK VINA RESULT:      -8.2      4.558      7.697
REMARK  Name = 
REMARK  3 active torsions:
REMARK  status: ('A' for Active; 'I' for Inactive)
REMARK    1  A    between atoms: C_2  and  C_22
REMARK    2  A    between atoms: N_3  and  C_4
REMARK    3  A    between atoms: C_6  and  C_7
REMARK                            x       y       z     vdW  Elec       q    Type
REMARK                         _______ _______ _______ _____ _____    ______ ____
ROOT
ATOM      1  C   UNL     1       1.524   8.992  19.661  0.00  0.00    +0.000 C 
ATOM      2  N   UNL     1       0.402   9.573  20.378  0.00  0.00    +0.000 NA
ATOM      3  C   UNL     1       0.344  10.855  20.528  0.00  0.00    +0.000 C 
ATOM      4  C   UNL     1       1.344  11.831  19.983  0.00  0.00    +0.000 A 
ATOM      5  C   UNL     1       1.713  12.929  20.783  0.00  0.00    +0.000 A 
ATOM      6  C   UNL     1       2.508  13.953  20.264  0.00  0.00    +0.000 A 
ATOM      7  C   UNL     1       2.937  13.893  18.942  0.00  0.00    +0.000 A 
ATOM      8  C   UNL     1       2.592  12.800  18.147  0.00  0.00    +0.000 A 
ATOM      9  C   UNL     1       1.828  11.746  18.668  0.00  0.00    +0.000 A 
ATOM     10  N   UNL     1       1.597  10.666  17.803  0.00  0.00    +0.000 N 
ATOM     11  C   UNL     1       1.409   9.349  18.155  0.00  0.00    +0.000 C 
ATOM     12  O   UNL     1       1.229   8.522  17.257  0.00  0.00    +0.000 OA
ATOM     13  H   UNL     1       1.741  10.786  16.808  0.00  0.00    +0.000 HD
ENDROOT
BRANCH   3  14
ATOM     14  C   UNL     1      -0.837  11.379  21.293  0.00  0.00    +0.000 A 
ATOM     15  C   UNL     1      -1.783  12.166  20.621  0.00  0.00    +0.000 A 
ATOM     16  C   UNL     1      -2.872  12.700  21.310  0.00  0.00    +0.000 A 
ATOM     17  C   UNL     1      -3.023  12.453  22.674  0.00  0.00    +0.000 A 
ATOM     18  C   UNL     1      -2.084  11.674  23.351  0.00  0.00    +0.000 A 
ATOM     19  C   UNL     1      -0.988  11.144  22.666  0.00  0.00    +0.000 A 
ENDBRANCH   3  14
BRANCH   1  22
ATOM     20  O   UNL     1       3.517   7.134  19.075  0.00  0.00    +0.000 OA
ATOM     21  C   UNL     1       2.432   6.729  19.485  0.00  0.00    +0.000 C 
ATOM     22  N   UNL     1       1.415   7.568  19.860  0.00  0.00    +0.000 N 
ATOM     23  H   UNL     1       0.531   7.239  20.205  0.00  0.00    +0.000 HD
BRANCH  21  24
ATOM     24  C   UNL     1       2.206   5.269  19.632  0.00  0.00    +0.000 A 
ATOM     25  C   UNL     1       1.460   4.831  20.737  0.00  0.00    +0.000 A 
ATOM     26  C   UNL     1       1.255   3.469  20.957  0.00  0.00    +0.000 A 
ATOM     27  C   UNL     1       1.807   2.536  20.082  0.00  0.00    +0.000 A 
ATOM     28  C   UNL     1       2.556   2.972  18.986  0.00  0.00    +0.000 A 
ATOM     29 CL   UNL     1       3.255   1.806  17.929  0.00  0.00    +0.000 Cl
ATOM     30  C   UNL     1       2.757   4.333  18.749  0.00  0.00    +0.000 A 
ENDBRANCH  21  24
ENDBRANCH   1  22
TORSDOF 3
ENDMDL
MODEL 3
REMARK VINA RESULT:      -8.1      4.893      7.894
REMARK  Name = 
REMARK  3 active torsions:
REMARK  status: ('A' for Active; 'I' for Inactive)
REMARK    1  A    between atoms: C_2  and  C_22
REMARK    2  A    between atoms: N_3  and  C_4
REMARK    3  A    between atoms: C_6  and  C_7
REMARK                            x       y       z     vdW  Elec       q    Type
REMARK                         _______ _______ _______ _____ _____    ______ ____
ROOT
ATOM      1  C   UNL     1       1.567   9.207  19.572  0.00  0.00    +0.000 C 
ATOM      2  N   UNL     1       0.438   9.772  20.292  0.00  0.00    +0.000 NA
ATOM      3  C   UNL     1       0.402  11.043  20.513  0.00  0.00    +0.000 C 
ATOM      4  C   UNL     1       1.435  12.028  20.050  0.00  0.00    +0.000 A 
ATOM      5  C   UNL     1       1.805  13.070  20.919  0.00  0.00    +0.000 A 
ATOM      6  C   UNL     1       2.633  14.105  20.479  0.00  0.00    +0.000 A 
ATOM      7  C   UNL     1       3.095  14.110  19.167  0.00  0.00    +0.000 A 
ATOM      8  C   UNL     1       2.750  13.071  18.303  0.00  0.00    +0.000 A 
ATOM      9  C   UNL     1       1.951  12.005  18.744  0.00  0.00    +0.000 A 
ATOM     10  N   UNL     1       1.722  10.981  17.814  0.00  0.00    +0.000 N 
ATOM     11  C   UNL     1       1.498   9.651  18.086  0.00  0.00    +0.000 C 
ATOM     12  O   UNL     1       1.325   8.879  17.139  0.00  0.00    +0.000 OA
ATOM     13  H   UNL     1       1.894  11.153  16.831  0.00  0.00    +0.000 HD
ENDROOT
BRANCH   3  14
ATOM     14  C   UNL     1      -0.789  11.549  21.277  0.00  0.00    +0.000 A 
ATOM     15  C   UNL     1      -0.927  11.192  22.626  0.00  0.00    +0.000 A 
ATOM     16  C   UNL     1      -2.041  11.613  23.355  0.00  0.00    +0.000 A 
ATOM     17  C   UNL     1      -3.021  12.392  22.742  0.00  0.00    +0.000 A 
ATOM     18  C   UNL     1      -2.891  12.748  21.399  0.00  0.00    +0.000 A 
ATOM     19  C   UNL     1      -1.783  12.322  20.664  0.00  0.00    +0.000 A 
ENDBRANCH   3  14
BRANCH   1  22
ATOM     20  O   UNL     1       3.490   7.338  18.812  0.00  0.00    +0.000 OA
ATOM     21  C   UNL     1       2.406   6.938  19.231  0.00  0.00    +0.000 C 
ATOM     22  N   UNL     1       1.424   7.778  19.688  0.00  0.00    +0.000 N 
ATOM     23  H   UNL     1       0.542   7.451  20.040  0.00  0.00    +0.000 HD
BRANCH  21  24
ATOM     24  C   UNL     1       2.144   5.477  19.296  0.00  0.00    +0.000 A 
ATOM     25  C   UNL     1       1.989   4.787  18.084  0.00  0.00    +0.000 A 
ATOM     26  C   UNL     1       1.691   3.424  18.079  0.00  0.00    +0.000 A 
ATOM     27  C   UNL     1       1.533   2.746  19.286  0.00  0.00    +0.000 A 
ATOM     28  C   UNL     1       1.681   3.435  20.493  0.00  0.00    +0.000 A 
ATOM     29 CL   UNL     1       1.456   2.589  21.976  0.00  0.00    +0.000 Cl
ATOM     30  C   UNL     1       1.991   4.796  20.509  0.00  0.00    +0.000 A 
ENDBRANCH  21  24
ENDBRANCH   1  22
TORSDOF 3
ENDMDL
MODEL 4
REMARK VINA RESULT:      -8.0      4.611      7.582
REMARK  Name = 
REMARK  3 active torsions:
REMARK  status: ('A' for Active; 'I' for Inactive)
REMARK    1  A    between atoms: C_2  and  C_22
REMARK    2  A    between atoms: N_3  and  C_4
REMARK    3  A    between atoms: C_6  and  C_7
REMARK                            x       y       z     vdW  Elec       q    Type
REMARK                         _______ _______ _______ _____ _____    ______ ____
ROOT
ATOM      1  C   UNL     1       1.128  10.097  18.769  0.00  0.00    +0.000 C 
ATOM      2  N   UNL     1      -0.188  10.211  18.164  0.00  0.00    +0.000 NA
ATOM      3  C   UNL     1      -1.038  11.049  18.656  0.00  0.00    +0.000 C 
ATOM      4  C   UNL     1      -0.772  11.968  19.811  0.00  0.00    +0.000 A 
ATOM      5  C   UNL     1      -1.795  12.171  20.756  0.00  0.00    +0.000 A 
ATOM      6  C   UNL     1      -1.662  13.139  21.753  0.00  0.00    +0.000 A 
ATOM      7  C   UNL     1      -0.510  13.917  21.813  0.00  0.00    +0.000 A 
ATOM      8  C   UNL     1       0.518  13.711  20.892  0.00  0.00    +0.000 A 
ATOM      9  C   UNL     1       0.414  12.714  19.911  0.00  0.00    +0.000 A 
ATOM     10  N   UNL     1       1.532  12.546  19.081  0.00  0.00    +0.000 N 
ATOM     11  C   UNL     1       1.942  11.384  18.469  0.00  0.00    +0.000 C 
ATOM     12  O   UNL     1       2.964  11.414  17.778  0.00  0.00    +0.000 OA
ATOM     13  H   UNL     1       2.229  13.279  19.033  0.00  0.00    +0.000 HD
ENDROOT
BRANCH   3  14
ATOM     14  C   UNL     1      -2.382  11.097  17.986  0.00  0.00    +0.000 A 
ATOM     15  C   UNL     1      -2.503  10.610  16.677  0.00  0.00    +0.000 A 
ATOM     16  C   UNL     1      -3.728  10.676  16.012  0.00  0.00    +0.000 A 
ATOM     17  C   UNL     1      -4.838  11.227  16.649  0.00  0.00    +0.000 A 
ATOM     18  C   UNL     1      -4.725  11.717  17.950  0.00  0.00    +0.000 A 
ATOM     19  C   UNL     1      -3.499  11.662  18.616  0.00  0.00    +0.000 A 
ENDBRANCH   3  14
BRANCH   1  22
ATOM     20  O   UNL     1       1.976   7.811  20.121  0.00  0.00    +0.000 OA
ATOM     21  C   UNL     1       2.177   7.894  18.912  0.00  0.00    +0.000 C 
ATOM     22  N   UNL     1       1.741   8.947  18.151  0.00  0.00    +0.000 N 
ATOM     23  H   UNL     1       1.896   9.011  17.161  0.00  0.00    +0.000 HD
BRANCH  21  24
ATOM     24  C   UNL     1       2.885   6.791  18.213  0.00  0.00    +0.000 A 
ATOM     25  C   UNL     1       4.047   7.112  17.496  0.00  0.00    +0.000 A 
ATOM     26  C   UNL     1       4.730   6.130  16.777  0.00  0.00    +0.000 A 
ATOM     27  C   UNL     1       4.246   4.823  16.761  0.00  0.00    +0.000 A 
ATOM     28  C   UNL     1       3.084   4.505  17.470  0.00  0.00    +0.000 A 
ATOM     29 CL   UNL     1       2.483   2.892  17.417  0.00  0.00    +0.000 Cl
ATOM     30  C   UNL     1       2.401   5.478  18.202  0.00  0.00    +0.000 A 
ENDBRANCH  21  24
ENDBRANCH   1  22
TORSDOF 3
ENDMDL
MODEL 5
REMARK VINA RESULT:      -7.9      4.987      8.496
REMARK  Name = 
REMARK  3 active torsions:
REMARK  status: ('A' for Active; 'I' for Inactive)
REMARK    1  A    between atoms: C_2  and  C_22
REMARK    2  A    between atoms: N_3  and  C_4
REMARK    3  A    between atoms: C_6  and  C_7
REMARK                            x       y       z     vdW  Elec       q    Type
REMARK                         _______ _______ _______ _____ _____    ______ ____
ROOT
ATOM      1  C   UNL     1       1.013  10.237  18.986  0.00  0.00    +0.000 C 
ATOM      2  N   UNL     1      -0.336  10.300  18.450  0.00  0.00    +0.000 NA
ATOM      3  C   UNL     1      -1.005  11.400  18.552  0.00  0.00    +0.000 C 
ATOM      4  C   UNL     1      -0.490  12.669  19.163  0.00  0.00    +0.000 A 
ATOM      5  C   UNL     1      -1.362  13.431  19.961  0.00  0.00    +0.000 A 
ATOM      6  C   UNL     1      -0.989  14.698  20.415  0.00  0.00    +0.000 A 
ATOM      7  C   UNL     1       0.256  15.216  20.074  0.00  0.00    +0.000 A 
ATOM      8  C   UNL     1       1.136  14.460  19.299  0.00  0.00    +0.000 A 
ATOM      9  C   UNL     1       0.789  13.170  18.870  0.00  0.00    +0.000 A 
ATOM     10  N   UNL     1       1.773  12.472  18.156  0.00  0.00    +0.000 N 
ATOM     11  C   UNL     1       1.952  11.108  18.110  0.00  0.00    +0.000 C 
ATOM     12  O   UNL     1       2.884  10.661  17.435  0.00  0.00    +0.000 OA
ATOM     13  H   UNL     1       2.553  12.980  17.757  0.00  0.00    +0.000 HD
ENDROOT
BRANCH   3  14
ATOM     14  C   UNL     1      -2.398  11.381  17.988  0.00  0.00    +0.000 A 
ATOM     15  C   UNL     1      -2.572  11.088  16.628  0.00  0.00    +0.000 A 
ATOM     16  C   UNL     1      -3.848  11.101  16.063  0.00  0.00    +0.000 A 
ATOM     17  C   UNL     1      -4.957  11.405  16.852  0.00  0.00    +0.000 A 
ATOM     18  C   UNL     1      -4.791  11.701  18.205  0.00  0.00    +0.000 A 
ATOM     19  C   UNL     1      -3.514  11.698  18.772  0.00  0.00    +0.000 A 
ENDBRANCH   3  14
BRANCH   1  22
ATOM     20  O   UNL     1       1.481   8.597  21.191  0.00  0.00    +0.000 OA
ATOM     21  C   UNL     1       1.656   8.140  20.064  0.00  0.00    +0.000 C 
ATOM     22  N   UNL     1       1.392   8.848  18.920  0.00  0.00    +0.000 N 
ATOM     23  H   UNL     1       1.526   8.472  17.999  0.00  0.00    +0.000 HD
BRANCH  21  24
ATOM     24  C   UNL     1       2.135   6.743  19.910  0.00  0.00    +0.000 A 
ATOM     25  C   UNL     1       2.997   6.463  18.839  0.00  0.00    +0.000 A 
ATOM     26  C   UNL     1       3.442   5.160  18.611  0.00  0.00    +0.000 A 
ATOM     27  C   UNL     1       3.016   4.128  19.445  0.00  0.00    +0.000 A 
ATOM     28  C   UNL     1       2.152   4.406  20.507  0.00  0.00    +0.000 A 
ATOM     29 CL   UNL     1       1.612   3.116  21.512  0.00  0.00    +0.000 Cl
ATOM     30  C   UNL     1       1.711   5.708  20.751  0.00  0.00    +0.000 A 
ENDBRANCH  21  24
ENDBRANCH   1  22
TORSDOF 3
ENDMDL
MODEL 6
REMARK VINA RESULT:      -7.9      4.264      7.299
REMARK  Name = 
REMARK  3 active torsions:
REMARK  status: ('A' for Active; 'I' for Inactive)
REMARK    1  A    between atoms: C_2  and  C_22
REMARK    2  A    between atoms: N_3  and  C_4
REMARK    3  A    between atoms: C_6  and  C_7
REMARK                            x       y       z     vdW  Elec       q    Type
REMARK                         _______ _______ _______ _____ _____    ______ ____
ROOT
ATOM      1  C   UNL     1       1.142   9.895  18.635  0.00  0.00    +0.000 C 
ATOM      2  N   UNL     1      -0.182  10.057  18.059  0.00  0.00    +0.000 NA
ATOM      3  C   UNL     1      -0.982  10.941  18.555  0.00  0.00    +0.000 C 
ATOM      4  C   UNL     1      -0.648  11.867  19.687  0.00  0.00    +0.000 A 
ATOM      5  C   UNL     1      -1.637  12.132  20.651  0.00  0.00    +0.000 A 
ATOM      6  C   UNL     1      -1.438  13.111  21.627  0.00  0.00    +0.000 A 
ATOM      7  C   UNL     1      -0.251  13.836  21.646  0.00  0.00    +0.000 A 
ATOM      8  C   UNL     1       0.744  13.569  20.705  0.00  0.00    +0.000 A 
ATOM      9  C   UNL     1       0.572  12.561  19.745  0.00  0.00    +0.000 A 
ATOM     10  N   UNL     1       1.661  12.328  18.893  0.00  0.00    +0.000 N 
ATOM     11  C   UNL     1       2.004  11.138  18.293  0.00  0.00    +0.000 C 
ATOM     12  O   UNL     1       3.010  11.111  17.577  0.00  0.00    +0.000 OA
ATOM     13  H   UNL     1       2.389  13.028  18.814  0.00  0.00    +0.000 HD
ENDROOT
BRANCH   3  14
ATOM     14  C   UNL     1      -2.339  11.038  17.916  0.00  0.00    +0.000 A 
ATOM     15  C   UNL     1      -2.487  10.636  16.581  0.00  0.00    +0.000 A 
ATOM     16  C   UNL     1      -3.724  10.750  15.945  0.00  0.00    +0.000 A 
ATOM     17  C   UNL     1      -4.819  11.264  16.637  0.00  0.00    +0.000 A 
ATOM     18  C   UNL     1      -4.678  11.670  17.965  0.00  0.00    +0.000 A 
ATOM     19  C   UNL     1      -3.439  11.566  18.603  0.00  0.00    +0.000 A 
ENDBRANCH   3  14
BRANCH   1  22
ATOM     20  O   UNL     1       2.169   7.705  20.022  0.00  0.00    +0.000 OA
ATOM     21  C   UNL     1       2.222   7.708  18.794  0.00  0.00    +0.000 C 
ATOM     22  N   UNL     1       1.687   8.709  18.025  0.00  0.00    +0.000 N 
ATOM     23  H   UNL     1       1.722   8.707  17.021  0.00  0.00    +0.000 HD
BRANCH  21  24
ATOM     24  C   UNL     1       2.853   6.563  18.088  0.00  0.00    +0.000 A 
ATOM     25  C   UNL     1       2.213   5.317  18.164  0.00  0.00    +0.000 A 
ATOM     26  C   UNL     1       2.781   4.192  17.565  0.00  0.00    +0.000 A 
ATOM     27  C   UNL     1       4.000   4.305  16.898  0.00  0.00    +0.000 A 
ATOM     28  C   UNL     1       4.640   5.545  16.830  0.00  0.00    +0.000 A 
ATOM     29 CL   UNL     1       6.159   5.662  16.026  0.00  0.00    +0.000 Cl
ATOM     30  C   UNL     1       4.074   6.679  17.415  0.00  0.00    +0.000 A 
ENDBRANCH  21  24
ENDBRANCH   1  22
TORSDOF 3
ENDMDL
MODEL 7
REMARK VINA RESULT:      -7.8      5.154      8.462
REMARK  Name = 
REMARK  3 active torsions:
REMARK  status: ('A' for Active; 'I' for Inactive)
REMARK    1  A    between atoms: C_2  and  C_22
REMARK    2  A    between atoms: N_3  and  C_4
REMARK    3  A    between atoms: C_6  and  C_7
REMARK                            x       y       z     vdW  Elec       q    Type
REMARK                         _______ _______ _______ _____ _____    ______ ____
ROOT
ATOM      1  C   UNL     1       0.122   9.615  21.431  0.00  0.00    +0.000 C 
ATOM      2  N   UNL     1       0.933  10.682  20.870  0.00  0.00    +0.000 NA
ATOM      3  C   UNL     1       0.407  11.848  20.691  0.00  0.00    +0.000 C 
ATOM      4  C   UNL     1      -1.001  12.222  21.050  0.00  0.00    +0.000 A 
ATOM      5  C   UNL     1      -1.719  13.053  20.171  0.00  0.00    +0.000 A 
ATOM      6  C   UNL     1      -2.966  13.566  20.534  0.00  0.00    +0.000 A 
ATOM      7  C   UNL     1      -3.505  13.258  21.779  0.00  0.00    +0.000 A 
ATOM      8  C   UNL     1      -2.809  12.419  22.650  0.00  0.00    +0.000 A 
ATOM      9  C   UNL     1      -1.575  11.865  22.282  0.00  0.00    +0.000 A 
ATOM     10  N   UNL     1      -0.995  10.982  23.204  0.00  0.00    +0.000 N 
ATOM     11  C   UNL     1      -0.164   9.921  22.925  0.00  0.00    +0.000 C 
ATOM     12  O   UNL     1       0.248   9.236  23.865  0.00  0.00    +0.000 OA
ATOM     13  H   UNL     1      -1.321  10.979  24.162  0.00  0.00    +0.000 HD
ENDROOT
BRANCH   3  14
ATOM     14  C   UNL     1       1.304  12.894  20.093  0.00  0.00    +0.000 A 
ATOM     15  C   UNL     1       1.767  12.718  18.782  0.00  0.00    +0.000 A 
ATOM     16  C   UNL     1       2.633  13.651  18.210  0.00  0.00    +0.000 A 
ATOM     17  C   UNL     1       3.040  14.765  18.942  0.00  0.00    +0.000 A 
ATOM     18  C   UNL     1       2.586  14.945  20.249  0.00  0.00    +0.000 A 
ATOM     19  C   UNL     1       1.727  14.009  20.829  0.00  0.00    +0.000 A 
ENDBRANCH   3  14
BRANCH   1  22
ATOM     20  O   UNL     1       1.380   8.782  19.087  0.00  0.00    +0.000 OA
ATOM     21  C   UNL     1       1.442   8.063  20.081  0.00  0.00    +0.000 C 
ATOM     22  N   UNL     1       0.910   8.417  21.294  0.00  0.00    +0.000 N 
ATOM     23  H   UNL     1       0.969   7.834  22.110  0.00  0.00    +0.000 HD
BRANCH  21  24
ATOM     24  C   UNL     1       2.159   6.765  19.999  0.00  0.00    +0.000 A 
ATOM     25  C   UNL     1       3.157   6.632  19.023  0.00  0.00    +0.000 A 
ATOM     26  C   UNL     1       3.833   5.421  18.862  0.00  0.00    +0.000 A 
ATOM     27  C   UNL     1       3.504   4.333  19.667  0.00  0.00    +0.000 A 
ATOM     28  C   UNL     1       2.504   4.465  20.635  0.00  0.00    +0.000 A 
ATOM     29 CL   UNL     1       2.089   3.103  21.605  0.00  0.00    +0.000 Cl
ATOM     30  C   UNL     1       1.831   5.675  20.812  0.00  0.00    +0.000 A 
ENDBRANCH  21  24
ENDBRANCH   1  22
TORSDOF 3
ENDMDL
MODEL 8
REMARK VINA RESULT:      -7.8      0.965      1.307
REMARK  Name = 
REMARK  3 active torsions:
REMARK  status: ('A' for Active; 'I' for Inactive)
REMARK    1  A    between atoms: C_2  and  C_22
REMARK    2  A    between atoms: N_3  and  C_4
REMARK    3  A    between atoms: C_6  and  C_7
REMARK                            x       y       z     vdW  Elec       q    Type
REMARK                         _______ _______ _______ _____ _____    ______ ____
ROOT
ATOM      1  C   UNL     1       4.470   4.561  17.437  0.00  0.00    +0.000 C 
ATOM      2  N   UNL     1       3.787   5.810  17.728  0.00  0.00    +0.000 NA
ATOM      3  C   UNL     1       2.932   5.851  18.696  0.00  0.00    +0.000 C 
ATOM      4  C   UNL     1       2.594   4.701  19.597  0.00  0.00    +0.000 A 
ATOM      5  C   UNL     1       1.251   4.516  19.973  0.00  0.00    +0.000 A 
ATOM      6  C   UNL     1       0.905   3.567  20.938  0.00  0.00    +0.000 A 
ATOM      7  C   UNL     1       1.897   2.797  21.537  0.00  0.00    +0.000 A 
ATOM      8  C   UNL     1       3.229   2.960  21.157  0.00  0.00    +0.000 A 
ATOM      9  C   UNL     1       3.585   3.881  20.161  0.00  0.00    +0.000 A 
ATOM     10  N   UNL     1       4.942   3.914  19.807  0.00  0.00    +0.000 N 
ATOM     11  C   UNL     1       5.470   4.248  18.581  0.00  0.00    +0.000 C 
ATOM     12  O   UNL     1       6.696   4.212  18.442  0.00  0.00    +0.000 OA
ATOM     13  H   UNL     1       5.627   3.500  20.427  0.00  0.00    +0.000 HD
ENDROOT
BRANCH   3  14
ATOM     14  C   UNL     1       2.255   7.173  18.925  0.00  0.00    +0.000 A 
ATOM     15  C   UNL     1       2.070   8.035  17.835  0.00  0.00    +0.000 A 
ATOM     16  C   UNL     1       1.480   9.286  18.020  0.00  0.00    +0.000 A 
ATOM     17  C   UNL     1       1.072   9.684  19.292  0.00  0.00    +0.000 A 
ATOM     18  C   UNL     1       1.257   8.832  20.382  0.00  0.00    +0.000 A 
ATOM     19  C   UNL     1       1.855   7.583  20.203  0.00  0.00    +0.000 A 
ENDBRANCH   3  14
BRANCH   1  22
ATOM     20  O   UNL     1       5.332   2.554  15.706  0.00  0.00    +0.000 OA
ATOM     21  C   UNL     1       5.600   3.723  15.439  0.00  0.00    +0.000 C 
ATOM     22  N   UNL     1       5.165   4.781  16.194  0.00  0.00    +0.000 N 
ATOM     23  H   UNL     1       5.375   5.738  15.971  0.00  0.00    +0.000 HD
BRANCH  21  24
ATOM     24  C   UNL     1       6.394   4.030  14.222  0.00  0.00    +0.000 A 
ATOM     25  C   UNL     1       7.107   5.237  14.194  0.00  0.00    +0.000 A 
ATOM     26  C   UNL     1       7.831   5.606  13.060  0.00  0.00    +0.000 A 
ATOM     27  C   UNL     1       7.835   4.775  11.942  0.00  0.00    +0.000 A 
ATOM     28  C   UNL     1       7.119   3.575  11.967  0.00  0.00    +0.000 A 
ATOM     29 CL   UNL     1       7.111   2.572  10.567  0.00  0.00    +0.000 Cl
ATOM     30  C   UNL     1       6.401   3.191  13.101  0.00  0.00    +0.000 A 
ENDBRANCH  21  24
ENDBRANCH   1  22
TORSDOF 3
ENDMDL
MODEL 9
REMARK VINA RESULT:      -7.8      4.778      8.284
REMARK  Name = 
REMARK  3 active torsions:
REMARK  status: ('A' for Active; 'I' for Inactive)
REMARK    1  A    between atoms: C_2  and  C_22
REMARK    2  A    between atoms: N_3  and  C_4
REMARK    3  A    between atoms: C_6  and  C_7
REMARK                            x       y       z     vdW  Elec       q    Type
REMARK                         _______ _______ _______ _____ _____    ______ ____
ROOT
ATOM      1  C   UNL     1       1.079  10.096  18.970  0.00  0.00    +0.000 C 
ATOM      2  N   UNL     1      -0.266  10.174  18.426  0.00  0.00    +0.000 NA
ATOM      3  C   UNL     1      -0.900  11.298  18.471  0.00  0.00    +0.000 C 
ATOM      4  C   UNL     1      -0.346  12.579  19.020  0.00  0.00    +0.000 A 
ATOM      5  C   UNL     1      -1.196  13.408  19.775  0.00  0.00    +0.000 A 
ATOM      6  C   UNL     1      -0.784  14.683  20.167  0.00  0.00    +0.000 A 
ATOM      7  C   UNL     1       0.478  15.144  19.805  0.00  0.00    +0.000 A 
ATOM      8  C   UNL     1       1.335  14.323  19.072  0.00  0.00    +0.000 A 
ATOM      9  C   UNL     1       0.948  13.025  18.707  0.00  0.00    +0.000 A 
ATOM     10  N   UNL     1       1.912  12.261  18.032  0.00  0.00    +0.000 N 
ATOM     11  C   UNL     1       2.047  10.892  18.054  0.00  0.00    +0.000 C 
ATOM     12  O   UNL     1       2.966  10.383  17.406  0.00  0.00    +0.000 OA
ATOM     13  H   UNL     1       2.707  12.724  17.611  0.00  0.00    +0.000 HD
ENDROOT
BRANCH   3  14
ATOM     14  C   UNL     1      -2.292  11.295  17.903  0.00  0.00    +0.000 A 
ATOM     15  C   UNL     1      -2.466  11.005  16.542  0.00  0.00    +0.000 A 
ATOM     16  C   UNL     1      -3.740  11.032  15.974  0.00  0.00    +0.000 A 
ATOM     17  C   UNL     1      -4.847  11.348  16.760  0.00  0.00    +0.000 A 
ATOM     18  C   UNL     1      -4.681  11.641  18.114  0.00  0.00    +0.000 A 
ATOM     19  C   UNL     1      -3.406  11.624  18.685  0.00  0.00    +0.000 A 
ENDBRANCH   3  14
BRANCH   1  22
ATOM     20  O   UNL     1       1.578   8.575  21.252  0.00  0.00    +0.000 OA
ATOM     21  C   UNL     1       1.699   8.047  20.149  0.00  0.00    +0.000 C 
ATOM     22  N   UNL     1       1.414   8.694  18.974  0.00  0.00    +0.000 N 
ATOM     23  H   UNL     1       1.503   8.261  18.073  0.00  0.00    +0.000 HD
BRANCH  21  24
ATOM     24  C   UNL     1       2.131   6.628  20.063  0.00  0.00    +0.000 A 
ATOM     25  C   UNL     1       1.420   5.683  20.817  0.00  0.00    +0.000 A 
ATOM     26  C   UNL     1       1.808   4.342  20.817  0.00  0.00    +0.000 A 
ATOM     27  C   UNL     1       2.917   3.943  20.075  0.00  0.00    +0.000 A 
ATOM     28  C   UNL     1       3.629   4.887  19.329  0.00  0.00    +0.000 A 
ATOM     29 CL   UNL     1       5.014   4.382  18.438  0.00  0.00    +0.000 Cl
ATOM     30  C   UNL     1       3.242   6.228  19.312  0.00  0.00    +0.000 A 
ENDBRANCH  21  24
ENDBRANCH   1  22
TORSDOF 3
ENDMDL
