MODEL 1
REMARK VINA RESULT:      -7.4      0.000      0.000
REMARK  Name = 
REMARK  13 active torsions:
REMARK  status: ('A' for Active; 'I' for Inactive)
REMARK    1  A    between atoms: C_1  and  C_2
REMARK    2  A    between atoms: C_2  and  C_3
REMARK    3  A    between atoms: C_10  and  O_11
REMARK    4  A    between atoms: O_11  and  C_12
REMARK    5  A    between atoms: C_12  and  C_13
REMARK    6  A    between atoms: C_12  and  C_14
REMARK    7  A    between atoms: C_15  and  C_16
REMARK    8  A    between atoms: C_16  and  O_17
REMARK    9  A    between atoms: O_17  and  C_18
REMARK   10  A    between atoms: C_18  and  C_19
REMARK   11  A    between atoms: C_22  and  C_23
REMARK   12  A    between atoms: C_27  and  C_28
REMARK   13  A    between atoms: C_27  and  C_29
REMARK                            x       y       z     vdW  Elec       q    Type
REMARK                         _______ _______ _______ _____ _____    ______ ____
ROOT
ATOM      1  C   UNL     1       6.741   7.544  17.338  0.00  0.00    +0.000 A 
ATOM      2  C   UNL     1       7.442   6.634  16.655  0.00  0.00    +0.000 A 
ATOM      3  C   UNL     1       6.830   5.337  16.352  0.00  0.00    +0.000 A 
ATOM      4  O   UNL     1       7.461   4.468  15.767  0.00  0.00    +0.000 OA
ATOM      5  C   UNL     1       5.438   5.155  16.785  0.00  0.00    +0.000 A 
ATOM      6  C   UNL     1       4.783   3.968  16.467  0.00  0.00    +0.000 A 
ATOM      7  C   UNL     1       3.486   3.759  16.918  0.00  0.00    +0.000 A 
ATOM      8  C   UNL     1       2.850   4.720  17.714  0.00  0.00    +0.000 A 
ATOM      9  C   UNL     1       3.469   5.972  17.965  0.00  0.00    +0.000 A 
ATOM     10  C   UNL     1       4.796   6.163  17.510  0.00  0.00    +0.000 A 
ATOM     11  O   UNL     1       5.447   7.344  17.807  0.00  0.00    +0.000 OA
ENDROOT
BRANCH   1  13
ATOM     12  C   UNL     1       8.602   8.856  18.423  0.00  0.00    +0.000 C 
ATOM     13  C   UNL     1       7.309   8.910  17.623  0.00  0.00    +0.000 C 
ENDBRANCH   1  13
BRANCH   8  14
ATOM     14  O   UNL     1       1.624   4.507  18.299  0.00  0.00    +0.000 OA
BRANCH  14  15
ATOM     15  C   UNL     1       1.527   3.520  19.345  0.00  0.00    +0.000 C 
ATOM     16  C   UNL     1       0.988   4.122  20.644  0.00  0.00    +0.000 C 
ATOM     17  C   UNL     1       0.556   2.444  18.862  0.00  0.00    +0.000 C 
ENDBRANCH  14  15
ENDBRANCH   8  14
BRANCH   9  18
ATOM     18  C   UNL     1       2.721   7.011  18.783  0.00  0.00    +0.000 C 
BRANCH  18  19
ATOM     19  O   UNL     1       2.192   8.057  17.969  0.00  0.00    +0.000 OA
BRANCH  19  20
ATOM     20  C   UNL     1       2.402   9.358  18.513  0.00  0.00    +0.000 C 
BRANCH  20  21
ATOM     21  C   UNL     1       1.079  10.122  18.570  0.00  0.00    +0.000 C 
ATOM     22  C   UNL     1      -0.050   9.489  17.726  0.00  0.00    +0.000 C 
ATOM     23  C   UNL     1      -1.307  10.213  18.243  0.00  0.00    +0.000 C 
ATOM     24  C   UNL     1      -0.710  11.159  19.306  0.00  0.00    +0.000 C 
ATOM     25  C   UNL     1      -1.729  11.793  20.226  0.00  0.00    +0.000 C 
ATOM     26  C   UNL     1       0.098  12.149  18.480  0.00  0.00    +0.000 C 
ATOM     27  O   UNL     1      -0.180  13.294  18.186  0.00  0.00    +0.000 OA
ATOM     28  O   UNL     1       1.231  11.470  18.064  0.00  0.00    +0.000 OA
ATOM     29  C   UNL     1       0.434  10.349  19.955  0.00  0.00    +0.000 C 
ATOM     30  C   UNL     1       1.317  11.162  20.923  0.00  0.00    +0.000 C 
ATOM     31  C   UNL     1      -0.024   9.089  20.710  0.00  0.00    +0.000 C 
ENDBRANCH  20  21
ENDBRANCH  19  20
ENDBRANCH  18  19
ENDBRANCH   9  18
TORSDOF 7
ENDMDL
MODEL 2
REMARK VINA RESULT:      -7.2      0.884      1.347
REMARK  Name = 
REMARK  13 active torsions:
REMARK  status: ('A' for Active; 'I' for Inactive)
REMARK    1  A    between atoms: C_1  and  C_2
REMARK    2  A    between atoms: C_2  and  C_3
REMARK    3  A    between atoms: C_10  and  O_11
REMARK    4  A    between atoms: O_11  and  C_12
REMARK    5  A    between atoms: C_12  and  C_13
REMARK    6  A    between atoms: C_12  and  C_14
REMARK    7  A    between atoms: C_15  and  C_16
REMARK    8  A    between atoms: C_16  and  O_17
REMARK    9  A    between atoms: O_17  and  C_18
REMARK   10  A    between atoms: C_18  and  C_19
REMARK   11  A    between atoms: C_22  and  C_23
REMARK   12  A    between atoms: C_27  and  C_28
REMARK   13  A    between atoms: C_27  and  C_29
REMARK                            x       y       z     vdW  Elec       q    Type
REMARK                         _______ _______ _______ _____ _____    ______ ____
ROOT
ATOM      1  C   UNL     1       6.900   7.537  17.349  0.00  0.00    +0.000 A 
ATOM      2  C   UNL     1       7.575   6.623  16.645  0.00  0.00    +0.000 A 
ATOM      3  C   UNL     1       6.935   5.343  16.334  0.00  0.00    +0.000 A 
ATOM      4  O   UNL     1       7.542   4.469  15.729  0.00  0.00    +0.000 OA
ATOM      5  C   UNL     1       5.546   5.181  16.782  0.00  0.00    +0.000 A 
ATOM      6  C   UNL     1       4.864   4.010  16.457  0.00  0.00    +0.000 A 
ATOM      7  C   UNL     1       3.569   3.820  16.923  0.00  0.00    +0.000 A 
ATOM      8  C   UNL     1       2.962   4.781  17.739  0.00  0.00    +0.000 A 
ATOM      9  C   UNL     1       3.608   6.019  17.998  0.00  0.00    +0.000 A 
ATOM     10  C   UNL     1       4.932   6.191  17.528  0.00  0.00    +0.000 A 
ATOM     11  O   UNL     1       5.609   7.356  17.832  0.00  0.00    +0.000 OA
ENDROOT
BRANCH   1  13
ATOM     12  C   UNL     1       8.658   8.819  18.626  0.00  0.00    +0.000 C 
ATOM     13  C   UNL     1       7.497   8.889  17.644  0.00  0.00    +0.000 C 
ENDBRANCH   1  13
BRANCH   8  14
ATOM     14  O   UNL     1       1.739   4.584  18.337  0.00  0.00    +0.000 OA
BRANCH  14  15
ATOM     15  C   UNL     1       1.623   3.542  19.327  0.00  0.00    +0.000 C 
ATOM     16  C   UNL     1       1.080   4.078  20.653  0.00  0.00    +0.000 C 
ATOM     17  C   UNL     1       0.643   2.506  18.777  0.00  0.00    +0.000 C 
ENDBRANCH  14  15
ENDBRANCH   8  14
BRANCH   9  18
ATOM     18  C   UNL     1       2.890   7.061  18.839  0.00  0.00    +0.000 C 
BRANCH  18  19
ATOM     19  O   UNL     1       2.095   7.939  18.044  0.00  0.00    +0.000 OA
BRANCH  19  20
ATOM     20  C   UNL     1       2.271   9.315  18.373  0.00  0.00    +0.000 C 
BRANCH  20  21
ATOM     21  C   UNL     1       0.952   9.908  18.866  0.00  0.00    +0.000 C 
ATOM     22  C   UNL     1       0.396   9.235  20.141  0.00  0.00    +0.000 C 
ATOM     23  C   UNL     1      -0.686  10.228  20.606  0.00  0.00    +0.000 C 
ATOM     24  C   UNL     1      -0.592  11.324  19.523  0.00  0.00    +0.000 C 
ATOM     25  C   UNL     1      -1.317  12.606  19.863  0.00  0.00    +0.000 C 
ATOM     26  C   UNL     1      -1.102  10.623  18.271  0.00  0.00    +0.000 C 
ATOM     27  O   UNL     1      -2.184  10.732  17.731  0.00  0.00    +0.000 OA
ATOM     28  O   UNL     1      -0.090   9.768  17.870  0.00  0.00    +0.000 OA
ATOM     29  C   UNL     1       0.913  11.418  19.188  0.00  0.00    +0.000 C 
ATOM     30  C   UNL     1       1.237  12.317  17.978  0.00  0.00    +0.000 C 
ATOM     31  C   UNL     1       1.798  11.891  20.354  0.00  0.00    +0.000 C 
ENDBRANCH  20  21
ENDBRANCH  19  20
ENDBRANCH  18  19
ENDBRANCH   9  18
TORSDOF 7
ENDMDL
MODEL 3
REMARK VINA RESULT:      -7.1      0.683      1.003
REMARK  Name = 
REMARK  13 active torsions:
REMARK  status: ('A' for Active; 'I' for Inactive)
REMARK    1  A    between atoms: C_1  and  C_2
REMARK    2  A    between atoms: C_2  and  C_3
REMARK    3  A    between atoms: C_10  and  O_11
REMARK    4  A    between atoms: O_11  and  C_12
REMARK    5  A    between atoms: C_12  and  C_13
REMARK    6  A    between atoms: C_12  and  C_14
REMARK    7  A    between atoms: C_15  and  C_16
REMARK    8  A    between atoms: C_16  and  O_17
REMARK    9  A    between atoms: O_17  and  C_18
REMARK   10  A    between atoms: C_18  and  C_19
REMARK   11  A    between atoms: C_22  and  C_23
REMARK   12  A    between atoms: C_27  and  C_28
REMARK   13  A    between atoms: C_27  and  C_29
REMARK                            x       y       z     vdW  Elec       q    Type
REMARK                         _______ _______ _______ _____ _____    ______ ____
ROOT
ATOM      1  C   UNL     1       6.428   6.684  17.133  0.00  0.00    +0.000 A 
ATOM      2  C   UNL     1       6.824   5.613  16.438  0.00  0.00    +0.000 A 
ATOM      3  C   UNL     1       5.925   4.461  16.322  0.00  0.00    +0.000 A 
ATOM      4  O   UNL     1       6.276   3.449  15.730  0.00  0.00    +0.000 OA
ATOM      5  C   UNL     1       4.603   4.599  16.947  0.00  0.00    +0.000 A 
ATOM      6  C   UNL     1       3.683   3.563  16.813  0.00  0.00    +0.000 A 
ATOM      7  C   UNL     1       2.449   3.656  17.445  0.00  0.00    +0.000 A 
ATOM      8  C   UNL     1       2.143   4.767  18.239  0.00  0.00    +0.000 A 
ATOM      9  C   UNL     1       3.032   5.872  18.306  0.00  0.00    +0.000 A 
ATOM     10  C   UNL     1       4.289   5.755  17.667  0.00  0.00    +0.000 A 
ATOM     11  O   UNL     1       5.202   6.786  17.781  0.00  0.00    +0.000 OA
ENDROOT
BRANCH   1  13
ATOM     12  C   UNL     1       8.309   7.829  18.362  0.00  0.00    +0.000 C 
ATOM     13  C   UNL     1       7.295   7.912  17.230  0.00  0.00    +0.000 C 
ENDBRANCH   1  13
BRANCH   8  14
ATOM     14  O   UNL     1       0.997   4.848  18.995  0.00  0.00    +0.000 OA
BRANCH  14  15
ATOM     15  C   UNL     1       0.802   3.881  20.046  0.00  0.00    +0.000 C 
ATOM     16  C   UNL     1       0.794   2.450  19.506  0.00  0.00    +0.000 C 
ATOM     17  C   UNL     1       1.969   4.033  21.020  0.00  0.00    +0.000 C 
ENDBRANCH  14  15
ENDBRANCH   8  14
BRANCH   9  18
ATOM     18  C   UNL     1       2.636   7.086  19.130  0.00  0.00    +0.000 C 
BRANCH  18  19
ATOM     19  O   UNL     1       1.929   8.054  18.356  0.00  0.00    +0.000 OA
BRANCH  19  20
ATOM     20  C   UNL     1       2.198   9.397  18.747  0.00  0.00    +0.000 C 
BRANCH  20  21
ATOM     21  C   UNL     1       0.901  10.205  18.772  0.00  0.00    +0.000 C 
ATOM     22  C   UNL     1      -0.234   9.602  17.915  0.00  0.00    +0.000 C 
ATOM     23  C   UNL     1      -1.476  10.373  18.401  0.00  0.00    +0.000 C 
ATOM     24  C   UNL     1      -0.866  11.310  19.465  0.00  0.00    +0.000 C 
ATOM     25  C   UNL     1      -1.879  11.988  20.358  0.00  0.00    +0.000 C 
ATOM     26  C   UNL     1      -0.010  12.264  18.642  0.00  0.00    +0.000 C 
ATOM     27  O   UNL     1      -0.245  13.413  18.331  0.00  0.00    +0.000 OA
ATOM     28  O   UNL     1       1.106  11.542  18.255  0.00  0.00    +0.000 OA
ATOM     29  C   UNL     1       0.239  10.469  20.142  0.00  0.00    +0.000 C 
ATOM     30  C   UNL     1       1.131  11.264  21.118  0.00  0.00    +0.000 C 
ATOM     31  C   UNL     1      -0.275   9.234  20.903  0.00  0.00    +0.000 C 
ENDBRANCH  20  21
ENDBRANCH  19  20
ENDBRANCH  18  19
ENDBRANCH   9  18
TORSDOF 7
ENDMDL
MODEL 4
REMARK VINA RESULT:      -7.1      1.178      1.726
REMARK  Name = 
REMARK  13 active torsions:
REMARK  status: ('A' for Active; 'I' for Inactive)
REMARK    1  A    between atoms: C_1  and  C_2
REMARK    2  A    between atoms: C_2  and  C_3
REMARK    3  A    between atoms: C_10  and  O_11
REMARK    4  A    between atoms: O_11  and  C_12
REMARK    5  A    between atoms: C_12  and  C_13
REMARK    6  A    between atoms: C_12  and  C_14
REMARK    7  A    between atoms: C_15  and  C_16
REMARK    8  A    between atoms: C_16  and  O_17
REMARK    9  A    between atoms: O_17  and  C_18
REMARK   10  A    between atoms: C_18  and  C_19
REMARK   11  A    between atoms: C_22  and  C_23
REMARK   12  A    between atoms: C_27  and  C_28
REMARK   13  A    between atoms: C_27  and  C_29
REMARK                            x       y       z     vdW  Elec       q    Type
REMARK                         _______ _______ _______ _____ _____    ______ ____
ROOT
ATOM      1  C   UNL     1       6.916   7.552  17.392  0.00  0.00    +0.000 A 
ATOM      2  C   UNL     1       7.652   6.604  16.803  0.00  0.00    +0.000 A 
ATOM      3  C   UNL     1       7.052   5.294  16.537  0.00  0.00    +0.000 A 
ATOM      4  O   UNL     1       7.712   4.392  16.038  0.00  0.00    +0.000 OA
ATOM      5  C   UNL     1       5.636   5.138  16.895  0.00  0.00    +0.000 A 
ATOM      6  C   UNL     1       4.995   3.937  16.604  0.00  0.00    +0.000 A 
ATOM      7  C   UNL     1       3.672   3.755  16.989  0.00  0.00    +0.000 A 
ATOM      8  C   UNL     1       2.995   4.759  17.692  0.00  0.00    +0.000 A 
ATOM      9  C   UNL     1       3.605   6.023  17.910  0.00  0.00    +0.000 A 
ATOM     10  C   UNL     1       4.957   6.186  17.524  0.00  0.00    +0.000 A 
ATOM     11  O   UNL     1       5.595   7.381  17.794  0.00  0.00    +0.000 OA
ENDROOT
BRANCH   1  13
ATOM     12  C   UNL     1       8.663   8.928  18.582  0.00  0.00    +0.000 C 
ATOM     13  C   UNL     1       7.473   8.930  17.634  0.00  0.00    +0.000 C 
ENDBRANCH   1  13
BRANCH   8  14
ATOM     14  O   UNL     1       1.736   4.581  18.213  0.00  0.00    +0.000 OA
BRANCH  14  15
ATOM     15  C   UNL     1       1.566   3.627  19.281  0.00  0.00    +0.000 C 
ATOM     16  C   UNL     1       0.985   4.279  20.537  0.00  0.00    +0.000 C 
ATOM     17  C   UNL     1       0.590   2.562  18.783  0.00  0.00    +0.000 C 
ENDBRANCH  14  15
ENDBRANCH   8  14
BRANCH   9  18
ATOM     18  C   UNL     1       2.815   7.107  18.623  0.00  0.00    +0.000 C 
BRANCH  18  19
ATOM     19  O   UNL     1       2.524   8.211  17.768  0.00  0.00    +0.000 OA
BRANCH  19  20
ATOM     20  C   UNL     1       1.162   8.628  17.826  0.00  0.00    +0.000 C 
BRANCH  20  21
ATOM     21  C   UNL     1       1.034   9.883  18.689  0.00  0.00    +0.000 C 
ATOM     22  C   UNL     1       1.978  11.033  18.271  0.00  0.00    +0.000 C 
ATOM     23  C   UNL     1       1.398  12.242  19.031  0.00  0.00    +0.000 C 
ATOM     24  C   UNL     1       0.209  11.602  19.777  0.00  0.00    +0.000 C 
ATOM     25  C   UNL     1      -0.763  12.593  20.376  0.00  0.00    +0.000 C 
ATOM     26  C   UNL     1       0.882  10.686  20.790  0.00  0.00    +0.000 C 
ATOM     27  O   UNL     1       1.031  10.858  21.983  0.00  0.00    +0.000 OA
ATOM     28  O   UNL     1       1.358   9.602  20.073  0.00  0.00    +0.000 OA
ATOM     29  C   UNL     1      -0.353  10.551  18.793  0.00  0.00    +0.000 C 
ATOM     30  C   UNL     1      -1.438   9.635  19.396  0.00  0.00    +0.000 C 
ATOM     31  C   UNL     1      -0.929  11.138  17.493  0.00  0.00    +0.000 C 
ENDBRANCH  20  21
ENDBRANCH  19  20
ENDBRANCH  18  19
ENDBRANCH   9  18
TORSDOF 7
ENDMDL
MODEL 5
REMARK VINA RESULT:      -6.8      4.606      8.345
REMARK  Name = 
REMARK  13 active torsions:
REMARK  status: ('A' for Active; 'I' for Inactive)
REMARK    1  A    between atoms: C_1  and  C_2
REMARK    2  A    between atoms: C_2  and  C_3
REMARK    3  A    between atoms: C_10  and  O_11
REMARK    4  A    between atoms: O_11  and  C_12
REMARK    5  A    between atoms: C_12  and  C_13
REMARK    6  A    between atoms: C_12  and  C_14
REMARK    7  A    between atoms: C_15  and  C_16
REMARK    8  A    between atoms: C_16  and  O_17
REMARK    9  A    between atoms: O_17  and  C_18
REMARK   10  A    between atoms: C_18  and  C_19
REMARK   11  A    between atoms: C_22  and  C_23
REMARK   12  A    between atoms: C_27  and  C_28
REMARK   13  A    between atoms: C_27  and  C_29
REMARK                            x       y       z     vdW  Elec       q    Type
REMARK                         _______ _______ _______ _____ _____    ______ ____
ROOT
ATOM      1  C   UNL     1       0.957   9.295  20.363  0.00  0.00    +0.000 A 
ATOM      2  C   UNL     1       1.090   9.013  21.663  0.00  0.00    +0.000 A 
ATOM      3  C   UNL     1       0.290   9.753  22.642  0.00  0.00    +0.000 A 
ATOM      4  O   UNL     1       0.422   9.549  23.842  0.00  0.00    +0.000 OA
ATOM      5  C   UNL     1      -0.661  10.734  22.102  0.00  0.00    +0.000 A 
ATOM      6  C   UNL     1      -1.494  11.420  22.982  0.00  0.00    +0.000 A 
ATOM      7  C   UNL     1      -2.359  12.390  22.490  0.00  0.00    +0.000 A 
ATOM      8  C   UNL     1      -2.372  12.701  21.125  0.00  0.00    +0.000 A 
ATOM      9  C   UNL     1      -1.598  11.944  20.206  0.00  0.00    +0.000 A 
ATOM     10  C   UNL     1      -0.713  10.968  20.725  0.00  0.00    +0.000 A 
ATOM     11  O   UNL     1       0.105  10.271  19.858  0.00  0.00    +0.000 OA
ENDROOT
BRANCH   1  13
ATOM     12  C   UNL     1       1.630   9.154  17.937  0.00  0.00    +0.000 C 
ATOM     13  C   UNL     1       1.716   8.521  19.318  0.00  0.00    +0.000 C 
ENDBRANCH   1  13
BRANCH   8  14
ATOM     14  O   UNL     1      -3.105  13.742  20.607  0.00  0.00    +0.000 OA
BRANCH  14  15
ATOM     15  C   UNL     1      -3.372  14.878  21.453  0.00  0.00    +0.000 C 
ATOM     16  C   UNL     1      -2.354  16.000  21.233  0.00  0.00    +0.000 C 
ATOM     17  C   UNL     1      -4.762  15.397  21.086  0.00  0.00    +0.000 C 
ENDBRANCH  14  15
ENDBRANCH   8  14
BRANCH   9  18
ATOM     18  C   UNL     1      -1.686  12.272  18.725  0.00  0.00    +0.000 C 
BRANCH  18  19
ATOM     19  O   UNL     1      -0.472  12.831  18.226  0.00  0.00    +0.000 OA
BRANCH  19  20
ATOM     20  C   UNL     1      -0.171  14.112  18.773  0.00  0.00    +0.000 C 
BRANCH  20  21
ATOM     21  C   UNL     1       1.315  14.198  19.120  0.00  0.00    +0.000 C 
ATOM     22  C   UNL     1       2.244  13.536  18.077  0.00  0.00    +0.000 C 
ATOM     23  C   UNL     1       3.633  14.076  18.469  0.00  0.00    +0.000 C 
ATOM     24  C   UNL     1       3.293  14.965  19.683  0.00  0.00    +0.000 C 
ATOM     25  C   UNL     1       4.407  15.891  20.114  0.00  0.00    +0.000 C 
ATOM     26  C   UNL     1       2.861  13.960  20.743  0.00  0.00    +0.000 C 
ATOM     27  O   UNL     1       3.484  13.562  21.706  0.00  0.00    +0.000 OA
ATOM     28  O   UNL     1       1.600  13.527  20.371  0.00  0.00    +0.000 OA
ATOM     29  C   UNL     1       1.928  15.598  19.337  0.00  0.00    +0.000 C 
ATOM     30  C   UNL     1       1.281  16.383  20.497  0.00  0.00    +0.000 C 
ATOM     31  C   UNL     1       1.949  16.532  18.115  0.00  0.00    +0.000 C 
ENDBRANCH  20  21
ENDBRANCH  19  20
ENDBRANCH  18  19
ENDBRANCH   9  18
TORSDOF 7
ENDMDL
MODEL 6
REMARK VINA RESULT:      -6.7      2.545      8.304
REMARK  Name = 
REMARK  13 active torsions:
REMARK  status: ('A' for Active; 'I' for Inactive)
REMARK    1  A    between atoms: C_1  and  C_2
REMARK    2  A    between atoms: C_2  and  C_3
REMARK    3  A    between atoms: C_10  and  O_11
REMARK    4  A    between atoms: O_11  and  C_12
REMARK    5  A    between atoms: C_12  and  C_13
REMARK    6  A    between atoms: C_12  and  C_14
REMARK    7  A    between atoms: C_15  and  C_16
REMARK    8  A    between atoms: C_16  and  O_17
REMARK    9  A    between atoms: O_17  and  C_18
REMARK   10  A    between atoms: C_18  and  C_19
REMARK   11  A    between atoms: C_22  and  C_23
REMARK   12  A    between atoms: C_27  and  C_28
REMARK   13  A    between atoms: C_27  and  C_29
REMARK                            x       y       z     vdW  Elec       q    Type
REMARK                         _______ _______ _______ _____ _____    ______ ____
ROOT
ATOM      1  C   UNL     1      -2.553  10.288  16.102  0.00  0.00    +0.000 A 
ATOM      2  C   UNL     1      -3.563  10.934  16.692  0.00  0.00    +0.000 A 
ATOM      3  C   UNL     1      -3.423  11.361  18.087  0.00  0.00    +0.000 A 
ATOM      4  O   UNL     1      -4.346  11.916  18.668  0.00  0.00    +0.000 OA
ATOM      5  C   UNL     1      -2.130  11.088  18.727  0.00  0.00    +0.000 A 
ATOM      6  C   UNL     1      -1.916  11.529  20.030  0.00  0.00    +0.000 A 
ATOM      7  C   UNL     1      -0.719  11.228  20.668  0.00  0.00    +0.000 A 
ATOM      8  C   UNL     1       0.255  10.460  20.019  0.00  0.00    +0.000 A 
ATOM      9  C   UNL     1       0.091  10.086  18.659  0.00  0.00    +0.000 A 
ATOM     10  C   UNL     1      -1.140  10.389  18.029  0.00  0.00    +0.000 A 
ATOM     11  O   UNL     1      -1.354   9.969  16.731  0.00  0.00    +0.000 OA
ENDROOT
BRANCH   1  13
ATOM     12  C   UNL     1      -3.985  10.180  14.028  0.00  0.00    +0.000 C 
ATOM     13  C   UNL     1      -2.630   9.881  14.654  0.00  0.00    +0.000 C 
ENDBRANCH   1  13
BRANCH   8  14
ATOM     14  O   UNL     1       1.396  10.020  20.649  0.00  0.00    +0.000 OA
BRANCH  14  15
ATOM     15  C   UNL     1       1.282   8.931  21.586  0.00  0.00    +0.000 C 
ATOM     16  C   UNL     1       1.510   9.396  23.026  0.00  0.00    +0.000 C 
ATOM     17  C   UNL     1      -0.138   8.380  21.467  0.00  0.00    +0.000 C 
ENDBRANCH  14  15
ENDBRANCH   8  14
BRANCH   9  18
ATOM     18  C   UNL     1       1.198   9.305  17.972  0.00  0.00    +0.000 C 
BRANCH  18  19
ATOM     19  O   UNL     1       1.288   7.964  18.453  0.00  0.00    +0.000 OA
BRANCH  19  20
ATOM     20  C   UNL     1       2.454   7.279  18.003  0.00  0.00    +0.000 C 
BRANCH  20  21
ATOM     21  C   UNL     1       2.443   5.838  18.512  0.00  0.00    +0.000 C 
ATOM     22  C   UNL     1       1.434   4.921  17.786  0.00  0.00    +0.000 C 
ATOM     23  C   UNL     1       1.882   3.512  18.219  0.00  0.00    +0.000 C 
ATOM     24  C   UNL     1       3.082   3.832  19.135  0.00  0.00    +0.000 C 
ATOM     25  C   UNL     1       3.945   2.639  19.478  0.00  0.00    +0.000 C 
ATOM     26  C   UNL     1       2.436   4.511  20.335  0.00  0.00    +0.000 C 
ATOM     27  O   UNL     1       2.220   4.052  21.437  0.00  0.00    +0.000 OA
ATOM     28  O   UNL     1       2.080   5.780  19.913  0.00  0.00    +0.000 OA
ATOM     29  C   UNL     1       3.769   5.047  18.472  0.00  0.00    +0.000 C 
ATOM     30  C   UNL     1       4.892   5.679  19.319  0.00  0.00    +0.000 C 
ATOM     31  C   UNL     1       4.356   4.767  17.078  0.00  0.00    +0.000 C 
ENDBRANCH  20  21
ENDBRANCH  19  20
ENDBRANCH  18  19
ENDBRANCH   9  18
TORSDOF 7
ENDMDL
MODEL 7
REMARK VINA RESULT:      -6.7      1.301      1.792
REMARK  Name = 
REMARK  13 active torsions:
REMARK  status: ('A' for Active; 'I' for Inactive)
REMARK    1  A    between atoms: C_1  and  C_2
REMARK    2  A    between atoms: C_2  and  C_3
REMARK    3  A    between atoms: C_10  and  O_11
REMARK    4  A    between atoms: O_11  and  C_12
REMARK    5  A    between atoms: C_12  and  C_13
REMARK    6  A    between atoms: C_12  and  C_14
REMARK    7  A    between atoms: C_15  and  C_16
REMARK    8  A    between atoms: C_16  and  O_17
REMARK    9  A    between atoms: O_17  and  C_18
REMARK   10  A    between atoms: C_18  and  C_19
REMARK   11  A    between atoms: C_22  and  C_23
REMARK   12  A    between atoms: C_27  and  C_28
REMARK   13  A    between atoms: C_27  and  C_29
REMARK                            x       y       z     vdW  Elec       q    Type
REMARK                         _______ _______ _______ _____ _____    ______ ____
ROOT
ATOM      1  C   UNL     1       6.977   7.640  17.701  0.00  0.00    +0.000 A 
ATOM      2  C   UNL     1       7.815   6.626  17.936  0.00  0.00    +0.000 A 
ATOM      3  C   UNL     1       7.270   5.287  18.176  0.00  0.00    +0.000 A 
ATOM      4  O   UNL     1       8.010   4.348  18.438  0.00  0.00    +0.000 OA
ATOM      5  C   UNL     1       5.811   5.149  18.082  0.00  0.00    +0.000 A 
ATOM      6  C   UNL     1       5.242   3.887  18.236  0.00  0.00    +0.000 A 
ATOM      7  C   UNL     1       3.860   3.751  18.205  0.00  0.00    +0.000 A 
ATOM      8  C   UNL     1       3.040   4.876  18.053  0.00  0.00    +0.000 A 
ATOM      9  C   UNL     1       3.609   6.152  17.800  0.00  0.00    +0.000 A 
ATOM     10  C   UNL     1       5.018   6.276  17.847  0.00  0.00    +0.000 A 
ATOM     11  O   UNL     1       5.591   7.521  17.679  0.00  0.00    +0.000 OA
ENDROOT
BRANCH   1  13
ATOM     12  C   UNL     1       8.599   9.462  18.340  0.00  0.00    +0.000 C 
ATOM     13  C   UNL     1       7.493   9.021  17.392  0.00  0.00    +0.000 C 
ENDBRANCH   1  13
BRANCH   8  14
ATOM     14  O   UNL     1       1.670   4.816  18.152  0.00  0.00    +0.000 OA
BRANCH  14  15
ATOM     15  C   UNL     1       1.091   4.469  19.426  0.00  0.00    +0.000 C 
ATOM     16  C   UNL     1       0.988   2.953  19.607  0.00  0.00    +0.000 C 
ATOM     17  C   UNL     1       2.012   5.031  20.508  0.00  0.00    +0.000 C 
ENDBRANCH  14  15
ENDBRANCH   8  14
BRANCH   9  18
ATOM     18  C   UNL     1       2.684   7.338  17.579  0.00  0.00    +0.000 C 
BRANCH  18  19
ATOM     19  O   UNL     1       2.475   8.086  18.776  0.00  0.00    +0.000 OA
BRANCH  19  20
ATOM     20  C   UNL     1       2.258   9.475  18.544  0.00  0.00    +0.000 C 
BRANCH  20  21
ATOM     21  C   UNL     1       0.926   9.907  19.156  0.00  0.00    +0.000 C 
ATOM     22  C   UNL     1       0.548   9.143  20.444  0.00  0.00    +0.000 C 
ATOM     23  C   UNL     1      -0.594   9.999  21.025  0.00  0.00    +0.000 C 
ATOM     24  C   UNL     1      -0.704  11.127  19.978  0.00  0.00    +0.000 C 
ATOM     25  C   UNL     1      -1.532  12.312  20.418  0.00  0.00    +0.000 C 
ATOM     26  C   UNL     1      -1.233  10.409  18.744  0.00  0.00    +0.000 C 
ATOM     27  O   UNL     1      -2.359  10.414  18.291  0.00  0.00    +0.000 OA
ATOM     28  O   UNL     1      -0.171   9.681  18.237  0.00  0.00    +0.000 OA
ATOM     29  C   UNL     1       0.751  11.394  19.534  0.00  0.00    +0.000 C 
ATOM     30  C   UNL     1       0.881  12.357  18.336  0.00  0.00    +0.000 C 
ATOM     31  C   UNL     1       1.670  11.929  20.646  0.00  0.00    +0.000 C 
ENDBRANCH  20  21
ENDBRANCH  19  20
ENDBRANCH  18  19
ENDBRANCH   9  18
TORSDOF 7
ENDMDL
MODEL 8
REMARK VINA RESULT:      -6.7      4.412      8.191
REMARK  Name = 
REMARK  13 active torsions:
REMARK  status: ('A' for Active; 'I' for Inactive)
REMARK    1  A    between atoms: C_1  and  C_2
REMARK    2  A    between atoms: C_2  and  C_3
REMARK    3  A    between atoms: C_10  and  O_11
REMARK    4  A    between atoms: O_11  and  C_12
REMARK    5  A    between atoms: C_12  and  C_13
REMARK    6  A    between atoms: C_12  and  C_14
REMARK    7  A    between atoms: C_15  and  C_16
REMARK    8  A    between atoms: C_16  and  O_17
REMARK    9  A    between atoms: O_17  and  C_18
REMARK   10  A    between atoms: C_18  and  C_19
REMARK   11  A    between atoms: C_22  and  C_23
REMARK   12  A    between atoms: C_27  and  C_28
REMARK   13  A    between atoms: C_27  and  C_29
REMARK                            x       y       z     vdW  Elec       q    Type
REMARK                         _______ _______ _______ _____ _____    ______ ____
ROOT
ATOM      1  C   UNL     1       1.106   9.066  20.453  0.00  0.00    +0.000 A 
ATOM      2  C   UNL     1       1.174   8.826  21.767  0.00  0.00    +0.000 A 
ATOM      3  C   UNL     1       0.373   9.640  22.686  0.00  0.00    +0.000 A 
ATOM      4  O   UNL     1       0.447   9.473  23.896  0.00  0.00    +0.000 OA
ATOM      5  C   UNL     1      -0.507  10.643  22.073  0.00  0.00    +0.000 A 
ATOM      6  C   UNL     1      -1.340  11.400  22.892  0.00  0.00    +0.000 A 
ATOM      7  C   UNL     1      -2.136  12.391  22.332  0.00  0.00    +0.000 A 
ATOM      8  C   UNL     1      -2.080  12.651  20.957  0.00  0.00    +0.000 A 
ATOM      9  C   UNL     1      -1.309  11.825  20.098  0.00  0.00    +0.000 A 
ATOM     10  C   UNL     1      -0.494  10.829  20.687  0.00  0.00    +0.000 A 
ATOM     11  O   UNL     1       0.324  10.062  19.879  0.00  0.00    +0.000 OA
ENDROOT
BRANCH   1  13
ATOM     12  C   UNL     1       1.830   8.781  18.054  0.00  0.00    +0.000 C 
ATOM     13  C   UNL     1       1.867   8.219  19.468  0.00  0.00    +0.000 C 
ENDBRANCH   1  13
BRANCH   8  14
ATOM     14  O   UNL     1      -2.741  13.706  20.373  0.00  0.00    +0.000 OA
BRANCH  14  15
ATOM     15  C   UNL     1      -3.482  14.604  21.223  0.00  0.00    +0.000 C 
ATOM     16  C   UNL     1      -2.903  16.019  21.195  0.00  0.00    +0.000 C 
ATOM     17  C   UNL     1      -4.915  14.648  20.693  0.00  0.00    +0.000 C 
ENDBRANCH  14  15
ENDBRANCH   8  14
BRANCH   9  18
ATOM     18  C   UNL     1      -1.322  12.102  18.605  0.00  0.00    +0.000 C 
BRANCH  18  19
ATOM     19  O   UNL     1      -0.673  13.331  18.280  0.00  0.00    +0.000 OA
BRANCH  19  20
ATOM     20  C   UNL     1       0.727  13.319  18.549  0.00  0.00    +0.000 C 
BRANCH  20  21
ATOM     21  C   UNL     1       1.181  14.701  19.019  0.00  0.00    +0.000 C 
ATOM     22  C   UNL     1       0.066  15.770  19.000  0.00  0.00    +0.000 C 
ATOM     23  C   UNL     1       0.675  16.911  19.838  0.00  0.00    +0.000 C 
ATOM     24  C   UNL     1       2.054  16.326  20.210  0.00  0.00    +0.000 C 
ATOM     25  C   UNL     1       2.783  17.079  21.298  0.00  0.00    +0.000 C 
ATOM     26  C   UNL     1       2.786  16.278  18.875  0.00  0.00    +0.000 C 
ATOM     27  O   UNL     1       3.651  17.022  18.461  0.00  0.00    +0.000 OA
ATOM     28  O   UNL     1       2.232  15.223  18.170  0.00  0.00    +0.000 OA
ATOM     29  C   UNL     1       1.794  14.819  20.431  0.00  0.00    +0.000 C 
ATOM     30  C   UNL     1       3.073  13.977  20.623  0.00  0.00    +0.000 C 
ATOM     31  C   UNL     1       0.861  14.498  21.611  0.00  0.00    +0.000 C 
ENDBRANCH  20  21
ENDBRANCH  19  20
ENDBRANCH  18  19
ENDBRANCH   9  18
TORSDOF 7
ENDMDL
MODEL 9
REMARK VINA RESULT:      -6.6      1.420      1.491
REMARK  Name = 
REMARK  13 active torsions:
REMARK  status: ('A' for Active; 'I' for Inactive)
REMARK    1  A    between atoms: C_1  and  C_2
REMARK    2  A    between atoms: C_2  and  C_3
REMARK    3  A    between atoms: C_10  and  O_11
REMARK    4  A    between atoms: O_11  and  C_12
REMARK    5  A    between atoms: C_12  and  C_13
REMARK    6  A    between atoms: C_12  and  C_14
REMARK    7  A    between atoms: C_15  and  C_16
REMARK    8  A    between atoms: C_16  and  O_17
REMARK    9  A    between atoms: O_17  and  C_18
REMARK   10  A    between atoms: C_18  and  C_19
REMARK   11  A    between atoms: C_22  and  C_23
REMARK   12  A    between atoms: C_27  and  C_28
REMARK   13  A    between atoms: C_27  and  C_29
REMARK                            x       y       z     vdW  Elec       q    Type
REMARK                         _______ _______ _______ _____ _____    ______ ____
ROOT
ATOM      1  C   UNL     1       7.347   7.860  17.966  0.00  0.00    +0.000 A 
ATOM      2  C   UNL     1       8.219   7.033  18.551  0.00  0.00    +0.000 A 
ATOM      3  C   UNL     1       7.757   5.728  19.032  0.00  0.00    +0.000 A 
ATOM      4  O   UNL     1       8.520   4.967  19.611  0.00  0.00    +0.000 OA
ATOM      5  C   UNL     1       6.348   5.399  18.775  0.00  0.00    +0.000 A 
ATOM      6  C   UNL     1       5.870   4.146  19.150  0.00  0.00    +0.000 A 
ATOM      7  C   UNL     1       4.527   3.842  18.965  0.00  0.00    +0.000 A 
ATOM      8  C   UNL     1       3.651   4.797  18.435  0.00  0.00    +0.000 A 
ATOM      9  C   UNL     1       4.144   6.042  17.960  0.00  0.00    +0.000 A 
ATOM     10  C   UNL     1       5.512   6.340  18.169  0.00  0.00    +0.000 A 
ATOM     11  O   UNL     1       5.998   7.575  17.785  0.00  0.00    +0.000 OA
ENDROOT
BRANCH   1  13
ATOM     12  C   UNL     1       8.801   9.895  18.296  0.00  0.00    +0.000 C 
ATOM     13  C   UNL     1       7.789   9.187  17.406  0.00  0.00    +0.000 C 
ENDBRANCH   1  13
BRANCH   8  14
ATOM     14  O   UNL     1       2.293   4.599  18.357  0.00  0.00    +0.000 OA
BRANCH  14  15
ATOM     15  C   UNL     1       1.668   3.753  19.344  0.00  0.00    +0.000 C 
ATOM     16  C   UNL     1       0.972   4.571  20.433  0.00  0.00    +0.000 C 
ATOM     17  C   UNL     1       0.621   2.910  18.617  0.00  0.00    +0.000 C 
ENDBRANCH  14  15
ENDBRANCH   8  14
BRANCH   9  18
ATOM     18  C   UNL     1       3.171   7.027  17.336  0.00  0.00    +0.000 C 
BRANCH  18  19
ATOM     19  O   UNL     1       3.014   8.204  18.128  0.00  0.00    +0.000 OA
BRANCH  19  20
ATOM     20  C   UNL     1       1.896   8.147  19.010  0.00  0.00    +0.000 C 
BRANCH  20  21
ATOM     21  C   UNL     1       1.091   9.443  18.920  0.00  0.00    +0.000 C 
ATOM     22  C   UNL     1      -0.071   9.393  17.903  0.00  0.00    +0.000 C 
ATOM     23  C   UNL     1      -0.902  10.636  18.274  0.00  0.00    +0.000 C 
ATOM     24  C   UNL     1      -0.088  11.218  19.449  0.00  0.00    +0.000 C 
ATOM     25  C   UNL     1      -0.809  12.279  20.248  0.00  0.00    +0.000 C 
ATOM     26  C   UNL     1       1.198  11.691  18.785  0.00  0.00    +0.000 C 
ATOM     27  O   UNL     1       1.532  12.824  18.506  0.00  0.00    +0.000 OA
ATOM     28  O   UNL     1       1.926  10.549  18.498  0.00  0.00    +0.000 OA
ATOM     29  C   UNL     1       0.440   9.982  20.212  0.00  0.00    +0.000 C 
ATOM     30  C   UNL     1       1.454  10.311  21.326  0.00  0.00    +0.000 C 
ATOM     31  C   UNL     1      -0.656   9.105  20.842  0.00  0.00    +0.000 C 
ENDBRANCH  20  21
ENDBRANCH  19  20
ENDBRANCH  18  19
ENDBRANCH   9  18
TORSDOF 7
ENDMDL
