MODEL 1
REMARK VINA RESULT:      -8.9      0.000      0.000
REMARK  Name = 
REMARK  8 active torsions:
REMARK  status: ('A' for Active; 'I' for Inactive)
REMARK    1  A    between atoms: C_1  and  C_2
REMARK    2  A    between atoms: C_2  and  C_4
REMARK    3  A    between atoms: C_11  and  C_12
REMARK    4  A    between atoms: C_15  and  N_16
REMARK    5  A    between atoms: C_17  and  C_19
REMARK    6  A    between atoms: C_19  and  O_20
REMARK    7  A    between atoms: O_20  and  C_21
REMARK    8  A    between atoms: C_26  and  C_27
REMARK                            x       y       z     vdW  Elec       q    Type
REMARK                         _______ _______ _______ _____ _____    ______ ____
ROOT
ATOM      1  C   UNL     1       2.048   7.983  19.331  0.00  0.00    +0.000 A 
ATOM      2  C   UNL     1       2.488   6.824  19.987  0.00  0.00    +0.000 A 
ATOM      3  C   UNL     1       3.403   5.963  19.376  0.00  0.00    +0.000 A 
ATOM      4  C   UNL     1       3.874   6.246  18.097  0.00  0.00    +0.000 A 
ATOM      5  C   UNL     1       3.430   7.375  17.413  0.00  0.00    +0.000 A 
ATOM      6  C   UNL     1       2.517   8.238  18.028  0.00  0.00    +0.000 A 
ENDROOT
BRANCH   1  14
ATOM      7  C   UNL     1      -1.109  11.628  19.656  0.00  0.00    +0.000 A 
ATOM      8  C   UNL     1      -1.822  12.191  20.730  0.00  0.00    +0.000 A 
ATOM      9  C   UNL     1      -1.660  11.713  22.034  0.00  0.00    +0.000 A 
ATOM     10 BR   UNL     1      -2.650  12.498  23.444  0.00  0.00    +0.000 Br
ATOM     11  C   UNL     1      -0.779  10.662  22.328  0.00  0.00    +0.000 A 
ATOM     12  C   UNL     1      -0.060  10.100  21.268  0.00  0.00    +0.000 A 
ATOM     13  N   UNL     1       0.861   9.082  21.254  0.00  0.00    +0.000 NA
ATOM     14  C   UNL     1       1.169   8.948  19.978  0.00  0.00    +0.000 A 
ATOM     15  O   UNL     1       0.540   9.840  19.150  0.00  0.00    +0.000 OA
ATOM     16  C   UNL     1      -0.249  10.582  19.981  0.00  0.00    +0.000 A 
BRANCH   7  18
ATOM     17  C   UNL     1      -2.208  11.415  17.334  0.00  0.00    +0.000 C 
ATOM     18  C   UNL     1      -1.289  12.143  18.280  0.00  0.00    +0.000 C 
ATOM     19  O   UNL     1      -0.681  13.152  17.934  0.00  0.00    +0.000 OA
ENDBRANCH   7  18
ENDBRANCH   1  14
BRANCH   4  20
ATOM     20  N   UNL     1       4.839   5.409  17.537  0.00  0.00    +0.000 N 
ATOM     21  C   UNL     1       4.598   4.205  16.924  0.00  0.00    +0.000 C 
ATOM     22  O   UNL     1       5.539   3.578  16.432  0.00  0.00    +0.000 OA
ATOM     23  H   UNL     1       5.770   5.781  17.383  0.00  0.00    +0.000 HD
BRANCH  21  24
ATOM     24  C   UNL     1       3.165   3.692  16.865  0.00  0.00    +0.000 C 
BRANCH  24  25
ATOM     25  O   UNL     1       3.085   2.559  17.723  0.00  0.00    +0.000 OA
BRANCH  25  26
ATOM     26  C   UNL     1       2.454   2.731  18.927  0.00  0.00    +0.000 A 
ATOM     27  C   UNL     1       1.118   3.110  19.075  0.00  0.00    +0.000 A 
ATOM     28  C   UNL     1       0.558   3.250  20.347  0.00  0.00    +0.000 A 
ATOM     29  C   UNL     1       1.331   3.019  21.479  0.00  0.00    +0.000 A 
ATOM     30  C   UNL     1       2.668   2.647  21.343  0.00  0.00    +0.000 A 
ATOM     31  C   UNL     1       3.242   2.499  20.070  0.00  0.00    +0.000 A 
ATOM     32  C   UNL     1       4.689   2.107  19.950  0.00  0.00    +0.000 C 
ENDBRANCH  25  26
ENDBRANCH  24  25
ENDBRANCH  21  24
ENDBRANCH   4  20
TORSDOF 6
ENDMDL
MODEL 2
REMARK VINA RESULT:      -8.3      2.473      4.389
REMARK  Name = 
REMARK  8 active torsions:
REMARK  status: ('A' for Active; 'I' for Inactive)
REMARK    1  A    between atoms: C_1  and  C_2
REMARK    2  A    between atoms: C_2  and  C_4
REMARK    3  A    between atoms: C_11  and  C_12
REMARK    4  A    between atoms: C_15  and  N_16
REMARK    5  A    between atoms: C_17  and  C_19
REMARK    6  A    between atoms: C_19  and  O_20
REMARK    7  A    between atoms: O_20  and  C_21
REMARK    8  A    between atoms: C_26  and  C_27
REMARK                            x       y       z     vdW  Elec       q    Type
REMARK                         _______ _______ _______ _____ _____    ______ ____
ROOT
ATOM      1  C   UNL     1       1.737   7.681  19.479  0.00  0.00    +0.000 A 
ATOM      2  C   UNL     1       2.330   7.155  18.321  0.00  0.00    +0.000 A 
ATOM      3  C   UNL     1       2.637   5.796  18.232  0.00  0.00    +0.000 A 
ATOM      4  C   UNL     1       2.368   4.952  19.307  0.00  0.00    +0.000 A 
ATOM      5  C   UNL     1       1.807   5.455  20.478  0.00  0.00    +0.000 A 
ATOM      6  C   UNL     1       1.496   6.816  20.563  0.00  0.00    +0.000 A 
ENDROOT
BRANCH   1  14
ATOM      7  C   UNL     1      -0.220  11.639  21.443  0.00  0.00    +0.000 A 
ATOM      8  C   UNL     1      -0.281  12.985  21.039  0.00  0.00    +0.000 A 
ATOM      9  C   UNL     1       0.276  13.400  19.826  0.00  0.00    +0.000 A 
ATOM     10 BR   UNL     1       0.177  15.225  19.332  0.00  0.00    +0.000 Br
ATOM     11  C   UNL     1       0.909  12.497  18.959  0.00  0.00    +0.000 A 
ATOM     12  C   UNL     1       0.968  11.155  19.349  0.00  0.00    +0.000 A 
ATOM     13  N   UNL     1       1.511  10.064  18.715  0.00  0.00    +0.000 NA
ATOM     14  C   UNL     1       1.318   9.074  19.565  0.00  0.00    +0.000 A 
ATOM     15  O   UNL     1       0.648   9.432  20.705  0.00  0.00    +0.000 OA
ATOM     16  C   UNL     1       0.421  10.771  20.564  0.00  0.00    +0.000 A 
BRANCH   7  18
ATOM     17  C   UNL     1      -2.151  11.767  23.146  0.00  0.00    +0.000 C 
ATOM     18  C   UNL     1      -0.814  11.211  22.729  0.00  0.00    +0.000 C 
ATOM     19  O   UNL     1      -0.203  10.415  23.437  0.00  0.00    +0.000 OA
ENDBRANCH   7  18
ENDBRANCH   1  14
BRANCH   4  20
ATOM     20  N   UNL     1       2.619   3.587  19.168  0.00  0.00    +0.000 N 
ATOM     21  C   UNL     1       3.839   2.976  19.323  0.00  0.00    +0.000 C 
ATOM     22  O   UNL     1       3.920   1.751  19.212  0.00  0.00    +0.000 OA
ATOM     23  H   UNL     1       1.830   2.951  19.143  0.00  0.00    +0.000 HD
BRANCH  21  24
ATOM     24  C   UNL     1       5.052   3.842  19.640  0.00  0.00    +0.000 C 
BRANCH  24  25
ATOM     25  O   UNL     1       5.831   3.929  18.452  0.00  0.00    +0.000 OA
BRANCH  25  26
ATOM     26  C   UNL     1       6.504   5.101  18.230  0.00  0.00    +0.000 A 
ATOM     27  C   UNL     1       7.438   5.658  19.107  0.00  0.00    +0.000 A 
ATOM     28  C   UNL     1       8.082   6.855  18.790  0.00  0.00    +0.000 A 
ATOM     29  C   UNL     1       7.793   7.508  17.597  0.00  0.00    +0.000 A 
ATOM     30  C   UNL     1       6.857   6.966  16.717  0.00  0.00    +0.000 A 
ATOM     31  C   UNL     1       6.206   5.760  17.023  0.00  0.00    +0.000 A 
ATOM     32  C   UNL     1       5.192   5.200  16.062  0.00  0.00    +0.000 C 
ENDBRANCH  25  26
ENDBRANCH  24  25
ENDBRANCH  21  24
ENDBRANCH   4  20
TORSDOF 6
ENDMDL
MODEL 3
REMARK VINA RESULT:      -8.2      1.238      1.516
REMARK  Name = 
REMARK  8 active torsions:
REMARK  status: ('A' for Active; 'I' for Inactive)
REMARK    1  A    between atoms: C_1  and  C_2
REMARK    2  A    between atoms: C_2  and  C_4
REMARK    3  A    between atoms: C_11  and  C_12
REMARK    4  A    between atoms: C_15  and  N_16
REMARK    5  A    between atoms: C_17  and  C_19
REMARK    6  A    between atoms: C_19  and  O_20
REMARK    7  A    between atoms: O_20  and  C_21
REMARK    8  A    between atoms: C_26  and  C_27
REMARK                            x       y       z     vdW  Elec       q    Type
REMARK                         _______ _______ _______ _____ _____    ______ ____
ROOT
ATOM      1  C   UNL     1       1.897   8.374  18.772  0.00  0.00    +0.000 A 
ATOM      2  C   UNL     1       2.217   7.357  19.683  0.00  0.00    +0.000 A 
ATOM      3  C   UNL     1       3.278   6.483  19.431  0.00  0.00    +0.000 A 
ATOM      4  C   UNL     1       4.017   6.610  18.258  0.00  0.00    +0.000 A 
ATOM      5  C   UNL     1       3.700   7.594  17.325  0.00  0.00    +0.000 A 
ATOM      6  C   UNL     1       2.641   8.470  17.581  0.00  0.00    +0.000 A 
ENDROOT
BRANCH   1  14
ATOM      7  C   UNL     1      -2.171  10.891  18.078  0.00  0.00    +0.000 A 
ATOM      8  C   UNL     1      -2.864  11.835  18.858  0.00  0.00    +0.000 A 
ATOM      9  C   UNL     1      -2.374  12.241  20.103  0.00  0.00    +0.000 A 
ATOM     10 BR   UNL     1      -3.350  13.506  21.119  0.00  0.00    +0.000 Br
ATOM     11  C   UNL     1      -1.174  11.736  20.622  0.00  0.00    +0.000 A 
ATOM     12  C   UNL     1      -0.474  10.803  19.851  0.00  0.00    +0.000 A 
ATOM     13  N   UNL     1       0.711  10.151  20.095  0.00  0.00    +0.000 NA
ATOM     14  C   UNL     1       0.860   9.359  19.050  0.00  0.00    +0.000 A 
ATOM     15  O   UNL     1      -0.131   9.474  18.111  0.00  0.00    +0.000 OA
ATOM     16  C   UNL     1      -0.987  10.404  18.626  0.00  0.00    +0.000 A 
BRANCH   7  18
ATOM     17  C   UNL     1      -3.627  11.387  16.010  0.00  0.00    +0.000 C 
ATOM     18  C   UNL     1      -2.698  10.470  16.761  0.00  0.00    +0.000 C 
ATOM     19  O   UNL     1      -2.373   9.375  16.308  0.00  0.00    +0.000 OA
ENDBRANCH   7  18
ENDBRANCH   1  14
BRANCH   4  20
ATOM     20  N   UNL     1       5.114   5.771  18.063  0.00  0.00    +0.000 N 
ATOM     21  C   UNL     1       5.084   4.540  17.454  0.00  0.00    +0.000 C 
ATOM     22  O   UNL     1       6.135   3.913  17.307  0.00  0.00    +0.000 OA
ATOM     23  H   UNL     1       6.044   6.153  18.193  0.00  0.00    +0.000 HD
BRANCH  21  24
ATOM     24  C   UNL     1       3.744   4.000  16.971  0.00  0.00    +0.000 C 
BRANCH  24  25
ATOM     25  O   UNL     1       3.456   2.837  17.739  0.00  0.00    +0.000 OA
BRANCH  25  26
ATOM     26  C   UNL     1       2.691   3.004  18.863  0.00  0.00    +0.000 A 
ATOM     27  C   UNL     1       1.402   3.541  18.872  0.00  0.00    +0.000 A 
ATOM     28  C   UNL     1       0.694   3.664  20.070  0.00  0.00    +0.000 A 
ATOM     29  C   UNL     1       1.272   3.256  21.266  0.00  0.00    +0.000 A 
ATOM     30  C   UNL     1       2.561   2.725  21.270  0.00  0.00    +0.000 A 
ATOM     31  C   UNL     1       3.282   2.593  20.073  0.00  0.00    +0.000 A 
ATOM     32  C   UNL     1       4.675   2.027  20.103  0.00  0.00    +0.000 C 
ENDBRANCH  25  26
ENDBRANCH  24  25
ENDBRANCH  21  24
ENDBRANCH   4  20
TORSDOF 6
ENDMDL
MODEL 4
REMARK VINA RESULT:      -8.1      0.400      1.266
REMARK  Name = 
REMARK  8 active torsions:
REMARK  status: ('A' for Active; 'I' for Inactive)
REMARK    1  A    between atoms: C_1  and  C_2
REMARK    2  A    between atoms: C_2  and  C_4
REMARK    3  A    between atoms: C_11  and  C_12
REMARK    4  A    between atoms: C_15  and  N_16
REMARK    5  A    between atoms: C_17  and  C_19
REMARK    6  A    between atoms: C_19  and  O_20
REMARK    7  A    between atoms: O_20  and  C_21
REMARK    8  A    between atoms: C_26  and  C_27
REMARK                            x       y       z     vdW  Elec       q    Type
REMARK                         _______ _______ _______ _____ _____    ______ ____
ROOT
ATOM      1  C   UNL     1       1.952   8.010  19.393  0.00  0.00    +0.000 A 
ATOM      2  C   UNL     1       2.344   6.834  20.048  0.00  0.00    +0.000 A 
ATOM      3  C   UNL     1       3.241   5.947  19.446  0.00  0.00    +0.000 A 
ATOM      4  C   UNL     1       3.740   6.223  18.176  0.00  0.00    +0.000 A 
ATOM      5  C   UNL     1       3.344   7.370  17.493  0.00  0.00    +0.000 A 
ATOM      6  C   UNL     1       2.451   8.258  18.100  0.00  0.00    +0.000 A 
ENDROOT
BRANCH   1  14
ATOM      7  C   UNL     1      -1.129  11.721  19.690  0.00  0.00    +0.000 A 
ATOM      8  C   UNL     1      -1.828  12.310  20.761  0.00  0.00    +0.000 A 
ATOM      9  C   UNL     1      -1.672  11.840  22.069  0.00  0.00    +0.000 A 
ATOM     10 BR   UNL     1      -2.642  12.660  23.473  0.00  0.00    +0.000 Br
ATOM     11  C   UNL     1      -0.811  10.775  22.371  0.00  0.00    +0.000 A 
ATOM     12  C   UNL     1      -0.107  10.189  21.314  0.00  0.00    +0.000 A 
ATOM     13  N   UNL     1       0.793   9.151  21.308  0.00  0.00    +0.000 NA
ATOM     14  C   UNL     1       1.095   9.000  20.033  0.00  0.00    +0.000 A 
ATOM     15  O   UNL     1       0.482   9.896  19.198  0.00  0.00    +0.000 OA
ATOM     16  C   UNL     1      -0.290  10.662  20.024  0.00  0.00    +0.000 A 
BRANCH   7  18
ATOM     17  C   UNL     1      -2.231  11.503  17.370  0.00  0.00    +0.000 C 
ATOM     18  C   UNL     1      -1.302  12.227  18.310  0.00  0.00    +0.000 C 
ATOM     19  O   UNL     1      -0.680  13.224  17.955  0.00  0.00    +0.000 OA
ENDBRANCH   7  18
ENDBRANCH   1  14
BRANCH   4  20
ATOM     20  N   UNL     1       4.687   5.358  17.626  0.00  0.00    +0.000 N 
ATOM     21  C   UNL     1       4.416   4.175  16.985  0.00  0.00    +0.000 C 
ATOM     22  O   UNL     1       5.344   3.520  16.506  0.00  0.00    +0.000 OA
ATOM     23  H   UNL     1       5.635   5.696  17.502  0.00  0.00    +0.000 HD
BRANCH  21  24
ATOM     24  C   UNL     1       2.966   3.719  16.881  0.00  0.00    +0.000 C 
BRANCH  24  25
ATOM     25  O   UNL     1       2.870   2.462  17.541  0.00  0.00    +0.000 OA
BRANCH  25  26
ATOM     26  C   UNL     1       2.834   2.475  18.910  0.00  0.00    +0.000 A 
ATOM     27  C   UNL     1       3.953   2.336  19.734  0.00  0.00    +0.000 A 
ATOM     28  C   UNL     1       3.819   2.372  21.124  0.00  0.00    +0.000 A 
ATOM     29  C   UNL     1       2.564   2.541  21.699  0.00  0.00    +0.000 A 
ATOM     30  C   UNL     1       1.439   2.674  20.886  0.00  0.00    +0.000 A 
ATOM     31  C   UNL     1       1.561   2.643  19.488  0.00  0.00    +0.000 A 
ATOM     32  C   UNL     1       0.332   2.777  18.632  0.00  0.00    +0.000 C 
ENDBRANCH  25  26
ENDBRANCH  24  25
ENDBRANCH  21  24
ENDBRANCH   4  20
TORSDOF 6
ENDMDL
MODEL 5
REMARK VINA RESULT:      -7.9      1.192      1.655
REMARK  Name = 
REMARK  8 active torsions:
REMARK  status: ('A' for Active; 'I' for Inactive)
REMARK    1  A    between atoms: C_1  and  C_2
REMARK    2  A    between atoms: C_2  and  C_4
REMARK    3  A    between atoms: C_11  and  C_12
REMARK    4  A    between atoms: C_15  and  N_16
REMARK    5  A    between atoms: C_17  and  C_19
REMARK    6  A    between atoms: C_19  and  O_20
REMARK    7  A    between atoms: O_20  and  C_21
REMARK    8  A    between atoms: C_26  and  C_27
REMARK                            x       y       z     vdW  Elec       q    Type
REMARK                         _______ _______ _______ _____ _____    ______ ____
ROOT
ATOM      1  C   UNL     1       2.119   8.416  18.688  0.00  0.00    +0.000 A 
ATOM      2  C   UNL     1       2.872   8.547  17.512  0.00  0.00    +0.000 A 
ATOM      3  C   UNL     1       3.783   7.557  17.134  0.00  0.00    +0.000 A 
ATOM      4  C   UNL     1       3.959   6.435  17.939  0.00  0.00    +0.000 A 
ATOM      5  C   UNL     1       3.245   6.295  19.126  0.00  0.00    +0.000 A 
ATOM      6  C   UNL     1       2.331   7.284  19.499  0.00  0.00    +0.000 A 
ENDROOT
BRANCH   1  14
ATOM      7  C   UNL     1      -2.085  10.785  18.428  0.00  0.00    +0.000 A 
ATOM      8  C   UNL     1      -2.704  11.742  19.254  0.00  0.00    +0.000 A 
ATOM      9  C   UNL     1      -2.071  12.216  20.407  0.00  0.00    +0.000 A 
ATOM     10 BR   UNL     1      -2.950  13.497  21.490  0.00  0.00    +0.000 Br
ATOM     11  C   UNL     1      -0.798  11.768  20.786  0.00  0.00    +0.000 A 
ATOM     12  C   UNL     1      -0.172  10.822  19.968  0.00  0.00    +0.000 A 
ATOM     13  N   UNL     1       1.055  10.215  20.083  0.00  0.00    +0.000 NA
ATOM     14  C   UNL     1       1.094   9.383  19.059  0.00  0.00    +0.000 A 
ATOM     15  O   UNL     1      -0.011   9.428  18.253  0.00  0.00    +0.000 OA
ATOM     16  C   UNL     1      -0.825  10.356  18.837  0.00  0.00    +0.000 A 
BRANCH   7  18
ATOM     17  C   UNL     1      -2.610  11.055  15.919  0.00  0.00    +0.000 C 
ATOM     18  C   UNL     1      -2.763  10.292  17.209  0.00  0.00    +0.000 C 
ATOM     19  O   UNL     1      -3.443   9.271  17.273  0.00  0.00    +0.000 OA
ENDBRANCH   7  18
ENDBRANCH   1  14
BRANCH   4  20
ATOM     20  N   UNL     1       4.823   5.428  17.505  0.00  0.00    +0.000 N 
ATOM     21  C   UNL     1       4.443   4.212  16.992  0.00  0.00    +0.000 C 
ATOM     22  O   UNL     1       5.308   3.423  16.606  0.00  0.00    +0.000 OA
ATOM     23  H   UNL     1       5.800   5.657  17.364  0.00  0.00    +0.000 HD
BRANCH  21  24
ATOM     24  C   UNL     1       2.956   3.890  16.909  0.00  0.00    +0.000 C 
BRANCH  24  25
ATOM     25  O   UNL     1       2.735   2.714  17.680  0.00  0.00    +0.000 OA
BRANCH  25  26
ATOM     26  C   UNL     1       2.277   2.883  18.960  0.00  0.00    +0.000 A 
ATOM     27  C   UNL     1       1.031   3.422  19.291  0.00  0.00    +0.000 A 
ATOM     28  C   UNL     1       0.646   3.547  20.628  0.00  0.00    +0.000 A 
ATOM     29  C   UNL     1       1.505   3.139  21.642  0.00  0.00    +0.000 A 
ATOM     30  C   UNL     1       2.753   2.606  21.323  0.00  0.00    +0.000 A 
ATOM     31  C   UNL     1       3.151   2.473  19.983  0.00  0.00    +0.000 A 
ATOM     32  C   UNL     1       4.507   1.904  19.665  0.00  0.00    +0.000 C 
ENDBRANCH  25  26
ENDBRANCH  24  25
ENDBRANCH  21  24
ENDBRANCH   4  20
TORSDOF 6
ENDMDL
MODEL 6
REMARK VINA RESULT:      -7.9      2.236      3.927
REMARK  Name = 
REMARK  8 active torsions:
REMARK  status: ('A' for Active; 'I' for Inactive)
REMARK    1  A    between atoms: C_1  and  C_2
REMARK    2  A    between atoms: C_2  and  C_4
REMARK    3  A    between atoms: C_11  and  C_12
REMARK    4  A    between atoms: C_15  and  N_16
REMARK    5  A    between atoms: C_17  and  C_19
REMARK    6  A    between atoms: C_19  and  O_20
REMARK    7  A    between atoms: O_20  and  C_21
REMARK    8  A    between atoms: C_26  and  C_27
REMARK                            x       y       z     vdW  Elec       q    Type
REMARK                         _______ _______ _______ _____ _____    ______ ____
ROOT
ATOM      1  C   UNL     1       1.595   7.423  20.099  0.00  0.00    +0.000 A 
ATOM      2  C   UNL     1       2.187   7.324  18.832  0.00  0.00    +0.000 A 
ATOM      3  C   UNL     1       2.551   6.080  18.310  0.00  0.00    +0.000 A 
ATOM      4  C   UNL     1       2.338   4.926  19.059  0.00  0.00    +0.000 A 
ATOM      5  C   UNL     1       1.778   5.000  20.331  0.00  0.00    +0.000 A 
ATOM      6  C   UNL     1       1.411   6.246  20.849  0.00  0.00    +0.000 A 
ENDROOT
BRANCH   1  14
ATOM      7  C   UNL     1       0.814  12.191  20.239  0.00  0.00    +0.000 A 
ATOM      8  C   UNL     1       0.088  13.022  21.111  0.00  0.00    +0.000 A 
ATOM      9  C   UNL     1      -0.571  12.497  22.227  0.00  0.00    +0.000 A 
ATOM     10 BR   UNL     1      -1.543  13.657  23.365  0.00  0.00    +0.000 Br
ATOM     11  C   UNL     1      -0.532  11.128  22.528  0.00  0.00    +0.000 A 
ATOM     12  C   UNL     1       0.193  10.294  21.670  0.00  0.00    +0.000 A 
ATOM     13  N   UNL     1       0.408   8.938  21.715  0.00  0.00    +0.000 NA
ATOM     14  C   UNL     1       1.119   8.694  20.630  0.00  0.00    +0.000 A 
ATOM     15  O   UNL     1       1.420   9.807  19.891  0.00  0.00    +0.000 OA
ATOM     16  C   UNL     1       0.826  10.836  20.563  0.00  0.00    +0.000 A 
BRANCH   7  18
ATOM     17  C   UNL     1       1.296  14.206  18.707  0.00  0.00    +0.000 C 
ATOM     18  C   UNL     1       1.509  12.758  19.062  0.00  0.00    +0.000 C 
ATOM     19  O   UNL     1       2.243  12.035  18.393  0.00  0.00    +0.000 OA
ENDBRANCH   7  18
ENDBRANCH   1  14
BRANCH   4  20
ATOM     20  N   UNL     1       2.645   3.690  18.488  0.00  0.00    +0.000 N 
ATOM     21  C   UNL     1       3.871   3.073  18.521  0.00  0.00    +0.000 C 
ATOM     22  O   UNL     1       4.001   1.959  18.010  0.00  0.00    +0.000 OA
ATOM     23  H   UNL     1       1.881   3.093  18.191  0.00  0.00    +0.000 HD
BRANCH  21  24
ATOM     24  C   UNL     1       5.029   3.792  19.202  0.00  0.00    +0.000 C 
BRANCH  24  25
ATOM     25  O   UNL     1       6.067   3.929  18.238  0.00  0.00    +0.000 OA
BRANCH  25  26
ATOM     26  C   UNL     1       6.662   5.159  18.132  0.00  0.00    +0.000 A 
ATOM     27  C   UNL     1       7.600   5.666  19.035  0.00  0.00    +0.000 A 
ATOM     28  C   UNL     1       8.161   6.929  18.838  0.00  0.00    +0.000 A 
ATOM     29  C   UNL     1       7.785   7.697  17.741  0.00  0.00    +0.000 A 
ATOM     30  C   UNL     1       6.844   7.203  16.838  0.00  0.00    +0.000 A 
ATOM     31  C   UNL     1       6.275   5.933  17.023  0.00  0.00    +0.000 A 
ATOM     32  C   UNL     1       5.255   5.427  16.040  0.00  0.00    +0.000 C 
ENDBRANCH  25  26
ENDBRANCH  24  25
ENDBRANCH  21  24
ENDBRANCH   4  20
TORSDOF 6
ENDMDL
MODEL 7
REMARK VINA RESULT:      -7.8      3.308      9.337
REMARK  Name = 
REMARK  8 active torsions:
REMARK  status: ('A' for Active; 'I' for Inactive)
REMARK    1  A    between atoms: C_1  and  C_2
REMARK    2  A    between atoms: C_2  and  C_4
REMARK    3  A    between atoms: C_11  and  C_12
REMARK    4  A    between atoms: C_15  and  N_16
REMARK    5  A    between atoms: C_17  and  C_19
REMARK    6  A    between atoms: C_19  and  O_20
REMARK    7  A    between atoms: O_20  and  C_21
REMARK    8  A    between atoms: C_26  and  C_27
REMARK                            x       y       z     vdW  Elec       q    Type
REMARK                         _______ _______ _______ _____ _____    ______ ____
ROOT
ATOM      1  C   UNL     1       1.834   8.176  19.365  0.00  0.00    +0.000 A 
ATOM      2  C   UNL     1       1.391   9.430  18.918  0.00  0.00    +0.000 A 
ATOM      3  C   UNL     1       0.634  10.257  19.751  0.00  0.00    +0.000 A 
ATOM      4  C   UNL     1       0.300   9.830  21.034  0.00  0.00    +0.000 A 
ATOM      5  C   UNL     1       0.703   8.577  21.490  0.00  0.00    +0.000 A 
ATOM      6  C   UNL     1       1.465   7.753  20.656  0.00  0.00    +0.000 A 
ENDROOT
BRANCH   1  14
ATOM      7  C   UNL     1       3.569   4.092  17.450  0.00  0.00    +0.000 A 
ATOM      8  C   UNL     1       4.551   3.825  16.478  0.00  0.00    +0.000 A 
ATOM      9  C   UNL     1       5.272   4.862  15.877  0.00  0.00    +0.000 A 
ATOM     10 BR   UNL     1       6.575   4.452  14.566  0.00  0.00    +0.000 Br
ATOM     11  C   UNL     1       5.055   6.204  16.220  0.00  0.00    +0.000 A 
ATOM     12  C   UNL     1       4.086   6.479  17.191  0.00  0.00    +0.000 A 
ATOM     13  N   UNL     1       3.668   7.675  17.722  0.00  0.00    +0.000 NA
ATOM     14  C   UNL     1       2.704   7.333  18.555  0.00  0.00    +0.000 A 
ATOM     15  O   UNL     1       2.483   5.984  18.638  0.00  0.00    +0.000 OA
ATOM     16  C   UNL     1       3.374   5.435  17.762  0.00  0.00    +0.000 A 
BRANCH   7  18
ATOM     17  C   UNL     1       3.488   2.128  19.116  0.00  0.00    +0.000 C 
ATOM     18  C   UNL     1       2.813   2.987  18.079  0.00  0.00    +0.000 C 
ATOM     19  O   UNL     1       1.650   2.786  17.740  0.00  0.00    +0.000 OA
ENDBRANCH   7  18
ENDBRANCH   1  14
BRANCH   4  20
ATOM     20  N   UNL     1      -0.396  10.702  21.871  0.00  0.00    +0.000 N 
ATOM     21  C   UNL     1      -1.186  11.747  21.462  0.00  0.00    +0.000 C 
ATOM     22  O   UNL     1      -1.782  12.421  22.305  0.00  0.00    +0.000 OA
ATOM     23  H   UNL     1      -0.503  10.451  22.848  0.00  0.00    +0.000 HD
BRANCH  21  24
ATOM     24  C   UNL     1      -1.305  12.029  19.969  0.00  0.00    +0.000 C 
BRANCH  24  25
ATOM     25  O   UNL     1      -2.684  11.937  19.630  0.00  0.00    +0.000 OA
BRANCH  25  26
ATOM     26  C   UNL     1      -2.990  11.528  18.358  0.00  0.00    +0.000 A 
ATOM     27  C   UNL     1      -2.073  10.971  17.463  0.00  0.00    +0.000 A 
ATOM     28  C   UNL     1      -2.481  10.573  16.188  0.00  0.00    +0.000 A 
ATOM     29  C   UNL     1      -3.806  10.735  15.797  0.00  0.00    +0.000 A 
ATOM     30  C   UNL     1      -4.727  11.295  16.680  0.00  0.00    +0.000 A 
ATOM     31  C   UNL     1      -4.331  11.696  17.966  0.00  0.00    +0.000 A 
ATOM     32  C   UNL     1      -5.341  12.308  18.897  0.00  0.00    +0.000 C 
ENDBRANCH  25  26
ENDBRANCH  24  25
ENDBRANCH  21  24
ENDBRANCH   4  20
TORSDOF 6
ENDMDL
MODEL 8
REMARK VINA RESULT:      -7.8      2.308      4.129
REMARK  Name = 
REMARK  8 active torsions:
REMARK  status: ('A' for Active; 'I' for Inactive)
REMARK    1  A    between atoms: C_1  and  C_2
REMARK    2  A    between atoms: C_2  and  C_4
REMARK    3  A    between atoms: C_11  and  C_12
REMARK    4  A    between atoms: C_15  and  N_16
REMARK    5  A    between atoms: C_17  and  C_19
REMARK    6  A    between atoms: C_19  and  O_20
REMARK    7  A    between atoms: O_20  and  C_21
REMARK    8  A    between atoms: C_26  and  C_27
REMARK                            x       y       z     vdW  Elec       q    Type
REMARK                         _______ _______ _______ _____ _____    ______ ____
ROOT
ATOM      1  C   UNL     1       1.724   7.794  19.429  0.00  0.00    +0.000 A 
ATOM      2  C   UNL     1       2.243   7.249  18.245  0.00  0.00    +0.000 A 
ATOM      3  C   UNL     1       2.526   5.884  18.153  0.00  0.00    +0.000 A 
ATOM      4  C   UNL     1       2.308   5.055  19.250  0.00  0.00    +0.000 A 
ATOM      5  C   UNL     1       1.820   5.577  20.445  0.00  0.00    +0.000 A 
ATOM      6  C   UNL     1       1.533   6.943  20.534  0.00  0.00    +0.000 A 
ENDROOT
BRANCH   1  14
ATOM      7  C   UNL     1      -0.182  11.768  21.412  0.00  0.00    +0.000 A 
ATOM      8  C   UNL     1      -0.214  13.119  21.019  0.00  0.00    +0.000 A 
ATOM      9  C   UNL     1       0.362  13.535  19.815  0.00  0.00    +0.000 A 
ATOM     10 BR   UNL     1       0.301  15.366  19.337  0.00  0.00    +0.000 Br
ATOM     11  C   UNL     1       0.987  12.629  18.947  0.00  0.00    +0.000 A 
ATOM     12  C   UNL     1       1.019  11.282  19.324  0.00  0.00    +0.000 A 
ATOM     13  N   UNL     1       1.548  10.188  18.685  0.00  0.00    +0.000 NA
ATOM     14  C   UNL     1       1.329   9.193  19.525  0.00  0.00    +0.000 A 
ATOM     15  O   UNL     1       0.654   9.553  20.660  0.00  0.00    +0.000 OA
ATOM     16  C   UNL     1       0.453  10.897  20.530  0.00  0.00    +0.000 A 
BRANCH   7  18
ATOM     17  C   UNL     1      -2.146  11.884  23.076  0.00  0.00    +0.000 C 
ATOM     18  C   UNL     1      -0.796  11.340  22.688  0.00  0.00    +0.000 C 
ATOM     19  O   UNL     1      -0.190  10.552  23.410  0.00  0.00    +0.000 OA
ENDBRANCH   7  18
ENDBRANCH   1  14
BRANCH   4  20
ATOM     20  N   UNL     1       2.532   3.685  19.111  0.00  0.00    +0.000 N 
ATOM     21  C   UNL     1       3.704   3.032  19.399  0.00  0.00    +0.000 C 
ATOM     22  O   UNL     1       3.761   1.807  19.271  0.00  0.00    +0.000 OA
ATOM     23  H   UNL     1       1.733   3.076  18.976  0.00  0.00    +0.000 HD
BRANCH  21  24
ATOM     24  C   UNL     1       4.895   3.851  19.881  0.00  0.00    +0.000 C 
BRANCH  24  25
ATOM     25  O   UNL     1       5.957   3.636  18.958  0.00  0.00    +0.000 OA
BRANCH  25  26
ATOM     26  C   UNL     1       5.947   4.380  17.808  0.00  0.00    +0.000 A 
ATOM     27  C   UNL     1       5.197   4.072  16.671  0.00  0.00    +0.000 A 
ATOM     28  C   UNL     1       5.243   4.898  15.546  0.00  0.00    +0.000 A 
ATOM     29  C   UNL     1       6.044   6.035  15.549  0.00  0.00    +0.000 A 
ATOM     30  C   UNL     1       6.802   6.348  16.676  0.00  0.00    +0.000 A 
ATOM     31  C   UNL     1       6.762   5.528  17.814  0.00  0.00    +0.000 A 
ATOM     32  C   UNL     1       7.597   5.881  19.014  0.00  0.00    +0.000 C 
ENDBRANCH  25  26
ENDBRANCH  24  25
ENDBRANCH  21  24
ENDBRANCH   4  20
TORSDOF 6
ENDMDL
MODEL 9
REMARK VINA RESULT:      -7.8      3.214      9.093
REMARK  Name = 
REMARK  8 active torsions:
REMARK  status: ('A' for Active; 'I' for Inactive)
REMARK    1  A    between atoms: C_1  and  C_2
REMARK    2  A    between atoms: C_2  and  C_4
REMARK    3  A    between atoms: C_11  and  C_12
REMARK    4  A    between atoms: C_15  and  N_16
REMARK    5  A    between atoms: C_17  and  C_19
REMARK    6  A    between atoms: C_19  and  O_20
REMARK    7  A    between atoms: O_20  and  C_21
REMARK    8  A    between atoms: C_26  and  C_27
REMARK                            x       y       z     vdW  Elec       q    Type
REMARK                         _______ _______ _______ _____ _____    ______ ____
ROOT
ATOM      1  C   UNL     1       1.161   8.823  20.352  0.00  0.00    +0.000 A 
ATOM      2  C   UNL     1       0.261   8.428  21.353  0.00  0.00    +0.000 A 
ATOM      3  C   UNL     1      -0.564   9.365  21.980  0.00  0.00    +0.000 A 
ATOM      4  C   UNL     1      -0.485  10.708  21.622  0.00  0.00    +0.000 A 
ATOM      5  C   UNL     1       0.420  11.129  20.651  0.00  0.00    +0.000 A 
ATOM      6  C   UNL     1       1.241  10.190  20.022  0.00  0.00    +0.000 A 
ENDROOT
BRANCH   1  14
ATOM      7  C   UNL     1       2.970   4.503  19.161  0.00  0.00    +0.000 A 
ATOM      8  C   UNL     1       3.794   4.061  18.110  0.00  0.00    +0.000 A 
ATOM      9  C   UNL     1       4.287   4.955  17.155  0.00  0.00    +0.000 A 
ATOM     10 BR   UNL     1       5.385   4.309  15.754  0.00  0.00    +0.000 Br
ATOM     11  C   UNL     1       3.991   6.325  17.206  0.00  0.00    +0.000 A 
ATOM     12  C   UNL     1       3.178   6.775  18.252  0.00  0.00    +0.000 A 
ATOM     13  N   UNL     1       2.731   8.038  18.555  0.00  0.00    +0.000 NA
ATOM     14  C   UNL     1       1.965   7.858  19.614  0.00  0.00    +0.000 A 
ATOM     15  O   UNL     1       1.907   6.563  20.054  0.00  0.00    +0.000 OA
ATOM     16  C   UNL     1       2.689   5.867  19.178  0.00  0.00    +0.000 A 
BRANCH   7  18
ATOM     17  C   UNL     1       0.970   3.452  20.401  0.00  0.00    +0.000 C 
ATOM     18  C   UNL     1       2.455   3.548  20.167  0.00  0.00    +0.000 C 
ATOM     19  O   UNL     1       3.249   2.854  20.797  0.00  0.00    +0.000 OA
ENDBRANCH   7  18
ENDBRANCH   1  14
BRANCH   4  20
ATOM     20  N   UNL     1      -1.369  11.612  22.212  0.00  0.00    +0.000 N 
ATOM     21  C   UNL     1      -2.153  12.519  21.544  0.00  0.00    +0.000 C 
ATOM     22  O   UNL     1      -2.924  13.238  22.183  0.00  0.00    +0.000 OA
ATOM     23  H   UNL     1      -1.614  11.481  23.187  0.00  0.00    +0.000 HD
BRANCH  21  24
ATOM     24  C   UNL     1      -2.048  12.593  20.026  0.00  0.00    +0.000 C 
BRANCH  24  25
ATOM     25  O   UNL     1      -3.208  11.966  19.490  0.00  0.00    +0.000 OA
BRANCH  25  26
ATOM     26  C   UNL     1      -3.059  11.274  18.317  0.00  0.00    +0.000 A 
ATOM     27  C   UNL     1      -1.950  10.488  17.995  0.00  0.00    +0.000 A 
ATOM     28  C   UNL     1      -1.892   9.810  16.775  0.00  0.00    +0.000 A 
ATOM     29  C   UNL     1      -2.938   9.920  15.866  0.00  0.00    +0.000 A 
ATOM     30  C   UNL     1      -4.046  10.708  16.174  0.00  0.00    +0.000 A 
ATOM     31  C   UNL     1      -4.119  11.391  17.398  0.00  0.00    +0.000 A 
ATOM     32  C   UNL     1      -5.320  12.244  17.703  0.00  0.00    +0.000 C 
ENDBRANCH  25  26
ENDBRANCH  24  25
ENDBRANCH  21  24
ENDBRANCH   4  20
TORSDOF 6
ENDMDL
