MODEL 1
REMARK VINA RESULT:      -6.9      0.000      0.000
REMARK  Name = 
REMARK  1 active torsions:
REMARK  status: ('A' for Active; 'I' for Inactive)
REMARK    1  A    between atoms: C_5  and  C_6
REMARK                            x       y       z     vdW  Elec       q    Type
REMARK                         _______ _______ _______ _____ _____    ______ ____
ROOT
ATOM      1  C   UNL     1       2.702   7.253  18.531  0.00  0.00    +0.000 A 
ATOM      2  C   UNL     1       2.364   7.051  19.852  0.00  0.00    +0.000 A 
ATOM      3  N   UNL     1       1.592   8.127  20.203  0.00  0.00    +0.000 N 
ATOM      4  C   UNL     1       0.991   8.418  21.423  0.00  0.00    +0.000 A 
ATOM      5  C   UNL     1       0.258   9.538  21.530  0.00  0.00    +0.000 A 
ATOM      6 CL   UNL     1      -0.512   9.970  23.003  0.00  0.00    +0.000 Cl
ATOM      7  C   UNL     1       0.108  10.406  20.370  0.00  0.00    +0.000 A 
ATOM      8  C   UNL     1       0.702  10.116  19.195  0.00  0.00    +0.000 A 
ATOM      9  C   UNL     1       1.492   8.936  19.076  0.00  0.00    +0.000 A 
ATOM     10  N   UNL     1       2.174   8.437  18.067  0.00  0.00    +0.000 NA
ENDROOT
BRANCH   1  15
ATOM     11 CL   UNL     1       6.098   3.622  15.217  0.00  0.00    +0.000 Cl
ATOM     12  C   UNL     1       5.114   4.667  16.166  0.00  0.00    +0.000 A 
ATOM     13  C   UNL     1       4.086   4.133  16.939  0.00  0.00    +0.000 A 
ATOM     14  C   UNL     1       3.291   4.979  17.716  0.00  0.00    +0.000 A 
ATOM     15  C   UNL     1       3.516   6.364  17.723  0.00  0.00    +0.000 A 
ATOM     16  C   UNL     1       4.547   6.887  16.928  0.00  0.00    +0.000 A 
ATOM     17  C   UNL     1       5.349   6.041  16.156  0.00  0.00    +0.000 A 
ENDBRANCH   1  15
TORSDOF 1
ENDMDL
MODEL 2
REMARK VINA RESULT:      -6.9      0.073      1.175
REMARK  Name = 
REMARK  1 active torsions:
REMARK  status: ('A' for Active; 'I' for Inactive)
REMARK    1  A    between atoms: C_5  and  C_6
REMARK                            x       y       z     vdW  Elec       q    Type
REMARK                         _______ _______ _______ _____ _____    ______ ____
ROOT
ATOM      1  C   UNL     1       2.724   7.273  18.484  0.00  0.00    +0.000 A 
ATOM      2  C   UNL     1       2.387   7.055  19.802  0.00  0.00    +0.000 A 
ATOM      3  N   UNL     1       1.591   8.112  20.157  0.00  0.00    +0.000 N 
ATOM      4  C   UNL     1       0.980   8.383  21.377  0.00  0.00    +0.000 A 
ATOM      5  C   UNL     1       0.222   9.486  21.488  0.00  0.00    +0.000 A 
ATOM      6 CL   UNL     1      -0.562   9.892  22.961  0.00  0.00    +0.000 Cl
ATOM      7  C   UNL     1       0.056  10.357  20.333  0.00  0.00    +0.000 A 
ATOM      8  C   UNL     1       0.660  10.087  19.158  0.00  0.00    +0.000 A 
ATOM      9  C   UNL     1       1.476   8.925  19.035  0.00  0.00    +0.000 A 
ATOM     10  N   UNL     1       2.171   8.448  18.025  0.00  0.00    +0.000 NA
ENDROOT
BRANCH   1  15
ATOM     11 CL   UNL     1       6.123   3.674  15.137  0.00  0.00    +0.000 Cl
ATOM     12  C   UNL     1       5.150   4.711  16.106  0.00  0.00    +0.000 A 
ATOM     13  C   UNL     1       5.385   6.084  16.098  0.00  0.00    +0.000 A 
ATOM     14  C   UNL     1       4.592   6.928  16.878  0.00  0.00    +0.000 A 
ATOM     15  C   UNL     1       3.560   6.406  17.673  0.00  0.00    +0.000 A 
ATOM     16  C   UNL     1       3.346   5.019  17.681  0.00  0.00    +0.000 A 
ATOM     17  C   UNL     1       4.134   4.174  16.894  0.00  0.00    +0.000 A 
ENDBRANCH   1  15
TORSDOF 1
ENDMDL
MODEL 3
REMARK VINA RESULT:      -6.8      0.987      1.984
REMARK  Name = 
REMARK  1 active torsions:
REMARK  status: ('A' for Active; 'I' for Inactive)
REMARK    1  A    between atoms: C_5  and  C_6
REMARK                            x       y       z     vdW  Elec       q    Type
REMARK                         _______ _______ _______ _____ _____    ______ ____
ROOT
ATOM      1  C   UNL     1       2.693   7.297  18.502  0.00  0.00    +0.000 A 
ATOM      2  C   UNL     1       2.086   8.450  18.052  0.00  0.00    +0.000 A 
ATOM      3  N   UNL     1       1.403   8.950  19.129  0.00  0.00    +0.000 N 
ATOM      4  C   UNL     1       0.621  10.096  19.220  0.00  0.00    +0.000 A 
ATOM      5  C   UNL     1       0.054  10.399  20.399  0.00  0.00    +0.000 A 
ATOM      6 CL   UNL     1      -0.928  11.795  20.592  0.00  0.00    +0.000 Cl
ATOM      7  C   UNL     1       0.279   9.527  21.544  0.00  0.00    +0.000 A 
ATOM      8  C   UNL     1       1.033   8.414  21.440  0.00  0.00    +0.000 A 
ATOM      9  C   UNL     1       1.628   8.079  20.190  0.00  0.00    +0.000 A 
ATOM     10  N   UNL     1       2.383   7.065  19.824  0.00  0.00    +0.000 NA
ENDROOT
BRANCH   1  15
ATOM     11 CL   UNL     1       6.110   3.661  15.216  0.00  0.00    +0.000 Cl
ATOM     12  C   UNL     1       5.132   4.708  16.167  0.00  0.00    +0.000 A 
ATOM     13  C   UNL     1       5.376   6.080  16.155  0.00  0.00    +0.000 A 
ATOM     14  C   UNL     1       4.578   6.933  16.922  0.00  0.00    +0.000 A 
ATOM     15  C   UNL     1       3.534   6.421  17.706  0.00  0.00    +0.000 A 
ATOM     16  C   UNL     1       3.311   5.036  17.719  0.00  0.00    +0.000 A 
ATOM     17  C   UNL     1       4.103   4.182  16.946  0.00  0.00    +0.000 A 
ENDBRANCH   1  15
TORSDOF 1
ENDMDL
MODEL 4
REMARK VINA RESULT:      -6.8      0.987      1.602
REMARK  Name = 
REMARK  1 active torsions:
REMARK  status: ('A' for Active; 'I' for Inactive)
REMARK    1  A    between atoms: C_5  and  C_6
REMARK                            x       y       z     vdW  Elec       q    Type
REMARK                         _______ _______ _______ _____ _____    ______ ____
ROOT
ATOM      1  C   UNL     1       2.702   7.265  18.490  0.00  0.00    +0.000 A 
ATOM      2  C   UNL     1       2.118   8.431  18.044  0.00  0.00    +0.000 A 
ATOM      3  N   UNL     1       1.444   8.941  19.121  0.00  0.00    +0.000 N 
ATOM      4  C   UNL     1       0.686  10.103  19.217  0.00  0.00    +0.000 A 
ATOM      5  C   UNL     1       0.124  10.412  20.396  0.00  0.00    +0.000 A 
ATOM      6 CL   UNL     1      -0.830  11.826  20.593  0.00  0.00    +0.000 Cl
ATOM      7  C   UNL     1       0.329   9.530  21.537  0.00  0.00    +0.000 A 
ATOM      8  C   UNL     1       1.060   8.403  21.430  0.00  0.00    +0.000 A 
ATOM      9  C   UNL     1       1.650   8.061  20.179  0.00  0.00    +0.000 A 
ATOM     10  N   UNL     1       2.385   7.034  19.810  0.00  0.00    +0.000 NA
ENDROOT
BRANCH   1  15
ATOM     11 CL   UNL     1       6.136   3.634  15.215  0.00  0.00    +0.000 Cl
ATOM     12  C   UNL     1       5.141   4.679  16.152  0.00  0.00    +0.000 A 
ATOM     13  C   UNL     1       4.106   4.144  16.916  0.00  0.00    +0.000 A 
ATOM     14  C   UNL     1       3.302   4.990  17.684  0.00  0.00    +0.000 A 
ATOM     15  C   UNL     1       3.526   6.375  17.691  0.00  0.00    +0.000 A 
ATOM     16  C   UNL     1       4.563   6.899  16.905  0.00  0.00    +0.000 A 
ATOM     17  C   UNL     1       5.374   6.053  16.143  0.00  0.00    +0.000 A 
ENDBRANCH   1  15
TORSDOF 1
ENDMDL
MODEL 5
REMARK VINA RESULT:      -6.8      4.908      5.192
REMARK  Name = 
REMARK  1 active torsions:
REMARK  status: ('A' for Active; 'I' for Inactive)
REMARK    1  A    between atoms: C_5  and  C_6
REMARK                            x       y       z     vdW  Elec       q    Type
REMARK                         _______ _______ _______ _____ _____    ______ ____
ROOT
ATOM      1  C   UNL     1       4.304   3.841  17.157  0.00  0.00    +0.000 A 
ATOM      2  C   UNL     1       4.559   3.695  18.503  0.00  0.00    +0.000 A 
ATOM      3  N   UNL     1       3.362   3.346  19.069  0.00  0.00    +0.000 N 
ATOM      4  C   UNL     1       3.062   3.079  20.400  0.00  0.00    +0.000 A 
ATOM      5  C   UNL     1       1.804   2.736  20.722  0.00  0.00    +0.000 A 
ATOM      6 CL   UNL     1       1.354   2.396  22.344  0.00  0.00    +0.000 Cl
ATOM      7  C   UNL     1       0.799   2.646  19.673  0.00  0.00    +0.000 A 
ATOM      8  C   UNL     1       1.101   2.914  18.387  0.00  0.00    +0.000 A 
ATOM      9  C   UNL     1       2.430   3.291  18.038  0.00  0.00    +0.000 A 
ATOM     10  N   UNL     1       2.974   3.610  16.884  0.00  0.00    +0.000 NA
ENDROOT
BRANCH   1  15
ATOM     11 CL   UNL     1       8.289   5.355  12.970  0.00  0.00    +0.000 Cl
ATOM     12  C   UNL     1       7.146   4.913  14.177  0.00  0.00    +0.000 A 
ATOM     13  C   UNL     1       7.427   5.164  15.518  0.00  0.00    +0.000 A 
ATOM     14  C   UNL     1       6.497   4.813  16.500  0.00  0.00    +0.000 A 
ATOM     15  C   UNL     1       5.282   4.205  16.147  0.00  0.00    +0.000 A 
ATOM     16  C   UNL     1       5.021   3.945  14.793  0.00  0.00    +0.000 A 
ATOM     17  C   UNL     1       5.947   4.304  13.810  0.00  0.00    +0.000 A 
ENDBRANCH   1  15
TORSDOF 1
ENDMDL
MODEL 6
REMARK VINA RESULT:      -6.7      4.907      5.147
REMARK  Name = 
REMARK  1 active torsions:
REMARK  status: ('A' for Active; 'I' for Inactive)
REMARK    1  A    between atoms: C_5  and  C_6
REMARK                            x       y       z     vdW  Elec       q    Type
REMARK                         _______ _______ _______ _____ _____    ______ ____
ROOT
ATOM      1  C   UNL     1       4.297   3.851  17.130  0.00  0.00    +0.000 A 
ATOM      2  C   UNL     1       4.562   3.720  18.476  0.00  0.00    +0.000 A 
ATOM      3  N   UNL     1       3.372   3.359  19.051  0.00  0.00    +0.000 N 
ATOM      4  C   UNL     1       3.083   3.100  20.386  0.00  0.00    +0.000 A 
ATOM      5  C   UNL     1       1.832   2.743  20.718  0.00  0.00    +0.000 A 
ATOM      6 CL   UNL     1       1.395   2.410  22.346  0.00  0.00    +0.000 Cl
ATOM      7  C   UNL     1       0.822   2.630  19.675  0.00  0.00    +0.000 A 
ATOM      8  C   UNL     1       1.113   2.891  18.385  0.00  0.00    +0.000 A 
ATOM      9  C   UNL     1       2.435   3.284  18.026  0.00  0.00    +0.000 A 
ATOM     10  N   UNL     1       2.969   3.600  16.866  0.00  0.00    +0.000 NA
ENDROOT
BRANCH   1  15
ATOM     11 CL   UNL     1       8.319   5.357  12.976  0.00  0.00    +0.000 Cl
ATOM     12  C   UNL     1       7.157   4.930  14.169  0.00  0.00    +0.000 A 
ATOM     13  C   UNL     1       5.975   4.299  13.787  0.00  0.00    +0.000 A 
ATOM     14  C   UNL     1       5.033   3.945  14.756  0.00  0.00    +0.000 A 
ATOM     15  C   UNL     1       5.265   4.220  16.112  0.00  0.00    +0.000 A 
ATOM     16  C   UNL     1       6.454   4.869  16.479  0.00  0.00    +0.000 A 
ATOM     17  C   UNL     1       7.400   5.217  15.511  0.00  0.00    +0.000 A 
ENDBRANCH   1  15
TORSDOF 1
ENDMDL
MODEL 7
REMARK VINA RESULT:      -6.6      3.599      4.619
REMARK  Name = 
REMARK  1 active torsions:
REMARK  status: ('A' for Active; 'I' for Inactive)
REMARK    1  A    between atoms: C_5  and  C_6
REMARK                            x       y       z     vdW  Elec       q    Type
REMARK                         _______ _______ _______ _____ _____    ______ ____
ROOT
ATOM      1  C   UNL     1       4.487   4.499  17.392  0.00  0.00    +0.000 A 
ATOM      2  C   UNL     1       4.233   3.315  18.051  0.00  0.00    +0.000 A 
ATOM      3  N   UNL     1       3.365   3.635  19.061  0.00  0.00    +0.000 N 
ATOM      4  C   UNL     1       2.791   2.811  20.023  0.00  0.00    +0.000 A 
ATOM      5  C   UNL     1       1.946   3.351  20.915  0.00  0.00    +0.000 A 
ATOM      6 CL   UNL     1       1.200   2.401  22.136  0.00  0.00    +0.000 Cl
ATOM      7  C   UNL     1       1.651   4.775  20.846  0.00  0.00    +0.000 A 
ATOM      8  C   UNL     1       2.219   5.566  19.913  0.00  0.00    +0.000 A 
ATOM      9  C   UNL     1       3.127   5.003  18.970  0.00  0.00    +0.000 A 
ATOM     10  N   UNL     1       3.813   5.543  17.986  0.00  0.00    +0.000 NA
ENDROOT
BRANCH   1  15
ATOM     11 CL   UNL     1       8.022   5.134  12.617  0.00  0.00    +0.000 Cl
ATOM     12  C   UNL     1       7.009   4.946  13.995  0.00  0.00    +0.000 A 
ATOM     13  C   UNL     1       7.326   5.608  15.179  0.00  0.00    +0.000 A 
ATOM     14  C   UNL     1       6.501   5.463  16.297  0.00  0.00    +0.000 A 
ATOM     15  C   UNL     1       5.356   4.653  16.240  0.00  0.00    +0.000 A 
ATOM     16  C   UNL     1       5.059   3.982  15.044  0.00  0.00    +0.000 A 
ATOM     17  C   UNL     1       5.880   4.133  13.922  0.00  0.00    +0.000 A 
ENDBRANCH   1  15
TORSDOF 1
ENDMDL
MODEL 8
REMARK VINA RESULT:      -6.6      3.609      4.533
REMARK  Name = 
REMARK  1 active torsions:
REMARK  status: ('A' for Active; 'I' for Inactive)
REMARK    1  A    between atoms: C_5  and  C_6
REMARK                            x       y       z     vdW  Elec       q    Type
REMARK                         _______ _______ _______ _____ _____    ______ ____
ROOT
ATOM      1  C   UNL     1       4.477   4.498  17.395  0.00  0.00    +0.000 A 
ATOM      2  C   UNL     1       4.237   3.313  18.056  0.00  0.00    +0.000 A 
ATOM      3  N   UNL     1       3.374   3.627  19.072  0.00  0.00    +0.000 N 
ATOM      4  C   UNL     1       2.814   2.798  20.039  0.00  0.00    +0.000 A 
ATOM      5  C   UNL     1       1.971   3.333  20.938  0.00  0.00    +0.000 A 
ATOM      6 CL   UNL     1       1.242   2.377  22.164  0.00  0.00    +0.000 Cl
ATOM      7  C   UNL     1       1.665   4.755  20.871  0.00  0.00    +0.000 A 
ATOM      8  C   UNL     1       2.221   5.549  19.933  0.00  0.00    +0.000 A 
ATOM      9  C   UNL     1       3.126   4.992  18.984  0.00  0.00    +0.000 A 
ATOM     10  N   UNL     1       3.800   5.537  17.994  0.00  0.00    +0.000 NA
ENDROOT
BRANCH   1  15
ATOM     11 CL   UNL     1       8.058   5.158  12.658  0.00  0.00    +0.000 Cl
ATOM     12  C   UNL     1       7.022   4.973  14.019  0.00  0.00    +0.000 A 
ATOM     13  C   UNL     1       5.880   4.182  13.914  0.00  0.00    +0.000 A 
ATOM     14  C   UNL     1       5.041   4.025  15.020  0.00  0.00    +0.000 A 
ATOM     15  C   UNL     1       5.337   4.659  16.236  0.00  0.00    +0.000 A 
ATOM     16  C   UNL     1       6.483   5.463  16.321  0.00  0.00    +0.000 A 
ATOM     17  C   UNL     1       7.328   5.615  15.217  0.00  0.00    +0.000 A 
ENDBRANCH   1  15
TORSDOF 1
ENDMDL
MODEL 9
REMARK VINA RESULT:      -6.5      1.256      7.044
REMARK  Name = 
REMARK  1 active torsions:
REMARK  status: ('A' for Active; 'I' for Inactive)
REMARK    1  A    between atoms: C_5  and  C_6
REMARK                            x       y       z     vdW  Elec       q    Type
REMARK                         _______ _______ _______ _____ _____    ______ ____
ROOT
ATOM      1  C   UNL     1       2.705   7.210  18.528  0.00  0.00    +0.000 A 
ATOM      2  C   UNL     1       3.646   7.613  17.605  0.00  0.00    +0.000 A 
ATOM      3  N   UNL     1       4.168   6.460  17.084  0.00  0.00    +0.000 N 
ATOM      4  C   UNL     1       5.152   6.297  16.114  0.00  0.00    +0.000 A 
ATOM      5  C   UNL     1       5.496   5.053  15.746  0.00  0.00    +0.000 A 
ATOM      6 CL   UNL     1       6.704   4.770  14.558  0.00  0.00    +0.000 Cl
ATOM      7  C   UNL     1       4.828   3.916  16.362  0.00  0.00    +0.000 A 
ATOM      8  C   UNL     1       3.880   4.086  17.306  0.00  0.00    +0.000 A 
ATOM      9  C   UNL     1       3.518   5.403  17.713  0.00  0.00    +0.000 A 
ATOM     10  N   UNL     1       2.651   5.837  18.602  0.00  0.00    +0.000 NA
ENDROOT
BRANCH   1  15
ATOM     11 CL   UNL     1      -0.642  10.835  21.899  0.00  0.00    +0.000 Cl
ATOM     12  C   UNL     1       0.315   9.789  20.925  0.00  0.00    +0.000 A 
ATOM     13  C   UNL     1       0.581  10.130  19.601  0.00  0.00    +0.000 A 
ATOM     14  C   UNL     1       1.364   9.286  18.810  0.00  0.00    +0.000 A 
ATOM     15  C   UNL     1       1.884   8.094  19.336  0.00  0.00    +0.000 A 
ATOM     16  C   UNL     1       1.596   7.757  20.668  0.00  0.00    +0.000 A 
ATOM     17  C   UNL     1       0.819   8.606  21.462  0.00  0.00    +0.000 A 
ENDBRANCH   1  15
TORSDOF 1
ENDMDL
