MODEL 1
REMARK VINA RESULT:      -7.2      0.000      0.000
REMARK  Name = 
REMARK  7 active torsions:
REMARK  status: ('A' for Active; 'I' for Inactive)
REMARK    1  A    between atoms: C_1  and  C_2
REMARK    2  A    between atoms: C_2  and  C_3
REMARK    3  A    between atoms: N_5  and  C_6
REMARK    4  A    between atoms: C_6  and  C_7
REMARK    5  A    between atoms: C_7  and  N_8
REMARK    6  A    between atoms: C_14  and  O_15
REMARK    7  A    between atoms: O_15  and  C_16
REMARK                            x       y       z     vdW  Elec       q    Type
REMARK                         _______ _______ _______ _____ _____    ______ ____
ROOT
ATOM      1  N   UNL     1       5.728   5.172  16.697  0.00  0.00    +0.000 N 
ATOM      2  C   UNL     1       5.930   6.529  16.865  0.00  0.00    +0.000 A 
ATOM      3  C   UNL     1       4.789   7.082  17.376  0.00  0.00    +0.000 A 
ATOM      4  C   UNL     1       3.846   6.041  17.537  0.00  0.00    +0.000 A 
ATOM      5  C   UNL     1       2.518   6.023  18.000  0.00  0.00    +0.000 A 
ATOM      6  C   UNL     1       1.820   4.817  18.059  0.00  0.00    +0.000 A 
ATOM      7  C   UNL     1       2.423   3.626  17.666  0.00  0.00    +0.000 A 
ATOM      8  C   UNL     1       3.746   3.624  17.182  0.00  0.00    +0.000 A 
ATOM      9  C   UNL     1       4.450   4.847  17.123  0.00  0.00    +0.000 A 
ENDROOT
BRANCH   7  10
ATOM     10  O   UNL     1       1.818   2.394  17.708  0.00  0.00    +0.000 OA
ATOM     11  C   UNL     1       0.913   2.164  18.785  0.00  0.00    +0.000 C 
ENDBRANCH   7  10
BRANCH   1  12
ATOM     12  C   UNL     1       6.713   4.269  16.108  0.00  0.00    +0.000 C 
BRANCH  12  13
ATOM     13  C   UNL     1       6.922   4.494  14.602  0.00  0.00    +0.000 C 
BRANCH  13  16
ATOM     14  C   UNL     1       6.355   3.545  12.411  0.00  0.00    +0.000 C 
ATOM     15  O   UNL     1       7.243   4.180  11.853  0.00  0.00    +0.000 OA
ATOM     16  N   UNL     1       6.077   3.670  13.758  0.00  0.00    +0.000 N 
ATOM     17  H   UNL     1       5.418   3.035  14.191  0.00  0.00    +0.000 HD
BRANCH  14  19
ATOM     18  C   UNL     1       4.137   3.186  11.295  0.00  0.00    +0.000 C 
ATOM     19  C   UNL     1       5.459   2.554  11.698  0.00  0.00    +0.000 C 
ENDBRANCH  14  19
ENDBRANCH  13  16
ENDBRANCH  12  13
ENDBRANCH   1  12
TORSDOF 5
ENDMDL
MODEL 2
REMARK VINA RESULT:      -6.9      1.823      2.310
REMARK  Name = 
REMARK  7 active torsions:
REMARK  status: ('A' for Active; 'I' for Inactive)
REMARK    1  A    between atoms: C_1  and  C_2
REMARK    2  A    between atoms: C_2  and  C_3
REMARK    3  A    between atoms: N_5  and  C_6
REMARK    4  A    between atoms: C_6  and  C_7
REMARK    5  A    between atoms: C_7  and  N_8
REMARK    6  A    between atoms: C_14  and  O_15
REMARK    7  A    between atoms: O_15  and  C_16
REMARK                            x       y       z     vdW  Elec       q    Type
REMARK                         _______ _______ _______ _____ _____    ______ ____
ROOT
ATOM      1  N   UNL     1       5.536   5.729  18.318  0.00  0.00    +0.000 N 
ATOM      2  C   UNL     1       5.294   6.854  17.552  0.00  0.00    +0.000 A 
ATOM      3  C   UNL     1       3.949   6.947  17.326  0.00  0.00    +0.000 A 
ATOM      4  C   UNL     1       3.331   5.852  17.973  0.00  0.00    +0.000 A 
ATOM      5  C   UNL     1       1.990   5.435  18.066  0.00  0.00    +0.000 A 
ATOM      6  C   UNL     1       1.669   4.293  18.799  0.00  0.00    +0.000 A 
ATOM      7  C   UNL     1       2.661   3.558  19.442  0.00  0.00    +0.000 A 
ATOM      8  C   UNL     1       4.011   3.948  19.347  0.00  0.00    +0.000 A 
ATOM      9  C   UNL     1       4.333   5.105  18.604  0.00  0.00    +0.000 A 
ENDROOT
BRANCH   7  10
ATOM     10  O   UNL     1       2.433   2.434  20.198  0.00  0.00    +0.000 OA
ATOM     11  C   UNL     1       2.363   2.617  21.609  0.00  0.00    +0.000 C 
ENDBRANCH   7  10
BRANCH   1  12
ATOM     12  C   UNL     1       6.872   5.276  18.698  0.00  0.00    +0.000 C 
BRANCH  12  13
ATOM     13  C   UNL     1       7.632   4.591  17.551  0.00  0.00    +0.000 C 
BRANCH  13  16
ATOM     14  C   UNL     1       6.903   4.523  15.208  0.00  0.00    +0.000 C 
ATOM     15  O   UNL     1       7.656   5.441  14.898  0.00  0.00    +0.000 OA
ATOM     16  N   UNL     1       6.776   4.065  16.505  0.00  0.00    +0.000 N 
ATOM     17  H   UNL     1       6.235   3.228  16.686  0.00  0.00    +0.000 HD
BRANCH  14  19
ATOM     18  C   UNL     1       6.579   3.883  12.805  0.00  0.00    +0.000 C 
ATOM     19  C   UNL     1       6.027   3.787  14.217  0.00  0.00    +0.000 C 
ENDBRANCH  14  19
ENDBRANCH  13  16
ENDBRANCH  12  13
ENDBRANCH   1  12
TORSDOF 5
ENDMDL
MODEL 3
REMARK VINA RESULT:      -6.7      3.172      5.043
REMARK  Name = 
REMARK  7 active torsions:
REMARK  status: ('A' for Active; 'I' for Inactive)
REMARK    1  A    between atoms: C_1  and  C_2
REMARK    2  A    between atoms: C_2  and  C_3
REMARK    3  A    between atoms: N_5  and  C_6
REMARK    4  A    between atoms: C_6  and  C_7
REMARK    5  A    between atoms: C_7  and  N_8
REMARK    6  A    between atoms: C_14  and  O_15
REMARK    7  A    between atoms: O_15  and  C_16
REMARK                            x       y       z     vdW  Elec       q    Type
REMARK                         _______ _______ _______ _____ _____    ______ ____
ROOT
ATOM      1  N   UNL     1       5.393   4.881  18.251  0.00  0.00    +0.000 N 
ATOM      2  C   UNL     1       5.709   4.664  16.923  0.00  0.00    +0.000 A 
ATOM      3  C   UNL     1       4.655   4.037  16.320  0.00  0.00    +0.000 A 
ATOM      4  C   UNL     1       3.648   3.859  17.296  0.00  0.00    +0.000 A 
ATOM      5  C   UNL     1       2.372   3.269  17.251  0.00  0.00    +0.000 A 
ATOM      6  C   UNL     1       1.577   3.248  18.396  0.00  0.00    +0.000 A 
ATOM      7  C   UNL     1       2.030   3.806  19.588  0.00  0.00    +0.000 A 
ATOM      8  C   UNL     1       3.312   4.387  19.660  0.00  0.00    +0.000 A 
ATOM      9  C   UNL     1       4.115   4.406  18.498  0.00  0.00    +0.000 A 
ENDROOT
BRANCH   7  10
ATOM     10  O   UNL     1       1.309   3.845  20.755  0.00  0.00    +0.000 OA
ATOM     11  C   UNL     1       1.468   2.740  21.641  0.00  0.00    +0.000 C 
ENDBRANCH   7  10
BRANCH   1  12
ATOM     12  C   UNL     1       6.312   5.471  19.221  0.00  0.00    +0.000 C 
BRANCH  12  13
ATOM     13  C   UNL     1       7.737   5.657  18.675  0.00  0.00    +0.000 C 
BRANCH  13  16
ATOM     14  C   UNL     1       8.192   8.015  18.171  0.00  0.00    +0.000 C 
ATOM     15  O   UNL     1       7.646   7.935  17.076  0.00  0.00    +0.000 OA
ATOM     16  N   UNL     1       8.339   6.932  19.015  0.00  0.00    +0.000 N 
ATOM     17  H   UNL     1       8.685   7.077  19.955  0.00  0.00    +0.000 HD
BRANCH  14  19
ATOM     18  C   UNL     1       8.396  10.497  17.870  0.00  0.00    +0.000 C 
ATOM     19  C   UNL     1       8.769   9.299  18.728  0.00  0.00    +0.000 C 
ENDBRANCH  14  19
ENDBRANCH  13  16
ENDBRANCH  12  13
ENDBRANCH   1  12
TORSDOF 5
ENDMDL
MODEL 4
REMARK VINA RESULT:      -6.7      1.897      2.250
REMARK  Name = 
REMARK  7 active torsions:
REMARK  status: ('A' for Active; 'I' for Inactive)
REMARK    1  A    between atoms: C_1  and  C_2
REMARK    2  A    between atoms: C_2  and  C_3
REMARK    3  A    between atoms: N_5  and  C_6
REMARK    4  A    between atoms: C_6  and  C_7
REMARK    5  A    between atoms: C_7  and  N_8
REMARK    6  A    between atoms: C_14  and  O_15
REMARK    7  A    between atoms: O_15  and  C_16
REMARK                            x       y       z     vdW  Elec       q    Type
REMARK                         _______ _______ _______ _____ _____    ______ ____
ROOT
ATOM      1  N   UNL     1       4.251   5.128  17.415  0.00  0.00    +0.000 N 
ATOM      2  C   UNL     1       4.467   6.375  16.859  0.00  0.00    +0.000 A 
ATOM      3  C   UNL     1       3.778   7.304  17.588  0.00  0.00    +0.000 A 
ATOM      4  C   UNL     1       3.116   6.620  18.633  0.00  0.00    +0.000 A 
ATOM      5  C   UNL     1       2.264   7.054  19.665  0.00  0.00    +0.000 A 
ATOM      6  C   UNL     1       1.756   6.132  20.579  0.00  0.00    +0.000 A 
ATOM      7  C   UNL     1       2.083   4.782  20.485  0.00  0.00    +0.000 A 
ATOM      8  C   UNL     1       2.920   4.323  19.449  0.00  0.00    +0.000 A 
ATOM      9  C   UNL     1       3.432   5.260  18.524  0.00  0.00    +0.000 A 
ENDROOT
BRANCH   7  10
ATOM     10  O   UNL     1       1.643   3.810  21.350  0.00  0.00    +0.000 OA
ATOM     11  C   UNL     1       2.468   2.656  21.486  0.00  0.00    +0.000 C 
ENDBRANCH   7  10
BRANCH   1  12
ATOM     12  C   UNL     1       4.778   3.886  16.856  0.00  0.00    +0.000 C 
BRANCH  12  13
ATOM     13  C   UNL     1       6.132   4.061  16.150  0.00  0.00    +0.000 C 
BRANCH  13  16
ATOM     14  C   UNL     1       6.914   4.511  13.868  0.00  0.00    +0.000 C 
ATOM     15  O   UNL     1       7.627   5.435  14.244  0.00  0.00    +0.000 OA
ATOM     16  N   UNL     1       6.093   3.803  14.723  0.00  0.00    +0.000 N 
ATOM     17  H   UNL     1       5.620   2.974  14.386  0.00  0.00    +0.000 HD
BRANCH  14  19
ATOM     18  C   UNL     1       5.600   3.203  12.179  0.00  0.00    +0.000 C 
ATOM     19  C   UNL     1       6.845   4.037  12.432  0.00  0.00    +0.000 C 
ENDBRANCH  14  19
ENDBRANCH  13  16
ENDBRANCH  12  13
ENDBRANCH   1  12
TORSDOF 5
ENDMDL
MODEL 5
REMARK VINA RESULT:      -6.6      1.249      1.388
REMARK  Name = 
REMARK  7 active torsions:
REMARK  status: ('A' for Active; 'I' for Inactive)
REMARK    1  A    between atoms: C_1  and  C_2
REMARK    2  A    between atoms: C_2  and  C_3
REMARK    3  A    between atoms: N_5  and  C_6
REMARK    4  A    between atoms: C_6  and  C_7
REMARK    5  A    between atoms: C_7  and  N_8
REMARK    6  A    between atoms: C_14  and  O_15
REMARK    7  A    between atoms: O_15  and  C_16
REMARK                            x       y       z     vdW  Elec       q    Type
REMARK                         _______ _______ _______ _____ _____    ______ ____
ROOT
ATOM      1  N   UNL     1       5.907   5.305  16.798  0.00  0.00    +0.000 N 
ATOM      2  C   UNL     1       6.911   5.708  17.658  0.00  0.00    +0.000 A 
ATOM      3  C   UNL     1       6.523   5.439  18.941  0.00  0.00    +0.000 A 
ATOM      4  C   UNL     1       5.241   4.846  18.883  0.00  0.00    +0.000 A 
ATOM      5  C   UNL     1       4.360   4.385  19.878  0.00  0.00    +0.000 A 
ATOM      6  C   UNL     1       3.136   3.823  19.515  0.00  0.00    +0.000 A 
ATOM      7  C   UNL     1       2.774   3.712  18.175  0.00  0.00    +0.000 A 
ATOM      8  C   UNL     1       3.634   4.184  17.164  0.00  0.00    +0.000 A 
ATOM      9  C   UNL     1       4.872   4.752  17.535  0.00  0.00    +0.000 A 
ENDROOT
BRANCH   7  10
ATOM     10  O   UNL     1       1.600   3.157  17.728  0.00  0.00    +0.000 OA
ATOM     11  C   UNL     1       0.813   2.465  18.693  0.00  0.00    +0.000 C 
ENDBRANCH   7  10
BRANCH   1  12
ATOM     12  C   UNL     1       5.948   5.498  15.351  0.00  0.00    +0.000 C 
BRANCH  12  13
ATOM     13  C   UNL     1       6.777   4.433  14.616  0.00  0.00    +0.000 C 
BRANCH  13  16
ATOM     14  C   UNL     1       6.351   3.511  12.382  0.00  0.00    +0.000 C 
ATOM     15  O   UNL     1       7.244   4.187  11.882  0.00  0.00    +0.000 OA
ATOM     16  N   UNL     1       6.003   3.600  13.716  0.00  0.00    +0.000 N 
ATOM     17  H   UNL     1       5.345   2.935  14.104  0.00  0.00    +0.000 HD
BRANCH  14  19
ATOM     18  C   UNL     1       4.160   3.066  11.246  0.00  0.00    +0.000 C 
ATOM     19  C   UNL     1       5.526   2.507  11.607  0.00  0.00    +0.000 C 
ENDBRANCH  14  19
ENDBRANCH  13  16
ENDBRANCH  12  13
ENDBRANCH   1  12
TORSDOF 5
ENDMDL
MODEL 6
REMARK VINA RESULT:      -6.5      2.138      3.425
REMARK  Name = 
REMARK  7 active torsions:
REMARK  status: ('A' for Active; 'I' for Inactive)
REMARK    1  A    between atoms: C_1  and  C_2
REMARK    2  A    between atoms: C_2  and  C_3
REMARK    3  A    between atoms: N_5  and  C_6
REMARK    4  A    between atoms: C_6  and  C_7
REMARK    5  A    between atoms: C_7  and  N_8
REMARK    6  A    between atoms: C_14  and  O_15
REMARK    7  A    between atoms: O_15  and  C_16
REMARK                            x       y       z     vdW  Elec       q    Type
REMARK                         _______ _______ _______ _____ _____    ______ ____
ROOT
ATOM      1  N   UNL     1       3.873   3.753  17.553  0.00  0.00    +0.000 N 
ATOM      2  C   UNL     1       3.899   2.381  17.387  0.00  0.00    +0.000 A 
ATOM      3  C   UNL     1       3.143   1.807  18.371  0.00  0.00    +0.000 A 
ATOM      4  C   UNL     1       2.625   2.849  19.173  0.00  0.00    +0.000 A 
ATOM      5  C   UNL     1       1.807   2.852  20.318  0.00  0.00    +0.000 A 
ATOM      6  C   UNL     1       1.439   4.063  20.904  0.00  0.00    +0.000 A 
ATOM      7  C   UNL     1       1.871   5.273  20.369  0.00  0.00    +0.000 A 
ATOM      8  C   UNL     1       2.705   5.292  19.233  0.00  0.00    +0.000 A 
ATOM      9  C   UNL     1       3.076   4.064  18.643  0.00  0.00    +0.000 A 
ENDROOT
BRANCH   7  10
ATOM     10  O   UNL     1       1.543   6.509  20.870  0.00  0.00    +0.000 OA
ATOM     11  C   UNL     1       1.915   7.636  20.081  0.00  0.00    +0.000 C 
ENDBRANCH   7  10
BRANCH   1  12
ATOM     12  C   UNL     1       4.627   4.688  16.722  0.00  0.00    +0.000 C 
BRANCH  12  13
ATOM     13  C   UNL     1       5.949   4.106  16.196  0.00  0.00    +0.000 C 
BRANCH  13  16
ATOM     14  C   UNL     1       6.909   4.535  13.978  0.00  0.00    +0.000 C 
ATOM     15  O   UNL     1       7.687   5.371  14.425  0.00  0.00    +0.000 OA
ATOM     16  N   UNL     1       5.971   3.892  14.761  0.00  0.00    +0.000 N 
ATOM     17  H   UNL     1       5.438   3.125  14.370  0.00  0.00    +0.000 HD
BRANCH  14  19
ATOM     18  C   UNL     1       5.651   3.269  12.215  0.00  0.00    +0.000 C 
ATOM     19  C   UNL     1       6.879   4.109  12.525  0.00  0.00    +0.000 C 
ENDBRANCH  14  19
ENDBRANCH  13  16
ENDBRANCH  12  13
ENDBRANCH   1  12
TORSDOF 5
ENDMDL
MODEL 7
REMARK VINA RESULT:      -6.5      3.290      5.023
REMARK  Name = 
REMARK  7 active torsions:
REMARK  status: ('A' for Active; 'I' for Inactive)
REMARK    1  A    between atoms: C_1  and  C_2
REMARK    2  A    between atoms: C_2  and  C_3
REMARK    3  A    between atoms: N_5  and  C_6
REMARK    4  A    between atoms: C_6  and  C_7
REMARK    5  A    between atoms: C_7  and  N_8
REMARK    6  A    between atoms: C_14  and  O_15
REMARK    7  A    between atoms: O_15  and  C_16
REMARK                            x       y       z     vdW  Elec       q    Type
REMARK                         _______ _______ _______ _____ _____    ______ ____
ROOT
ATOM      1  N   UNL     1       3.330   3.682  17.426  0.00  0.00    +0.000 N 
ATOM      2  C   UNL     1       2.939   2.366  17.584  0.00  0.00    +0.000 A 
ATOM      3  C   UNL     1       2.176   2.269  18.714  0.00  0.00    +0.000 A 
ATOM      4  C   UNL     1       2.082   3.562  19.277  0.00  0.00    +0.000 A 
ATOM      5  C   UNL     1       1.445   4.054  20.431  0.00  0.00    +0.000 A 
ATOM      6  C   UNL     1       1.516   5.413  20.737  0.00  0.00    +0.000 A 
ATOM      7  C   UNL     1       2.210   6.293  19.911  0.00  0.00    +0.000 A 
ATOM      8  C   UNL     1       2.869   5.819  18.759  0.00  0.00    +0.000 A 
ATOM      9  C   UNL     1       2.796   4.442  18.453  0.00  0.00    +0.000 A 
ENDROOT
BRANCH   7  10
ATOM     10  O   UNL     1       2.315   7.645  20.125  0.00  0.00    +0.000 OA
ATOM     11  C   UNL     1       1.211   8.277  20.767  0.00  0.00    +0.000 C 
ENDBRANCH   7  10
BRANCH   1  12
ATOM     12  C   UNL     1       4.214   4.146  16.359  0.00  0.00    +0.000 C 
BRANCH  12  13
ATOM     13  C   UNL     1       5.696   3.824  16.613  0.00  0.00    +0.000 C 
BRANCH  13  16
ATOM     14  C   UNL     1       6.746   5.152  18.391  0.00  0.00    +0.000 C 
ATOM     15  O   UNL     1       6.263   4.444  19.268  0.00  0.00    +0.000 OA
ATOM     16  N   UNL     1       6.482   4.964  17.048  0.00  0.00    +0.000 N 
ATOM     17  H   UNL     1       7.000   5.496  16.360  0.00  0.00    +0.000 HD
BRANCH  14  19
ATOM     18  C   UNL     1       7.563   7.388  17.603  0.00  0.00    +0.000 C 
ATOM     19  C   UNL     1       7.680   6.310  18.667  0.00  0.00    +0.000 C 
ENDBRANCH  14  19
ENDBRANCH  13  16
ENDBRANCH  12  13
ENDBRANCH   1  12
TORSDOF 5
ENDMDL
MODEL 8
REMARK VINA RESULT:      -6.5      2.317      6.055
REMARK  Name = 
REMARK  7 active torsions:
REMARK  status: ('A' for Active; 'I' for Inactive)
REMARK    1  A    between atoms: C_1  and  C_2
REMARK    2  A    between atoms: C_2  and  C_3
REMARK    3  A    between atoms: N_5  and  C_6
REMARK    4  A    between atoms: C_6  and  C_7
REMARK    5  A    between atoms: C_7  and  N_8
REMARK    6  A    between atoms: C_14  and  O_15
REMARK    7  A    between atoms: O_15  and  C_16
REMARK                            x       y       z     vdW  Elec       q    Type
REMARK                         _______ _______ _______ _____ _____    ______ ____
ROOT
ATOM      1  N   UNL     1       3.053   4.541  17.396  0.00  0.00    +0.000 N 
ATOM      2  C   UNL     1       2.448   5.433  18.261  0.00  0.00    +0.000 A 
ATOM      3  C   UNL     1       3.292   6.490  18.461  0.00  0.00    +0.000 A 
ATOM      4  C   UNL     1       4.457   6.256  17.695  0.00  0.00    +0.000 A 
ATOM      5  C   UNL     1       5.648   6.986  17.527  0.00  0.00    +0.000 A 
ATOM      6  C   UNL     1       6.643   6.502  16.679  0.00  0.00    +0.000 A 
ATOM      7  C   UNL     1       6.473   5.303  15.992  0.00  0.00    +0.000 A 
ATOM      8  C   UNL     1       5.295   4.548  16.159  0.00  0.00    +0.000 A 
ATOM      9  C   UNL     1       4.290   5.040  17.020  0.00  0.00    +0.000 A 
ENDROOT
BRANCH   7  10
ATOM     10  O   UNL     1       7.391   4.763  15.125  0.00  0.00    +0.000 OA
ATOM     11  C   UNL     1       6.878   4.207  13.918  0.00  0.00    +0.000 C 
ENDBRANCH   7  10
BRANCH   1  12
ATOM     12  C   UNL     1       2.469   3.260  17.008  0.00  0.00    +0.000 C 
BRANCH  12  13
ATOM     13  C   UNL     1       2.979   2.078  17.849  0.00  0.00    +0.000 C 
BRANCH  13  16
ATOM     14  C   UNL     1       3.451   2.459  20.227  0.00  0.00    +0.000 C 
ATOM     15  O   UNL     1       4.642   2.654  20.008  0.00  0.00    +0.000 OA
ATOM     16  N   UNL     1       2.554   2.112  19.236  0.00  0.00    +0.000 N 
ATOM     17  H   UNL     1       1.565   2.082  19.448  0.00  0.00    +0.000 HD
BRANCH  14  19
ATOM     18  C   UNL     1       1.325   2.814  21.510  0.00  0.00    +0.000 C 
ATOM     19  C   UNL     1       2.822   2.569  21.600  0.00  0.00    +0.000 C 
ENDBRANCH  14  19
ENDBRANCH  13  16
ENDBRANCH  12  13
ENDBRANCH   1  12
TORSDOF 5
ENDMDL
MODEL 9
REMARK VINA RESULT:      -6.5      2.995      4.733
REMARK  Name = 
REMARK  7 active torsions:
REMARK  status: ('A' for Active; 'I' for Inactive)
REMARK    1  A    between atoms: C_1  and  C_2
REMARK    2  A    between atoms: C_2  and  C_3
REMARK    3  A    between atoms: N_5  and  C_6
REMARK    4  A    between atoms: C_6  and  C_7
REMARK    5  A    between atoms: C_7  and  N_8
REMARK    6  A    between atoms: C_14  and  O_15
REMARK    7  A    between atoms: O_15  and  C_16
REMARK                            x       y       z     vdW  Elec       q    Type
REMARK                         _______ _______ _______ _____ _____    ______ ____
ROOT
ATOM      1  N   UNL     1       3.547   3.596  17.468  0.00  0.00    +0.000 N 
ATOM      2  C   UNL     1       3.277   2.274  17.772  0.00  0.00    +0.000 A 
ATOM      3  C   UNL     1       2.569   2.230  18.940  0.00  0.00    +0.000 A 
ATOM      4  C   UNL     1       2.385   3.561  19.378  0.00  0.00    +0.000 A 
ATOM      5  C   UNL     1       1.753   4.113  20.508  0.00  0.00    +0.000 A 
ATOM      6  C   UNL     1       1.718   5.497  20.676  0.00  0.00    +0.000 A 
ATOM      7  C   UNL     1       2.301   6.343  19.737  0.00  0.00    +0.000 A 
ATOM      8  C   UNL     1       2.954   5.811  18.607  0.00  0.00    +0.000 A 
ATOM      9  C   UNL     1       2.988   4.409  18.441  0.00  0.00    +0.000 A 
ENDROOT
BRANCH   7  10
ATOM     10  O   UNL     1       2.297   7.714  19.814  0.00  0.00    +0.000 OA
ATOM     11  C   UNL     1       2.014   8.420  18.609  0.00  0.00    +0.000 C 
ENDBRANCH   7  10
BRANCH   1  12
ATOM     12  C   UNL     1       4.346   4.021  16.322  0.00  0.00    +0.000 C 
BRANCH  12  13
ATOM     13  C   UNL     1       5.837   3.672  16.455  0.00  0.00    +0.000 C 
BRANCH  13  16
ATOM     14  C   UNL     1       6.997   5.763  17.006  0.00  0.00    +0.000 C 
ATOM     15  O   UNL     1       6.890   6.180  15.858  0.00  0.00    +0.000 OA
ATOM     16  N   UNL     1       6.559   4.511  17.392  0.00  0.00    +0.000 N 
ATOM     17  H   UNL     1       6.560   4.264  18.374  0.00  0.00    +0.000 HD
BRANCH  14  19
ATOM     18  C   UNL     1       7.885   7.998  17.720  0.00  0.00    +0.000 C 
ATOM     19  C   UNL     1       7.620   6.560  18.133  0.00  0.00    +0.000 C 
ENDBRANCH  14  19
ENDBRANCH  13  16
ENDBRANCH  12  13
ENDBRANCH   1  12
TORSDOF 5
ENDMDL
