MODEL 1
REMARK VINA RESULT:      -7.6      0.000      0.000
REMARK  Name = 
REMARK  3 active torsions:
REMARK  status: ('A' for Active; 'I' for Inactive)
REMARK    1  A    between atoms: C_4  and  C_5
REMARK    2  A    between atoms: N_11  and  C_12
REMARK    3  A    between atoms: C_12  and  C_13
REMARK                            x       y       z     vdW  Elec       q    Type
REMARK                         _______ _______ _______ _____ _____    ______ ____
ROOT
ATOM      1  C   UNL     1       3.614   5.943  18.114  0.00  0.00    +0.000 C 
ATOM      2  C   UNL     1       4.640   6.617  17.131  0.00  0.00    +0.000 C 
ATOM      3  C   UNL     1       5.370   5.648  16.194  0.00  0.00    +0.000 C 
ATOM      4  C   UNL     1       5.566   4.315  16.885  0.00  0.00    +0.000 C 
ATOM      5  C   UNL     1       4.220   3.783  17.446  0.00  0.00    +0.000 C 
ATOM      6  C   UNL     1       3.039   4.777  17.301  0.00  0.00    +0.000 C 
ATOM      7  N   UNL     1       4.384   3.703  18.901  0.00  0.00    +0.000 NA
ATOM      8  C   UNL     1       4.244   5.140  19.314  0.00  0.00    +0.000 C 
ENDROOT
BRANCH   1  12
ATOM      9  C   UNL     1       1.087   9.162  19.581  0.00  0.00    +0.000 A 
ATOM     10  C   UNL     1       1.449   8.127  20.444  0.00  0.00    +0.000 A 
ATOM     11  C   UNL     1       2.262   7.075  19.998  0.00  0.00    +0.000 A 
ATOM     12  C   UNL     1       2.731   7.050  18.682  0.00  0.00    +0.000 A 
ATOM     13  C   UNL     1       2.375   8.127  17.838  0.00  0.00    +0.000 A 
ATOM     14  C   UNL     1       1.553   9.164  18.275  0.00  0.00    +0.000 A 
ENDBRANCH   1  12
BRANCH   7  15
ATOM     15  C   UNL     1       3.382   2.848  19.562  0.00  0.00    +0.000 C 
BRANCH  15  16
ATOM     16  C   UNL     1       2.584   3.584  20.607  0.00  0.00    +0.000 C 
ATOM     17  C   UNL     1       1.083   3.675  20.440  0.00  0.00    +0.000 C 
ATOM     18  C   UNL     1       1.654   2.891  21.584  0.00  0.00    +0.000 C 
ENDBRANCH  15  16
ENDBRANCH   7  15
TORSDOF 3
ENDMDL
MODEL 2
REMARK VINA RESULT:      -7.5      0.115      1.138
REMARK  Name = 
REMARK  3 active torsions:
REMARK  status: ('A' for Active; 'I' for Inactive)
REMARK    1  A    between atoms: C_4  and  C_5
REMARK    2  A    between atoms: N_11  and  C_12
REMARK    3  A    between atoms: C_12  and  C_13
REMARK                            x       y       z     vdW  Elec       q    Type
REMARK                         _______ _______ _______ _____ _____    ______ ____
ROOT
ATOM      1  C   UNL     1       3.585   5.949  18.102  0.00  0.00    +0.000 C 
ATOM      2  C   UNL     1       4.612   6.600  17.106  0.00  0.00    +0.000 C 
ATOM      3  C   UNL     1       5.336   5.610  16.186  0.00  0.00    +0.000 C 
ATOM      4  C   UNL     1       5.528   4.289  16.902  0.00  0.00    +0.000 C 
ATOM      5  C   UNL     1       4.181   3.774  17.474  0.00  0.00    +0.000 C 
ATOM      6  C   UNL     1       3.004   4.770  17.313  0.00  0.00    +0.000 C 
ATOM      7  N   UNL     1       4.347   3.721  18.930  0.00  0.00    +0.000 NA
ATOM      8  C   UNL     1       4.214   5.166  19.316  0.00  0.00    +0.000 C 
ENDROOT
BRANCH   1  12
ATOM      9  C   UNL     1       1.102   9.079  19.815  0.00  0.00    +0.000 A 
ATOM     10  C   UNL     1       1.473   9.157  18.472  0.00  0.00    +0.000 A 
ATOM     11  C   UNL     1       2.273   8.162  17.893  0.00  0.00    +0.000 A 
ATOM     12  C   UNL     1       2.708   7.070  18.650  0.00  0.00    +0.000 A 
ATOM     13  C   UNL     1       2.292   7.001  20.000  0.00  0.00    +0.000 A 
ATOM     14  C   UNL     1       1.510   7.998  20.581  0.00  0.00    +0.000 A 
ENDBRANCH   1  12
BRANCH   7  15
ATOM     15  C   UNL     1       3.343   2.883  19.609  0.00  0.00    +0.000 C 
BRANCH  15  16
ATOM     16  C   UNL     1       2.578   3.631  20.670  0.00  0.00    +0.000 C 
ATOM     17  C   UNL     1       1.068   3.677  20.578  0.00  0.00    +0.000 C 
ATOM     18  C   UNL     1       1.718   2.946  21.715  0.00  0.00    +0.000 C 
ENDBRANCH  15  16
ENDBRANCH   7  15
TORSDOF 3
ENDMDL
MODEL 3
REMARK VINA RESULT:      -7.2      2.841      5.505
REMARK  Name = 
REMARK  3 active torsions:
REMARK  status: ('A' for Active; 'I' for Inactive)
REMARK    1  A    between atoms: C_4  and  C_5
REMARK    2  A    between atoms: N_11  and  C_12
REMARK    3  A    between atoms: C_12  and  C_13
REMARK                            x       y       z     vdW  Elec       q    Type
REMARK                         _______ _______ _______ _____ _____    ______ ____
ROOT
ATOM      1  C   UNL     1       4.875   4.579  17.665  0.00  0.00    +0.000 C 
ATOM      2  C   UNL     1       5.642   4.772  19.024  0.00  0.00    +0.000 C 
ATOM      3  C   UNL     1       6.817   5.755  18.969  0.00  0.00    +0.000 C 
ATOM      4  C   UNL     1       7.462   5.709  17.600  0.00  0.00    +0.000 C 
ATOM      5  C   UNL     1       6.399   5.907  16.486  0.00  0.00    +0.000 C 
ATOM      6  C   UNL     1       4.940   5.962  17.008  0.00  0.00    +0.000 C 
ATOM      7  N   UNL     1       6.401   4.674  15.692  0.00  0.00    +0.000 NA
ATOM      8  C   UNL     1       5.629   3.732  16.571  0.00  0.00    +0.000 C 
ENDROOT
BRANCH   1  12
ATOM      9  C   UNL     1       1.185   2.492  18.629  0.00  0.00    +0.000 A 
ATOM     10  C   UNL     1       1.128   3.810  18.175  0.00  0.00    +0.000 A 
ATOM     11  C   UNL     1       2.302   4.508  17.857  0.00  0.00    +0.000 A 
ATOM     12  C   UNL     1       3.550   3.891  17.983  0.00  0.00    +0.000 A 
ATOM     13  C   UNL     1       3.577   2.546  18.415  0.00  0.00    +0.000 A 
ATOM     14  C   UNL     1       2.412   1.857  18.748  0.00  0.00    +0.000 A 
ENDBRANCH   1  12
BRANCH   7  15
ATOM     15  C   UNL     1       5.771   4.822  14.369  0.00  0.00    +0.000 C 
BRANCH  15  16
ATOM     16  C   UNL     1       5.943   3.604  13.499  0.00  0.00    +0.000 C 
ATOM     17  C   UNL     1       5.155   3.518  12.210  0.00  0.00    +0.000 C 
ATOM     18  C   UNL     1       6.650   3.633  12.158  0.00  0.00    +0.000 C 
ENDBRANCH  15  16
ENDBRANCH   7  15
TORSDOF 3
ENDMDL
MODEL 4
REMARK VINA RESULT:      -7.0      1.607      3.582
REMARK  Name = 
REMARK  3 active torsions:
REMARK  status: ('A' for Active; 'I' for Inactive)
REMARK    1  A    between atoms: C_4  and  C_5
REMARK    2  A    between atoms: N_11  and  C_12
REMARK    3  A    between atoms: C_12  and  C_13
REMARK                            x       y       z     vdW  Elec       q    Type
REMARK                         _______ _______ _______ _____ _____    ______ ____
ROOT
ATOM      1  C   UNL     1       2.978   5.735  18.632  0.00  0.00    +0.000 C 
ATOM      2  C   UNL     1       1.920   4.877  17.846  0.00  0.00    +0.000 C 
ATOM      3  C   UNL     1       2.246   3.382  17.747  0.00  0.00    +0.000 C 
ATOM      4  C   UNL     1       3.746   3.186  17.692  0.00  0.00    +0.000 C 
ATOM      5  C   UNL     1       4.440   3.922  18.868  0.00  0.00    +0.000 C 
ATOM      6  C   UNL     1       3.480   4.787  19.726  0.00  0.00    +0.000 C 
ATOM      7  N   UNL     1       5.313   4.934  18.263  0.00  0.00    +0.000 NA
ATOM      8  C   UNL     1       4.333   6.005  17.877  0.00  0.00    +0.000 C 
ENDROOT
BRANCH   1  12
ATOM      9  C   UNL     1       1.126   9.594  19.392  0.00  0.00    +0.000 A 
ATOM     10  C   UNL     1       1.268   8.684  20.441  0.00  0.00    +0.000 A 
ATOM     11  C   UNL     1       1.861   7.431  20.224  0.00  0.00    +0.000 A 
ATOM     12  C   UNL     1       2.327   7.077  18.955  0.00  0.00    +0.000 A 
ATOM     13  C   UNL     1       2.198   8.029  17.919  0.00  0.00    +0.000 A 
ATOM     14  C   UNL     1       1.594   9.268  18.129  0.00  0.00    +0.000 A 
ENDBRANCH   1  12
BRANCH   7  15
ATOM     15  C   UNL     1       6.346   5.447  19.179  0.00  0.00    +0.000 C 
BRANCH  15  16
ATOM     16  C   UNL     1       7.595   5.892  18.463  0.00  0.00    +0.000 C 
ATOM     17  C   UNL     1       7.452   6.671  17.174  0.00  0.00    +0.000 C 
ATOM     18  C   UNL     1       8.037   7.340  18.382  0.00  0.00    +0.000 C 
ENDBRANCH  15  16
ENDBRANCH   7  15
TORSDOF 3
ENDMDL
MODEL 5
REMARK VINA RESULT:      -7.0      2.527      5.224
REMARK  Name = 
REMARK  3 active torsions:
REMARK  status: ('A' for Active; 'I' for Inactive)
REMARK    1  A    between atoms: C_4  and  C_5
REMARK    2  A    between atoms: N_11  and  C_12
REMARK    3  A    between atoms: C_12  and  C_13
REMARK                            x       y       z     vdW  Elec       q    Type
REMARK                         _______ _______ _______ _____ _____    ______ ____
ROOT
ATOM      1  C   UNL     1       4.834   4.750  17.884  0.00  0.00    +0.000 C 
ATOM      2  C   UNL     1       5.709   4.978  19.170  0.00  0.00    +0.000 C 
ATOM      3  C   UNL     1       6.978   5.809  18.950  0.00  0.00    +0.000 C 
ATOM      4  C   UNL     1       7.518   5.564  17.557  0.00  0.00    +0.000 C 
ATOM      5  C   UNL     1       6.409   5.780  16.492  0.00  0.00    +0.000 C 
ATOM      6  C   UNL     1       5.004   6.050  17.090  0.00  0.00    +0.000 C 
ATOM      7  N   UNL     1       6.221   4.488  15.826  0.00  0.00    +0.000 NA
ATOM      8  C   UNL     1       5.413   3.726  16.837  0.00  0.00    +0.000 C 
ENDROOT
BRANCH   1  12
ATOM      9  C   UNL     1       0.933   3.457  19.302  0.00  0.00    +0.000 A 
ATOM     10  C   UNL     1       1.513   2.813  18.209  0.00  0.00    +0.000 A 
ATOM     11  C   UNL     1       2.769   3.209  17.729  0.00  0.00    +0.000 A 
ATOM     12  C   UNL     1       3.467   4.252  18.345  0.00  0.00    +0.000 A 
ATOM     13  C   UNL     1       2.871   4.867  19.469  0.00  0.00    +0.000 A 
ATOM     14  C   UNL     1       1.614   4.485  19.936  0.00  0.00    +0.000 A 
ENDBRANCH   1  12
BRANCH   7  15
ATOM     15  C   UNL     1       5.521   4.586  14.534  0.00  0.00    +0.000 C 
BRANCH  15  16
ATOM     16  C   UNL     1       5.982   3.552  13.539  0.00  0.00    +0.000 C 
ATOM     17  C   UNL     1       5.255   3.445  12.216  0.00  0.00    +0.000 C 
ATOM     18  C   UNL     1       6.683   3.901  12.240  0.00  0.00    +0.000 C 
ENDBRANCH  15  16
ENDBRANCH   7  15
TORSDOF 3
ENDMDL
MODEL 6
REMARK VINA RESULT:      -7.0      1.577      3.747
REMARK  Name = 
REMARK  3 active torsions:
REMARK  status: ('A' for Active; 'I' for Inactive)
REMARK    1  A    between atoms: C_4  and  C_5
REMARK    2  A    between atoms: N_11  and  C_12
REMARK    3  A    between atoms: C_12  and  C_13
REMARK                            x       y       z     vdW  Elec       q    Type
REMARK                         _______ _______ _______ _____ _____    ______ ____
ROOT
ATOM      1  C   UNL     1       2.964   5.675  18.644  0.00  0.00    +0.000 C 
ATOM      2  C   UNL     1       1.906   4.799  17.879  0.00  0.00    +0.000 C 
ATOM      3  C   UNL     1       2.233   3.303  17.812  0.00  0.00    +0.000 C 
ATOM      4  C   UNL     1       3.734   3.107  17.759  0.00  0.00    +0.000 C 
ATOM      5  C   UNL     1       4.429   3.870  18.917  0.00  0.00    +0.000 C 
ATOM      6  C   UNL     1       3.469   4.752  19.758  0.00  0.00    +0.000 C 
ATOM      7  N   UNL     1       5.299   4.869  18.288  0.00  0.00    +0.000 NA
ATOM      8  C   UNL     1       4.318   5.930  17.880  0.00  0.00    +0.000 C 
ENDROOT
BRANCH   1  12
ATOM      9  C   UNL     1       1.104   9.475  19.644  0.00  0.00    +0.000 A 
ATOM     10  C   UNL     1       1.538   9.248  18.337  0.00  0.00    +0.000 A 
ATOM     11  C   UNL     1       2.142   8.032  17.986  0.00  0.00    +0.000 A 
ATOM     12  C   UNL     1       2.312   7.023  18.939  0.00  0.00    +0.000 A 
ATOM     13  C   UNL     1       1.836   7.269  20.247  0.00  0.00    +0.000 A 
ATOM     14  C   UNL     1       1.251   8.483  20.601  0.00  0.00    +0.000 A 
ENDBRANCH   1  12
BRANCH   7  15
ATOM     15  C   UNL     1       6.333   5.404  19.191  0.00  0.00    +0.000 C 
BRANCH  15  16
ATOM     16  C   UNL     1       7.581   5.833  18.462  0.00  0.00    +0.000 C 
ATOM     17  C   UNL     1       7.440   6.461  17.093  0.00  0.00    +0.000 C 
ATOM     18  C   UNL     1       7.954   7.286  18.236  0.00  0.00    +0.000 C 
ENDBRANCH  15  16
ENDBRANCH   7  15
TORSDOF 3
ENDMDL
MODEL 7
REMARK VINA RESULT:      -6.9      2.500      5.035
REMARK  Name = 
REMARK  3 active torsions:
REMARK  status: ('A' for Active; 'I' for Inactive)
REMARK    1  A    between atoms: C_4  and  C_5
REMARK    2  A    between atoms: N_11  and  C_12
REMARK    3  A    between atoms: C_12  and  C_13
REMARK                            x       y       z     vdW  Elec       q    Type
REMARK                         _______ _______ _______ _____ _____    ______ ____
ROOT
ATOM      1  C   UNL     1       4.933   4.956  18.027  0.00  0.00    +0.000 C 
ATOM      2  C   UNL     1       5.872   5.153  19.273  0.00  0.00    +0.000 C 
ATOM      3  C   UNL     1       7.185   5.889  18.983  0.00  0.00    +0.000 C 
ATOM      4  C   UNL     1       7.651   5.573  17.578  0.00  0.00    +0.000 C 
ATOM      5  C   UNL     1       6.519   5.839  16.550  0.00  0.00    +0.000 C 
ATOM      6  C   UNL     1       5.160   6.220  17.192  0.00  0.00    +0.000 C 
ATOM      7  N   UNL     1       6.218   4.546  15.927  0.00  0.00    +0.000 NA
ATOM      8  C   UNL     1       5.399   3.868  16.988  0.00  0.00    +0.000 C 
ENDROOT
BRANCH   1  12
ATOM      9  C   UNL     1       0.987   3.746  19.391  0.00  0.00    +0.000 A 
ATOM     10  C   UNL     1       1.779   4.548  20.213  0.00  0.00    +0.000 A 
ATOM     11  C   UNL     1       3.056   4.953  19.799  0.00  0.00    +0.000 A 
ATOM     12  C   UNL     1       3.554   4.565  18.552  0.00  0.00    +0.000 A 
ATOM     13  C   UNL     1       2.718   3.779  17.727  0.00  0.00    +0.000 A 
ATOM     14  C   UNL     1       1.455   3.362  18.144  0.00  0.00    +0.000 A 
ENDBRANCH   1  12
BRANCH   7  15
ATOM     15  C   UNL     1       5.476   4.660  14.659  0.00  0.00    +0.000 C 
BRANCH  15  16
ATOM     16  C   UNL     1       5.848   3.590  13.665  0.00  0.00    +0.000 C 
ATOM     17  C   UNL     1       5.108   3.538  12.346  0.00  0.00    +0.000 C 
ATOM     18  C   UNL     1       6.568   3.879  12.362  0.00  0.00    +0.000 C 
ENDBRANCH  15  16
ENDBRANCH   7  15
TORSDOF 3
ENDMDL
MODEL 8
REMARK VINA RESULT:      -6.9      0.895      3.743
REMARK  Name = 
REMARK  3 active torsions:
REMARK  status: ('A' for Active; 'I' for Inactive)
REMARK    1  A    between atoms: C_4  and  C_5
REMARK    2  A    between atoms: N_11  and  C_12
REMARK    3  A    between atoms: C_12  and  C_13
REMARK                            x       y       z     vdW  Elec       q    Type
REMARK                         _______ _______ _______ _____ _____    ______ ____
ROOT
ATOM      1  C   UNL     1       2.533   5.326  19.439  0.00  0.00    +0.000 C 
ATOM      2  C   UNL     1       1.467   4.690  20.404  0.00  0.00    +0.000 C 
ATOM      3  C   UNL     1       1.851   3.322  20.980  0.00  0.00    +0.000 C 
ATOM      4  C   UNL     1       2.687   2.558  19.975  0.00  0.00    +0.000 C 
ATOM      5  C   UNL     1       3.886   3.417  19.492  0.00  0.00    +0.000 C 
ATOM      6  C   UNL     1       3.875   4.873  20.025  0.00  0.00    +0.000 C 
ATOM      7  N   UNL     1       3.699   3.610  18.051  0.00  0.00    +0.000 NA
ATOM      8  C   UNL     1       2.636   4.671  18.010  0.00  0.00    +0.000 C 
ENDROOT
BRANCH   1  12
ATOM      9  C   UNL     1       1.544   9.511  18.802  0.00  0.00    +0.000 A 
ATOM     10  C   UNL     1       1.355   8.947  20.064  0.00  0.00    +0.000 A 
ATOM     11  C   UNL     1       1.665   7.600  20.298  0.00  0.00    +0.000 A 
ATOM     12  C   UNL     1       2.176   6.800  19.272  0.00  0.00    +0.000 A 
ATOM     13  C   UNL     1       2.387   7.405  18.012  0.00  0.00    +0.000 A 
ATOM     14  C   UNL     1       2.063   8.740  17.773  0.00  0.00    +0.000 A 
ENDBRANCH   1  12
BRANCH   7  15
ATOM     15  C   UNL     1       4.921   4.039  17.349  0.00  0.00    +0.000 C 
BRANCH  15  16
ATOM     16  C   UNL     1       4.667   5.137  16.349  0.00  0.00    +0.000 C 
ATOM     17  C   UNL     1       5.538   6.374  16.392  0.00  0.00    +0.000 C 
ATOM     18  C   UNL     1       5.611   5.458  15.206  0.00  0.00    +0.000 C 
ENDBRANCH  15  16
ENDBRANCH   7  15
TORSDOF 3
ENDMDL
MODEL 9
REMARK VINA RESULT:      -6.8      0.960      3.890
REMARK  Name = 
REMARK  3 active torsions:
REMARK  status: ('A' for Active; 'I' for Inactive)
REMARK    1  A    between atoms: C_4  and  C_5
REMARK    2  A    between atoms: N_11  and  C_12
REMARK    3  A    between atoms: C_12  and  C_13
REMARK                            x       y       z     vdW  Elec       q    Type
REMARK                         _______ _______ _______ _____ _____    ______ ____
ROOT
ATOM      1  C   UNL     1       2.344   5.011  19.346  0.00  0.00    +0.000 C 
ATOM      2  C   UNL     1       1.212   4.342  20.209  0.00  0.00    +0.000 C 
ATOM      3  C   UNL     1       1.503   2.904  20.653  0.00  0.00    +0.000 C 
ATOM      4  C   UNL     1       2.333   2.199  19.602  0.00  0.00    +0.000 C 
ATOM      5  C   UNL     1       3.593   3.034  19.246  0.00  0.00    +0.000 C 
ATOM      6  C   UNL     1       3.639   4.428  19.923  0.00  0.00    +0.000 C 
ATOM      7  N   UNL     1       3.468   3.381  17.826  0.00  0.00    +0.000 NA
ATOM      8  C   UNL     1       2.464   4.497  17.862  0.00  0.00    +0.000 C 
ENDROOT
BRANCH   1  12
ATOM      9  C   UNL     1       1.537   9.282  19.432  0.00  0.00    +0.000 A 
ATOM     10  C   UNL     1       1.999   8.696  18.253  0.00  0.00    +0.000 A 
ATOM     11  C   UNL     1       2.268   7.321  18.196  0.00  0.00    +0.000 A 
ATOM     12  C   UNL     1       2.071   6.512  19.319  0.00  0.00    +0.000 A 
ATOM     13  C   UNL     1       1.573   7.127  20.491  0.00  0.00    +0.000 A 
ATOM     14  C   UNL     1       1.321   8.496  20.554  0.00  0.00    +0.000 A 
ENDBRANCH   1  12
BRANCH   7  15
ATOM     15  C   UNL     1       4.735   3.809  17.210  0.00  0.00    +0.000 C 
BRANCH  15  16
ATOM     16  C   UNL     1       4.598   5.082  16.414  0.00  0.00    +0.000 C 
ATOM     17  C   UNL     1       5.533   6.232  16.721  0.00  0.00    +0.000 C 
ATOM     18  C   UNL     1       5.622   5.539  15.393  0.00  0.00    +0.000 C 
ENDBRANCH  15  16
ENDBRANCH   7  15
TORSDOF 3
ENDMDL
