MODEL 1
REMARK VINA RESULT:      -8.2      0.000      0.000
REMARK  Name = 
REMARK  13 active torsions:
REMARK  status: ('A' for Active; 'I' for Inactive)
REMARK    1  A    between atoms: C_2  and  C_3
REMARK    2  A    between atoms: C_7  and  N_8
REMARK    3  A    between atoms: N_8  and  C_9
REMARK    4  A    between atoms: C_15  and  O_16
REMARK    5  A    between atoms: O_16  and  C_17
REMARK    6  A    between atoms: C_18  and  O_19
REMARK    7  A    between atoms: O_19  and  C_20
REMARK    8  A    between atoms: C_20  and  C_21
REMARK    9  A    between atoms: C_21  and  C_22
REMARK   10  A    between atoms: C_22  and  C_23
REMARK   11  A    between atoms: C_23  and  C_24
REMARK   12  A    between atoms: C_24  and  C_25
REMARK   13  A    between atoms: N_27  and  O_28
REMARK                            x       y       z     vdW  Elec       q    Type
REMARK                         _______ _______ _______ _____ _____    ______ ____
ROOT
ATOM      1  C   UNL     1       3.094   5.474  18.917  0.00  0.00    +0.000 A 
ATOM      2  N   UNL     1       2.103   4.570  19.079  0.00  0.00    +0.000 NA
ATOM      3  C   UNL     1       2.073   3.544  18.233  0.00  0.00    +0.000 A 
ATOM      4  N   UNL     1       2.919   3.343  17.225  0.00  0.00    +0.000 NA
ATOM      5  C   UNL     1       3.897   4.244  17.081  0.00  0.00    +0.000 A 
ATOM      6  C   UNL     1       4.750   4.078  16.011  0.00  0.00    +0.000 A 
ATOM      7  C   UNL     1       5.810   4.955  15.725  0.00  0.00    +0.000 A 
ATOM      8  C   UNL     1       6.037   6.039  16.595  0.00  0.00    +0.000 A 
ATOM      9  C   UNL     1       5.174   6.215  17.688  0.00  0.00    +0.000 A 
ATOM     10  C   UNL     1       4.082   5.336  17.924  0.00  0.00    +0.000 A 
ENDROOT
BRANCH   1  11
ATOM     11  N   UNL     1       3.104   6.609  19.763  0.00  0.00    +0.000 N 
ATOM     12  H   UNL     1       3.160   6.311  20.733  0.00  0.00    +0.000 HD
BRANCH  11  17
ATOM     13  C   UNL     1       0.687   9.393  20.403  0.00  0.00    +0.000 A 
ATOM     14  C   UNL     1       0.548   9.915  19.120  0.00  0.00    +0.000 A 
ATOM     15  C   UNL     1       1.257   9.356  18.059  0.00  0.00    +0.000 A 
ATOM     16  C   UNL     1       2.114   8.272  18.277  0.00  0.00    +0.000 A 
ATOM     17  C   UNL     1       2.301   7.756  19.563  0.00  0.00    +0.000 A 
ATOM     18  C   UNL     1       1.563   8.324  20.618  0.00  0.00    +0.000 A 
BRANCH  13  20
ATOM     19  C   UNL     1      -0.710  10.384  22.394  0.00  0.00    +0.000 C 
ATOM     20  C   UNL     1      -0.081   9.907  21.496  0.00  0.00    +0.000 C 
ENDBRANCH  13  20
ENDBRANCH  11  17
ENDBRANCH   1  11
BRANCH   7  21
ATOM     21  O   UNL     1       6.617   4.758  14.630  0.00  0.00    +0.000 OA
ATOM     22  C   UNL     1       6.165   3.808  13.658  0.00  0.00    +0.000 C 
ENDBRANCH   7  21
BRANCH   8  23
ATOM     23  O   UNL     1       7.057   6.967  16.558  0.00  0.00    +0.000 OA
BRANCH  23  24
ATOM     24  C   UNL     1       7.536   7.399  17.828  0.00  0.00    +0.000 C 
BRANCH  24  25
ATOM     25  C   UNL     1       7.971   8.876  17.814  0.00  0.00    +0.000 C 
BRANCH  25  26
ATOM     26  C   UNL     1       8.909   9.106  19.007  0.00  0.00    +0.000 C 
BRANCH  26  27
ATOM     27  C   UNL     1       9.261  10.568  19.252  0.00  0.00    +0.000 C 
BRANCH  27  28
ATOM     28  C   UNL     1       9.556  11.304  17.938  0.00  0.00    +0.000 C 
BRANCH  28  29
ATOM     29  C   UNL     1       9.437  12.803  18.120  0.00  0.00    +0.000 C 
ATOM     30  O   UNL     1       8.938  13.344  19.105  0.00  0.00    +0.000 OA
ATOM     31  N   UNL     1       9.934  13.545  17.079  0.00  0.00    +0.000 N 
ATOM     32  H   UNL     1      10.472  13.189  16.296  0.00  0.00    +0.000 HD
BRANCH  31  33
ATOM     33  O   UNL     1       9.881  14.947  17.249  0.00  0.00    +0.000 OA
ATOM     34  H   UNL     1       9.025  15.173  16.820  0.00  0.00    +0.000 HD
ENDBRANCH  31  33
ENDBRANCH  28  29
ENDBRANCH  27  28
ENDBRANCH  26  27
ENDBRANCH  25  26
ENDBRANCH  24  25
ENDBRANCH  23  24
ENDBRANCH   8  23
TORSDOF 12
ENDMDL
MODEL 2
REMARK VINA RESULT:      -8.1      1.282      1.325
REMARK  Name = 
REMARK  13 active torsions:
REMARK  status: ('A' for Active; 'I' for Inactive)
REMARK    1  A    between atoms: C_2  and  C_3
REMARK    2  A    between atoms: C_7  and  N_8
REMARK    3  A    between atoms: N_8  and  C_9
REMARK    4  A    between atoms: C_15  and  O_16
REMARK    5  A    between atoms: O_16  and  C_17
REMARK    6  A    between atoms: C_18  and  O_19
REMARK    7  A    between atoms: O_19  and  C_20
REMARK    8  A    between atoms: C_20  and  C_21
REMARK    9  A    between atoms: C_21  and  C_22
REMARK   10  A    between atoms: C_22  and  C_23
REMARK   11  A    between atoms: C_23  and  C_24
REMARK   12  A    between atoms: C_24  and  C_25
REMARK   13  A    between atoms: N_27  and  O_28
REMARK                            x       y       z     vdW  Elec       q    Type
REMARK                         _______ _______ _______ _____ _____    ______ ____
ROOT
ATOM      1  C   UNL     1       2.925   5.384  18.818  0.00  0.00    +0.000 A 
ATOM      2  N   UNL     1       1.723   4.781  18.691  0.00  0.00    +0.000 NA
ATOM      3  C   UNL     1       1.612   3.840  17.756  0.00  0.00    +0.000 A 
ATOM      4  N   UNL     1       2.573   3.459  16.919  0.00  0.00    +0.000 NA
ATOM      5  C   UNL     1       3.759   4.062  17.062  0.00  0.00    +0.000 A 
ATOM      6  C   UNL     1       4.750   3.714  16.169  0.00  0.00    +0.000 A 
ATOM      7  C   UNL     1       6.036   4.278  16.185  0.00  0.00    +0.000 A 
ATOM      8  C   UNL     1       6.344   5.219  17.187  0.00  0.00    +0.000 A 
ATOM      9  C   UNL     1       5.341   5.577  18.102  0.00  0.00    +0.000 A 
ATOM     10  C   UNL     1       4.034   5.023  18.030  0.00  0.00    +0.000 A 
ENDROOT
BRANCH   1  11
ATOM     11  N   UNL     1       3.046   6.435  19.759  0.00  0.00    +0.000 N 
ATOM     12  H   UNL     1       3.171   6.046  20.690  0.00  0.00    +0.000 HD
BRANCH  11  17
ATOM     13  C   UNL     1       0.721   9.167  20.820  0.00  0.00    +0.000 A 
ATOM     14  C   UNL     1       0.571   9.860  19.622  0.00  0.00    +0.000 A 
ATOM     15  C   UNL     1       1.243   9.431  18.480  0.00  0.00    +0.000 A 
ATOM     16  C   UNL     1       2.074   8.306  18.531  0.00  0.00    +0.000 A 
ATOM     17  C   UNL     1       2.272   7.618  19.733  0.00  0.00    +0.000 A 
ATOM     18  C   UNL     1       1.570   8.058  20.871  0.00  0.00    +0.000 A 
BRANCH  13  20
ATOM     19  C   UNL     1      -0.608   9.917  22.958  0.00  0.00    +0.000 C 
ATOM     20  C   UNL     1      -0.012   9.550  21.990  0.00  0.00    +0.000 C 
ENDBRANCH  13  20
ENDBRANCH  11  17
ENDBRANCH   1  11
BRANCH   7  21
ATOM     21  O   UNL     1       6.982   3.914  15.257  0.00  0.00    +0.000 OA
ATOM     22  C   UNL     1       6.574   3.922  13.884  0.00  0.00    +0.000 C 
ENDBRANCH   7  21
BRANCH   8  23
ATOM     23  O   UNL     1       7.552   5.832  17.445  0.00  0.00    +0.000 OA
BRANCH  23  24
ATOM     24  C   UNL     1       7.470   7.101  18.086  0.00  0.00    +0.000 C 
BRANCH  24  25
ATOM     25  C   UNL     1       7.805   8.259  17.128  0.00  0.00    +0.000 C 
BRANCH  25  26
ATOM     26  C   UNL     1       7.959   9.538  17.966  0.00  0.00    +0.000 C 
BRANCH  26  27
ATOM     27  C   UNL     1       9.089   9.483  18.987  0.00  0.00    +0.000 C 
BRANCH  27  28
ATOM     28  C   UNL     1       9.410  10.875  19.547  0.00  0.00    +0.000 C 
BRANCH  28  29
ATOM     29  C   UNL     1      10.787  11.328  19.108  0.00  0.00    +0.000 C 
ATOM     30  O   UNL     1      11.709  11.588  19.878  0.00  0.00    +0.000 OA
ATOM     31  N   UNL     1      10.944  11.439  17.750  0.00  0.00    +0.000 N 
ATOM     32  H   UNL     1      10.286  11.126  17.045  0.00  0.00    +0.000 HD
BRANCH  31  33
ATOM     33  O   UNL     1      12.236  11.811  17.314  0.00  0.00    +0.000 OA
ATOM     34  H   UNL     1      12.772  11.683  18.129  0.00  0.00    +0.000 HD
ENDBRANCH  31  33
ENDBRANCH  28  29
ENDBRANCH  27  28
ENDBRANCH  26  27
ENDBRANCH  25  26
ENDBRANCH  24  25
ENDBRANCH  23  24
ENDBRANCH   8  23
TORSDOF 12
ENDMDL
MODEL 3
REMARK VINA RESULT:      -7.9      1.040      1.223
REMARK  Name = 
REMARK  13 active torsions:
REMARK  status: ('A' for Active; 'I' for Inactive)
REMARK    1  A    between atoms: C_2  and  C_3
REMARK    2  A    between atoms: C_7  and  N_8
REMARK    3  A    between atoms: N_8  and  C_9
REMARK    4  A    between atoms: C_15  and  O_16
REMARK    5  A    between atoms: O_16  and  C_17
REMARK    6  A    between atoms: C_18  and  O_19
REMARK    7  A    between atoms: O_19  and  C_20
REMARK    8  A    between atoms: C_20  and  C_21
REMARK    9  A    between atoms: C_21  and  C_22
REMARK   10  A    between atoms: C_22  and  C_23
REMARK   11  A    between atoms: C_23  and  C_24
REMARK   12  A    between atoms: C_24  and  C_25
REMARK   13  A    between atoms: N_27  and  O_28
REMARK                            x       y       z     vdW  Elec       q    Type
REMARK                         _______ _______ _______ _____ _____    ______ ____
ROOT
ATOM      1  C   UNL     1       2.790   5.397  19.234  0.00  0.00    +0.000 A 
ATOM      2  N   UNL     1       1.828   4.451  19.308  0.00  0.00    +0.000 NA
ATOM      3  C   UNL     1       1.820   3.519  18.358  0.00  0.00    +0.000 A 
ATOM      4  N   UNL     1       2.660   3.451  17.328  0.00  0.00    +0.000 NA
ATOM      5  C   UNL     1       3.609   4.392  17.273  0.00  0.00    +0.000 A 
ATOM      6  C   UNL     1       4.455   4.365  16.185  0.00  0.00    +0.000 A 
ATOM      7  C   UNL     1       5.485   5.299  15.985  0.00  0.00    +0.000 A 
ATOM      8  C   UNL     1       5.690   6.292  16.962  0.00  0.00    +0.000 A 
ATOM      9  C   UNL     1       4.834   6.326  18.074  0.00  0.00    +0.000 A 
ATOM     10  C   UNL     1       3.771   5.394  18.225  0.00  0.00    +0.000 A 
ENDROOT
BRANCH   1  11
ATOM     11  N   UNL     1       2.775   6.436  20.195  0.00  0.00    +0.000 N 
ATOM     12  H   UNL     1       2.758   6.037  21.130  0.00  0.00    +0.000 HD
BRANCH  11  17
ATOM     13  C   UNL     1       0.482   9.277  21.014  0.00  0.00    +0.000 A 
ATOM     14  C   UNL     1       0.357   9.878  19.763  0.00  0.00    +0.000 A 
ATOM     15  C   UNL     1       1.034   9.351  18.667  0.00  0.00    +0.000 A 
ATOM     16  C   UNL     1       1.846   8.221  18.815  0.00  0.00    +0.000 A 
ATOM     17  C   UNL     1       2.020   7.625  20.068  0.00  0.00    +0.000 A 
ATOM     18  C   UNL     1       1.313   8.162  21.160  0.00  0.00    +0.000 A 
BRANCH  13  20
ATOM     19  C   UNL     1      -0.830  10.167  23.108  0.00  0.00    +0.000 C 
ATOM     20  C   UNL     1      -0.257   9.760  22.141  0.00  0.00    +0.000 C 
ENDBRANCH  13  20
ENDBRANCH  11  17
ENDBRANCH   1  11
BRANCH   7  21
ATOM     21  O   UNL     1       6.287   5.243  14.870  0.00  0.00    +0.000 OA
ATOM     22  C   UNL     1       6.232   4.039  14.097  0.00  0.00    +0.000 C 
ENDBRANCH   7  21
BRANCH   8  23
ATOM     23  O   UNL     1       6.681   7.250  17.016  0.00  0.00    +0.000 OA
BRANCH  23  24
ATOM     24  C   UNL     1       7.823   6.905  17.793  0.00  0.00    +0.000 C 
BRANCH  24  25
ATOM     25  C   UNL     1       8.407   8.118  18.540  0.00  0.00    +0.000 C 
BRANCH  25  26
ATOM     26  C   UNL     1       8.119   9.374  17.704  0.00  0.00    +0.000 C 
BRANCH  26  27
ATOM     27  C   UNL     1       8.884  10.612  18.154  0.00  0.00    +0.000 C 
BRANCH  27  28
ATOM     28  C   UNL     1       9.484  10.426  19.554  0.00  0.00    +0.000 C 
BRANCH  28  29
ATOM     29  C   UNL     1       9.780  11.765  20.197  0.00  0.00    +0.000 C 
ATOM     30  O   UNL     1      10.491  11.916  21.189  0.00  0.00    +0.000 OA
ATOM     31  N   UNL     1       9.180  12.836  19.585  0.00  0.00    +0.000 N 
ATOM     32  H   UNL     1       8.689  12.819  18.698  0.00  0.00    +0.000 HD
BRANCH  31  33
ATOM     33  O   UNL     1       9.483  14.102  20.136  0.00  0.00    +0.000 OA
ATOM     34  H   UNL     1      10.261  13.898  20.702  0.00  0.00    +0.000 HD
ENDBRANCH  31  33
ENDBRANCH  28  29
ENDBRANCH  27  28
ENDBRANCH  26  27
ENDBRANCH  25  26
ENDBRANCH  24  25
ENDBRANCH  23  24
ENDBRANCH   8  23
TORSDOF 12
ENDMDL
MODEL 4
REMARK VINA RESULT:      -7.8      1.292      1.503
REMARK  Name = 
REMARK  13 active torsions:
REMARK  status: ('A' for Active; 'I' for Inactive)
REMARK    1  A    between atoms: C_2  and  C_3
REMARK    2  A    between atoms: C_7  and  N_8
REMARK    3  A    between atoms: N_8  and  C_9
REMARK    4  A    between atoms: C_15  and  O_16
REMARK    5  A    between atoms: O_16  and  C_17
REMARK    6  A    between atoms: C_18  and  O_19
REMARK    7  A    between atoms: O_19  and  C_20
REMARK    8  A    between atoms: C_20  and  C_21
REMARK    9  A    between atoms: C_21  and  C_22
REMARK   10  A    between atoms: C_22  and  C_23
REMARK   11  A    between atoms: C_23  and  C_24
REMARK   12  A    between atoms: C_24  and  C_25
REMARK   13  A    between atoms: N_27  and  O_28
REMARK                            x       y       z     vdW  Elec       q    Type
REMARK                         _______ _______ _______ _____ _____    ______ ____
ROOT
ATOM      1  C   UNL     1       2.858   5.230  19.099  0.00  0.00    +0.000 A 
ATOM      2  N   UNL     1       1.775   4.452  18.884  0.00  0.00    +0.000 NA
ATOM      3  C   UNL     1       1.860   3.548  17.911  0.00  0.00    +0.000 A 
ATOM      4  N   UNL     1       2.909   3.360  17.115  0.00  0.00    +0.000 NA
ATOM      5  C   UNL     1       3.975   4.134  17.344  0.00  0.00    +0.000 A 
ATOM      6  C   UNL     1       5.051   3.986  16.496  0.00  0.00    +0.000 A 
ATOM      7  C   UNL     1       6.230   4.743  16.604  0.00  0.00    +0.000 A 
ATOM      8  C   UNL     1       6.335   5.675  17.654  0.00  0.00    +0.000 A 
ATOM      9  C   UNL     1       5.244   5.831  18.524  0.00  0.00    +0.000 A 
ATOM     10  C   UNL     1       4.047   5.083  18.360  0.00  0.00    +0.000 A 
ENDROOT
BRANCH   1  11
ATOM     11  N   UNL     1       2.764   6.243  20.083  0.00  0.00    +0.000 N 
ATOM     12  H   UNL     1       2.557   5.825  20.985  0.00  0.00    +0.000 HD
BRANCH  11  17
ATOM     13  C   UNL     1       0.695   9.305  20.668  0.00  0.00    +0.000 A 
ATOM     14  C   UNL     1       0.731   9.888  19.404  0.00  0.00    +0.000 A 
ATOM     15  C   UNL     1       1.443   9.277  18.375  0.00  0.00    +0.000 A 
ATOM     16  C   UNL     1       2.128   8.078  18.605  0.00  0.00    +0.000 A 
ATOM     17  C   UNL     1       2.140   7.495  19.877  0.00  0.00    +0.000 A 
ATOM     18  C   UNL     1       1.401   8.120  20.898  0.00  0.00    +0.000 A 
BRANCH  13  20
ATOM     19  C   UNL     1      -0.709  10.331  22.637  0.00  0.00    +0.000 C 
ATOM     20  C   UNL     1      -0.084   9.880  21.723  0.00  0.00    +0.000 C 
ENDBRANCH  13  20
ENDBRANCH  11  17
ENDBRANCH   1  11
BRANCH   7  21
ATOM     21  O   UNL     1       7.265   4.574  15.716  0.00  0.00    +0.000 OA
ATOM     22  C   UNL     1       6.947   4.691  14.324  0.00  0.00    +0.000 C 
ENDBRANCH   7  21
BRANCH   8  23
ATOM     23  O   UNL     1       7.417   6.458  18.000  0.00  0.00    +0.000 OA
BRANCH  23  24
ATOM     24  C   UNL     1       7.711   7.525  17.104  0.00  0.00    +0.000 C 
BRANCH  24  25
ATOM     25  C   UNL     1       7.605   8.902  17.785  0.00  0.00    +0.000 C 
BRANCH  25  26
ATOM     26  C   UNL     1       8.843   9.088  18.674  0.00  0.00    +0.000 C 
BRANCH  26  27
ATOM     27  C   UNL     1       9.277  10.538  18.845  0.00  0.00    +0.000 C 
BRANCH  27  28
ATOM     28  C   UNL     1       9.409  10.917  20.326  0.00  0.00    +0.000 C 
BRANCH  28  29
ATOM     29  C   UNL     1       9.543  12.417  20.490  0.00  0.00    +0.000 C 
ATOM     30  O   UNL     1       9.472  13.224  19.565  0.00  0.00    +0.000 OA
ATOM     31  N   UNL     1       9.761  12.832  21.778  0.00  0.00    +0.000 N 
ATOM     32  H   UNL     1       9.706  12.253  22.609  0.00  0.00    +0.000 HD
BRANCH  31  33
ATOM     33  O   UNL     1       9.838  14.231  21.964  0.00  0.00    +0.000 OA
ATOM     34  H   UNL     1      10.568  14.479  21.353  0.00  0.00    +0.000 HD
ENDBRANCH  31  33
ENDBRANCH  28  29
ENDBRANCH  27  28
ENDBRANCH  26  27
ENDBRANCH  25  26
ENDBRANCH  24  25
ENDBRANCH  23  24
ENDBRANCH   8  23
TORSDOF 12
ENDMDL
MODEL 5
REMARK VINA RESULT:      -7.7      1.407      1.582
REMARK  Name = 
REMARK  13 active torsions:
REMARK  status: ('A' for Active; 'I' for Inactive)
REMARK    1  A    between atoms: C_2  and  C_3
REMARK    2  A    between atoms: C_7  and  N_8
REMARK    3  A    between atoms: N_8  and  C_9
REMARK    4  A    between atoms: C_15  and  O_16
REMARK    5  A    between atoms: O_16  and  C_17
REMARK    6  A    between atoms: C_18  and  O_19
REMARK    7  A    between atoms: O_19  and  C_20
REMARK    8  A    between atoms: C_20  and  C_21
REMARK    9  A    between atoms: C_21  and  C_22
REMARK   10  A    between atoms: C_22  and  C_23
REMARK   11  A    between atoms: C_23  and  C_24
REMARK   12  A    between atoms: C_24  and  C_25
REMARK   13  A    between atoms: N_27  and  O_28
REMARK                            x       y       z     vdW  Elec       q    Type
REMARK                         _______ _______ _______ _____ _____    ______ ____
ROOT
ATOM      1  C   UNL     1       2.254   5.220  20.012  0.00  0.00    +0.000 A 
ATOM      2  N   UNL     1       1.111   4.502  20.058  0.00  0.00    +0.000 NA
ATOM      3  C   UNL     1       1.019   3.453  19.244  0.00  0.00    +0.000 A 
ATOM      4  N   UNL     1       1.944   3.065  18.370  0.00  0.00    +0.000 NA
ATOM      5  C   UNL     1       3.073   3.782  18.341  0.00  0.00    +0.000 A 
ATOM      6  C   UNL     1       4.020   3.423  17.407  0.00  0.00    +0.000 A 
ATOM      7  C   UNL     1       5.242   4.096  17.248  0.00  0.00    +0.000 A 
ATOM      8  C   UNL     1       5.534   5.170  18.111  0.00  0.00    +0.000 A 
ATOM      9  C   UNL     1       4.576   5.542  19.067  0.00  0.00    +0.000 A 
ATOM     10  C   UNL     1       3.328   4.870  19.172  0.00  0.00    +0.000 A 
ENDROOT
BRANCH   1  11
ATOM     11  N   UNL     1       2.345   6.379  20.820  0.00  0.00    +0.000 N 
ATOM     12  H   UNL     1       2.235   6.123  21.798  0.00  0.00    +0.000 HD
BRANCH  11  17
ATOM     13  C   UNL     1       0.377   9.550  21.081  0.00  0.00    +0.000 A 
ATOM     14  C   UNL     1       0.452  10.011  19.769  0.00  0.00    +0.000 A 
ATOM     15  C   UNL     1       1.156   9.281  18.814  0.00  0.00    +0.000 A 
ATOM     16  C   UNL     1       1.794   8.087  19.167  0.00  0.00    +0.000 A 
ATOM     17  C   UNL     1       1.769   7.626  20.487  0.00  0.00    +0.000 A 
ATOM     18  C   UNL     1       1.037   8.369  21.433  0.00  0.00    +0.000 A 
BRANCH  13  20
ATOM     19  C   UNL     1      -1.036  10.789  22.916  0.00  0.00    +0.000 C 
ATOM     20  C   UNL     1      -0.396  10.247  22.064  0.00  0.00    +0.000 C 
ENDBRANCH  13  20
ENDBRANCH  11  17
ENDBRANCH   1  11
BRANCH   7  21
ATOM     21  O   UNL     1       6.143   3.713  16.283  0.00  0.00    +0.000 OA
ATOM     22  C   UNL     1       5.891   4.167  14.948  0.00  0.00    +0.000 C 
ENDBRANCH   7  21
BRANCH   8  23
ATOM     23  O   UNL     1       6.693   5.913  18.192  0.00  0.00    +0.000 OA
BRANCH  23  24
ATOM     24  C   UNL     1       6.945   6.776  17.087  0.00  0.00    +0.000 C 
BRANCH  24  25
ATOM     25  C   UNL     1       7.013   8.256  17.508  0.00  0.00    +0.000 C 
BRANCH  25  26
ATOM     26  C   UNL     1       8.339   8.478  18.251  0.00  0.00    +0.000 C 
BRANCH  26  27
ATOM     27  C   UNL     1       8.865   9.905  18.173  0.00  0.00    +0.000 C 
BRANCH  27  28
ATOM     28  C   UNL     1       9.452  10.363  19.516  0.00  0.00    +0.000 C 
BRANCH  28  29
ATOM     29  C   UNL     1      10.532  11.403  19.306  0.00  0.00    +0.000 C 
ATOM     30  O   UNL     1      11.288  11.806  20.189  0.00  0.00    +0.000 OA
ATOM     31  N   UNL     1      10.615  11.889  18.026  0.00  0.00    +0.000 N 
ATOM     32  H   UNL     1      10.124  11.525  17.217  0.00  0.00    +0.000 HD
BRANCH  31  33
ATOM     33  O   UNL     1      11.650  12.823  17.794  0.00  0.00    +0.000 OA
ATOM     34  H   UNL     1      11.844  12.681  16.840  0.00  0.00    +0.000 HD
ENDBRANCH  31  33
ENDBRANCH  28  29
ENDBRANCH  27  28
ENDBRANCH  26  27
ENDBRANCH  25  26
ENDBRANCH  24  25
ENDBRANCH  23  24
ENDBRANCH   8  23
TORSDOF 12
ENDMDL
MODEL 6
REMARK VINA RESULT:      -7.6      1.145      1.649
REMARK  Name = 
REMARK  13 active torsions:
REMARK  status: ('A' for Active; 'I' for Inactive)
REMARK    1  A    between atoms: C_2  and  C_3
REMARK    2  A    between atoms: C_7  and  N_8
REMARK    3  A    between atoms: N_8  and  C_9
REMARK    4  A    between atoms: C_15  and  O_16
REMARK    5  A    between atoms: O_16  and  C_17
REMARK    6  A    between atoms: C_18  and  O_19
REMARK    7  A    between atoms: O_19  and  C_20
REMARK    8  A    between atoms: C_20  and  C_21
REMARK    9  A    between atoms: C_21  and  C_22
REMARK   10  A    between atoms: C_22  and  C_23
REMARK   11  A    between atoms: C_23  and  C_24
REMARK   12  A    between atoms: C_24  and  C_25
REMARK   13  A    between atoms: N_27  and  O_28
REMARK                            x       y       z     vdW  Elec       q    Type
REMARK                         _______ _______ _______ _____ _____    ______ ____
ROOT
ATOM      1  C   UNL     1       2.920   6.504  18.319  0.00  0.00    +0.000 A 
ATOM      2  N   UNL     1       1.843   5.703  18.465  0.00  0.00    +0.000 NA
ATOM      3  C   UNL     1       1.918   4.482  17.939  0.00  0.00    +0.000 A 
ATOM      4  N   UNL     1       2.951   3.992  17.259  0.00  0.00    +0.000 NA
ATOM      5  C   UNL     1       4.011   4.797  17.127  0.00  0.00    +0.000 A 
ATOM      6  C   UNL     1       5.069   4.322  16.382  0.00  0.00    +0.000 A 
ATOM      7  C   UNL     1       6.239   5.062  16.143  0.00  0.00    +0.000 A 
ATOM      8  C   UNL     1       6.355   6.340  16.725  0.00  0.00    +0.000 A 
ATOM      9  C   UNL     1       5.283   6.830  17.487  0.00  0.00    +0.000 A 
ATOM     10  C   UNL     1       4.093   6.075  17.671  0.00  0.00    +0.000 A 
ENDROOT
BRANCH   1  11
ATOM     11  N   UNL     1       2.834   7.829  18.811  0.00  0.00    +0.000 N 
ATOM     12  H   UNL     1       3.710   8.083  19.260  0.00  0.00    +0.000 HD
BRANCH  11  17
ATOM     13  C   UNL     1      -0.158   9.973  19.477  0.00  0.00    +0.000 A 
ATOM     14  C   UNL     1      -0.467   9.590  20.780  0.00  0.00    +0.000 A 
ATOM     15  C   UNL     1       0.303   8.624  21.423  0.00  0.00    +0.000 A 
ATOM     16  C   UNL     1       1.386   8.032  20.765  0.00  0.00    +0.000 A 
ATOM     17  C   UNL     1       1.690   8.370  19.442  0.00  0.00    +0.000 A 
ATOM     18  C   UNL     1       0.910   9.360  18.816  0.00  0.00    +0.000 A 
BRANCH  13  20
ATOM     19  C   UNL     1      -1.480  11.870  18.230  0.00  0.00    +0.000 C 
ATOM     20  C   UNL     1      -0.894  11.011  18.820  0.00  0.00    +0.000 C 
ENDBRANCH  13  20
ENDBRANCH  11  17
ENDBRANCH   1  11
BRANCH   7  21
ATOM     21  O   UNL     1       7.256   4.552  15.372  0.00  0.00    +0.000 OA
ATOM     22  C   UNL     1       7.006   4.441  13.967  0.00  0.00    +0.000 C 
ENDBRANCH   7  21
BRANCH   8  23
ATOM     23  O   UNL     1       7.434   7.199  16.696  0.00  0.00    +0.000 OA
BRANCH  23  24
ATOM     24  C   UNL     1       7.473   8.166  17.740  0.00  0.00    +0.000 C 
BRANCH  24  25
ATOM     25  C   UNL     1       8.564   9.228  17.510  0.00  0.00    +0.000 C 
BRANCH  25  26
ATOM     26  C   UNL     1       9.050   9.716  18.883  0.00  0.00    +0.000 C 
BRANCH  26  27
ATOM     27  C   UNL     1       9.391  11.200  18.932  0.00  0.00    +0.000 C 
BRANCH  27  28
ATOM     28  C   UNL     1      10.538  11.547  17.974  0.00  0.00    +0.000 C 
BRANCH  28  29
ATOM     29  C   UNL     1      10.360  12.937  17.399  0.00  0.00    +0.000 C 
ATOM     30  O   UNL     1       9.529  13.751  17.798  0.00  0.00    +0.000 OA
ATOM     31  N   UNL     1      11.208  13.239  16.365  0.00  0.00    +0.000 N 
ATOM     32  H   UNL     1      11.999  12.682  16.060  0.00  0.00    +0.000 HD
BRANCH  31  33
ATOM     33  O   UNL     1      11.095  14.548  15.846  0.00  0.00    +0.000 OA
ATOM     34  H   UNL     1      11.825  14.571  15.186  0.00  0.00    +0.000 HD
ENDBRANCH  31  33
ENDBRANCH  28  29
ENDBRANCH  27  28
ENDBRANCH  26  27
ENDBRANCH  25  26
ENDBRANCH  24  25
ENDBRANCH  23  24
ENDBRANCH   8  23
TORSDOF 12
ENDMDL
MODEL 7
REMARK VINA RESULT:      -7.5      1.360      1.987
REMARK  Name = 
REMARK  13 active torsions:
REMARK  status: ('A' for Active; 'I' for Inactive)
REMARK    1  A    between atoms: C_2  and  C_3
REMARK    2  A    between atoms: C_7  and  N_8
REMARK    3  A    between atoms: N_8  and  C_9
REMARK    4  A    between atoms: C_15  and  O_16
REMARK    5  A    between atoms: O_16  and  C_17
REMARK    6  A    between atoms: C_18  and  O_19
REMARK    7  A    between atoms: O_19  and  C_20
REMARK    8  A    between atoms: C_20  and  C_21
REMARK    9  A    between atoms: C_21  and  C_22
REMARK   10  A    between atoms: C_22  and  C_23
REMARK   11  A    between atoms: C_23  and  C_24
REMARK   12  A    between atoms: C_24  and  C_25
REMARK   13  A    between atoms: N_27  and  O_28
REMARK                            x       y       z     vdW  Elec       q    Type
REMARK                         _______ _______ _______ _____ _____    ______ ____
ROOT
ATOM      1  C   UNL     1       2.364   4.994  19.400  0.00  0.00    +0.000 A 
ATOM      2  N   UNL     1       1.268   4.227  19.211  0.00  0.00    +0.000 NA
ATOM      3  C   UNL     1       1.281   3.394  18.173  0.00  0.00    +0.000 A 
ATOM      4  N   UNL     1       2.269   3.269  17.290  0.00  0.00    +0.000 NA
ATOM      5  C   UNL     1       3.349   4.031  17.494  0.00  0.00    +0.000 A 
ATOM      6  C   UNL     1       4.359   3.950  16.560  0.00  0.00    +0.000 A 
ATOM      7  C   UNL     1       5.542   4.704  16.634  0.00  0.00    +0.000 A 
ATOM      8  C   UNL     1       5.723   5.560  17.737  0.00  0.00    +0.000 A 
ATOM      9  C   UNL     1       4.700   5.648  18.694  0.00  0.00    +0.000 A 
ATOM     10  C   UNL     1       3.495   4.906  18.567  0.00  0.00    +0.000 A 
ENDROOT
BRANCH   1  11
ATOM     11  N   UNL     1       2.342   5.935  20.457  0.00  0.00    +0.000 N 
ATOM     12  H   UNL     1       2.267   5.448  21.346  0.00  0.00    +0.000 HD
BRANCH  11  17
ATOM     13  C   UNL     1       1.343   9.410  19.499  0.00  0.00    +0.000 A 
ATOM     14  C   UNL     1       0.377   9.678  20.464  0.00  0.00    +0.000 A 
ATOM     15  C   UNL     1       0.054   8.712  21.414  0.00  0.00    +0.000 A 
ATOM     16  C   UNL     1       0.695   7.468  21.401  0.00  0.00    +0.000 A 
ATOM     17  C   UNL     1       1.639   7.161  20.416  0.00  0.00    +0.000 A 
ATOM     18  C   UNL     1       1.963   8.157  19.476  0.00  0.00    +0.000 A 
BRANCH  13  20
ATOM     19  C   UNL     1       2.021  11.262  17.763  0.00  0.00    +0.000 C 
ATOM     20  C   UNL     1       1.739  10.411  18.554  0.00  0.00    +0.000 C 
ENDBRANCH  13  20
ENDBRANCH  11  17
ENDBRANCH   1  11
BRANCH   7  21
ATOM     21  O   UNL     1       6.509   4.604  15.662  0.00  0.00    +0.000 OA
ATOM     22  C   UNL     1       6.136   3.942  14.448  0.00  0.00    +0.000 C 
ENDBRANCH   7  21
BRANCH   8  23
ATOM     23  O   UNL     1       6.827   6.323  18.057  0.00  0.00    +0.000 OA
BRANCH  23  24
ATOM     24  C   UNL     1       6.794   7.670  17.595  0.00  0.00    +0.000 C 
BRANCH  24  25
ATOM     25  C   UNL     1       8.206   8.261  17.421  0.00  0.00    +0.000 C 
BRANCH  25  26
ATOM     26  C   UNL     1       8.526   9.099  18.668  0.00  0.00    +0.000 C 
BRANCH  26  27
ATOM     27  C   UNL     1       9.014  10.510  18.362  0.00  0.00    +0.000 C 
BRANCH  27  28
ATOM     28  C   UNL     1      10.076  10.970  19.370  0.00  0.00    +0.000 C 
BRANCH  28  29
ATOM     29  C   UNL     1      11.057  11.924  18.723  0.00  0.00    +0.000 C 
ATOM     30  O   UNL     1      11.542  12.905  19.283  0.00  0.00    +0.000 OA
ATOM     31  N   UNL     1      11.380  11.617  17.425  0.00  0.00    +0.000 N 
ATOM     32  H   UNL     1      11.130  10.766  16.934  0.00  0.00    +0.000 HD
BRANCH  31  33
ATOM     33  O   UNL     1      12.333  12.463  16.817  0.00  0.00    +0.000 OA
ATOM     34  H   UNL     1      13.180  12.022  17.053  0.00  0.00    +0.000 HD
ENDBRANCH  31  33
ENDBRANCH  28  29
ENDBRANCH  27  28
ENDBRANCH  26  27
ENDBRANCH  25  26
ENDBRANCH  24  25
ENDBRANCH  23  24
ENDBRANCH   8  23
TORSDOF 12
ENDMDL
MODEL 8
REMARK VINA RESULT:      -7.5      4.586      9.281
REMARK  Name = 
REMARK  13 active torsions:
REMARK  status: ('A' for Active; 'I' for Inactive)
REMARK    1  A    between atoms: C_2  and  C_3
REMARK    2  A    between atoms: C_7  and  N_8
REMARK    3  A    between atoms: N_8  and  C_9
REMARK    4  A    between atoms: C_15  and  O_16
REMARK    5  A    between atoms: O_16  and  C_17
REMARK    6  A    between atoms: C_18  and  O_19
REMARK    7  A    between atoms: O_19  and  C_20
REMARK    8  A    between atoms: C_20  and  C_21
REMARK    9  A    between atoms: C_21  and  C_22
REMARK   10  A    between atoms: C_22  and  C_23
REMARK   11  A    between atoms: C_23  and  C_24
REMARK   12  A    between atoms: C_24  and  C_25
REMARK   13  A    between atoms: N_27  and  O_28
REMARK                            x       y       z     vdW  Elec       q    Type
REMARK                         _______ _______ _______ _____ _____    ______ ____
ROOT
ATOM      1  C   UNL     1       3.259   6.148  18.776  0.00  0.00    +0.000 A 
ATOM      2  N   UNL     1       3.450   4.852  19.105  0.00  0.00    +0.000 NA
ATOM      3  C   UNL     1       2.738   4.373  20.122  0.00  0.00    +0.000 A 
ATOM      4  N   UNL     1       1.874   5.066  20.860  0.00  0.00    +0.000 NA
ATOM      5  C   UNL     1       1.692   6.346  20.517  0.00  0.00    +0.000 A 
ATOM      6  C   UNL     1       0.838   7.090  21.303  0.00  0.00    +0.000 A 
ATOM      7  C   UNL     1       0.567   8.450  21.075  0.00  0.00    +0.000 A 
ATOM      8  C   UNL     1       1.167   9.077  19.966  0.00  0.00    +0.000 A 
ATOM      9  C   UNL     1       2.037   8.326  19.160  0.00  0.00    +0.000 A 
ATOM     10  C   UNL     1       2.328   6.964  19.444  0.00  0.00    +0.000 A 
ENDROOT
BRANCH   1  11
ATOM     11  N   UNL     1       4.056   6.695  17.741  0.00  0.00    +0.000 N 
ATOM     12  H   UNL     1       3.461   7.159  17.060  0.00  0.00    +0.000 HD
BRANCH  11  17
ATOM     13  C   UNL     1       6.188   4.748  15.362  0.00  0.00    +0.000 A 
ATOM     14  C   UNL     1       7.340   4.578  16.125  0.00  0.00    +0.000 A 
ATOM     15  C   UNL     1       7.410   5.113  17.409  0.00  0.00    +0.000 A 
ATOM     16  C   UNL     1       6.328   5.826  17.936  0.00  0.00    +0.000 A 
ATOM     17  C   UNL     1       5.177   6.046  17.173  0.00  0.00    +0.000 A 
ATOM     18  C   UNL     1       5.119   5.483  15.885  0.00  0.00    +0.000 A 
BRANCH  13  20
ATOM     19  C   UNL     1       6.016   3.658  12.978  0.00  0.00    +0.000 C 
ATOM     20  C   UNL     1       6.067   4.151  14.066  0.00  0.00    +0.000 C 
ENDBRANCH  13  20
ENDBRANCH  11  17
ENDBRANCH   1  11
BRANCH   7  21
ATOM     21  O   UNL     1      -0.274   9.153  21.903  0.00  0.00    +0.000 OA
ATOM     22  C   UNL     1       0.261   9.566  23.166  0.00  0.00    +0.000 C 
ENDBRANCH   7  21
BRANCH   8  23
ATOM     23  O   UNL     1       0.982  10.364  19.506  0.00  0.00    +0.000 OA
BRANCH  23  24
ATOM     24  C   UNL     1       0.249  10.479  18.291  0.00  0.00    +0.000 C 
BRANCH  24  25
ATOM     25  C   UNL     1      -1.260  10.248  18.496  0.00  0.00    +0.000 C 
BRANCH  25  26
ATOM     26  C   UNL     1      -1.999  10.830  17.283  0.00  0.00    +0.000 C 
BRANCH  26  27
ATOM     27  C   UNL     1      -3.008   9.878  16.651  0.00  0.00    +0.000 C 
BRANCH  27  28
ATOM     28  C   UNL     1      -3.913  10.603  15.646  0.00  0.00    +0.000 C 
BRANCH  28  29
ATOM     29  C   UNL     1      -3.630  10.138  14.233  0.00  0.00    +0.000 C 
ATOM     30  O   UNL     1      -2.504   9.947  13.778  0.00  0.00    +0.000 OA
ATOM     31  N   UNL     1      -4.748   9.941  13.463  0.00  0.00    +0.000 N 
ATOM     32  H   UNL     1      -5.708   9.951  13.790  0.00  0.00    +0.000 HD
BRANCH  31  33
ATOM     33  O   UNL     1      -4.512   9.458  12.156  0.00  0.00    +0.000 OA
ATOM     34  H   UNL     1      -3.644   9.005  12.259  0.00  0.00    +0.000 HD
ENDBRANCH  31  33
ENDBRANCH  28  29
ENDBRANCH  27  28
ENDBRANCH  26  27
ENDBRANCH  25  26
ENDBRANCH  24  25
ENDBRANCH  23  24
ENDBRANCH   8  23
TORSDOF 12
ENDMDL
MODEL 9
REMARK VINA RESULT:      -7.3      1.540      2.134
REMARK  Name = 
REMARK  13 active torsions:
REMARK  status: ('A' for Active; 'I' for Inactive)
REMARK    1  A    between atoms: C_2  and  C_3
REMARK    2  A    between atoms: C_7  and  N_8
REMARK    3  A    between atoms: N_8  and  C_9
REMARK    4  A    between atoms: C_15  and  O_16
REMARK    5  A    between atoms: O_16  and  C_17
REMARK    6  A    between atoms: C_18  and  O_19
REMARK    7  A    between atoms: O_19  and  C_20
REMARK    8  A    between atoms: C_20  and  C_21
REMARK    9  A    between atoms: C_21  and  C_22
REMARK   10  A    between atoms: C_22  and  C_23
REMARK   11  A    between atoms: C_23  and  C_24
REMARK   12  A    between atoms: C_24  and  C_25
REMARK   13  A    between atoms: N_27  and  O_28
REMARK                            x       y       z     vdW  Elec       q    Type
REMARK                         _______ _______ _______ _____ _____    ______ ____
ROOT
ATOM      1  C   UNL     1       3.046   6.462  18.214  0.00  0.00    +0.000 A 
ATOM      2  N   UNL     1       1.957   5.674  18.342  0.00  0.00    +0.000 NA
ATOM      3  C   UNL     1       2.027   4.452  17.819  0.00  0.00    +0.000 A 
ATOM      4  N   UNL     1       3.067   3.948  17.159  0.00  0.00    +0.000 NA
ATOM      5  C   UNL     1       4.139   4.739  17.046  0.00  0.00    +0.000 A 
ATOM      6  C   UNL     1       5.205   4.251  16.322  0.00  0.00    +0.000 A 
ATOM      7  C   UNL     1       6.388   4.976  16.104  0.00  0.00    +0.000 A 
ATOM      8  C   UNL     1       6.509   6.253  16.685  0.00  0.00    +0.000 A 
ATOM      9  C   UNL     1       5.429   6.758  17.426  0.00  0.00    +0.000 A 
ATOM     10  C   UNL     1       4.226   6.018  17.589  0.00  0.00    +0.000 A 
ENDROOT
BRANCH   1  11
ATOM     11  N   UNL     1       2.968   7.789  18.703  0.00  0.00    +0.000 N 
ATOM     12  H   UNL     1       3.849   8.044  19.140  0.00  0.00    +0.000 HD
BRANCH  11  17
ATOM     13  C   UNL     1      -0.031   9.918  19.387  0.00  0.00    +0.000 A 
ATOM     14  C   UNL     1      -0.308   9.561  20.705  0.00  0.00    +0.000 A 
ATOM     15  C   UNL     1       0.486   8.618  21.352  0.00  0.00    +0.000 A 
ATOM     16  C   UNL     1       1.561   8.021  20.683  0.00  0.00    +0.000 A 
ATOM     17  C   UNL     1       1.832   8.332  19.347  0.00  0.00    +0.000 A 
ATOM     18  C   UNL     1       1.029   9.301  18.716  0.00  0.00    +0.000 A 
BRANCH  13  20
ATOM     19  C   UNL     1      -1.462  11.747  18.159  0.00  0.00    +0.000 C 
ATOM     20  C   UNL     1      -0.792  10.934  18.723  0.00  0.00    +0.000 C 
ENDBRANCH  13  20
ENDBRANCH  11  17
ENDBRANCH   1  11
BRANCH   7  21
ATOM     21  O   UNL     1       7.413   4.452  15.352  0.00  0.00    +0.000 OA
ATOM     22  C   UNL     1       7.418   4.772  13.956  0.00  0.00    +0.000 C 
ENDBRANCH   7  21
BRANCH   8  23
ATOM     23  O   UNL     1       7.598   7.099  16.675  0.00  0.00    +0.000 OA
BRANCH  23  24
ATOM     24  C   UNL     1       7.453   8.291  17.440  0.00  0.00    +0.000 C 
BRANCH  24  25
ATOM     25  C   UNL     1       8.639   8.517  18.396  0.00  0.00    +0.000 C 
BRANCH  25  26
ATOM     26  C   UNL     1       8.669  10.006  18.773  0.00  0.00    +0.000 C 
BRANCH  26  27
ATOM     27  C   UNL     1       9.735  10.813  18.043  0.00  0.00    +0.000 C 
BRANCH  27  28
ATOM     28  C   UNL     1      10.700  11.490  19.026  0.00  0.00    +0.000 C 
BRANCH  28  29
ATOM     29  C   UNL     1       9.940  12.188  20.134  0.00  0.00    +0.000 C 
ATOM     30  O   UNL     1       9.209  13.162  19.966  0.00  0.00    +0.000 OA
ATOM     31  N   UNL     1      10.129  11.650  21.381  0.00  0.00    +0.000 N 
ATOM     32  H   UNL     1      10.607  10.780  21.590  0.00  0.00    +0.000 HD
BRANCH  31  33
ATOM     33  O   UNL     1       9.390  12.253  22.424  0.00  0.00    +0.000 OA
ATOM     34  H   UNL     1      10.102  12.546  23.037  0.00  0.00    +0.000 HD
ENDBRANCH  31  33
ENDBRANCH  28  29
ENDBRANCH  27  28
ENDBRANCH  26  27
ENDBRANCH  25  26
ENDBRANCH  24  25
ENDBRANCH  23  24
ENDBRANCH   8  23
TORSDOF 12
ENDMDL
