MODEL 1
REMARK VINA RESULT:      -6.9      0.000      0.000
REMARK  Name = 
REMARK  3 active torsions:
REMARK  status: ('A' for Active; 'I' for Inactive)
REMARK    1  A    between atoms: C_2  and  C_3
REMARK    2  A    between atoms: C_6  and  C_7
REMARK    3  A    between atoms: C_9  and  N_10
REMARK                            x       y       z     vdW  Elec       q    Type
REMARK                         _______ _______ _______ _____ _____    ______ ____
ROOT
ATOM      1  C   UNL     1       5.271   4.264  17.014  0.00  0.00    +0.000 A 
ATOM      2  C   UNL     1       5.258   3.582  15.848  0.00  0.00    +0.000 A 
ATOM      3  C   UNL     1       6.127   3.988  14.741  0.00  0.00    +0.000 A 
ATOM      4  C   UNL     1       6.981   5.022  14.907  0.00  0.00    +0.000 A 
ATOM      5  C   UNL     1       7.013   5.750  16.126  0.00  0.00    +0.000 A 
ATOM      6  N   UNL     1       7.716   6.796  16.501  0.00  0.00    +0.000 NA
ATOM      7  C   UNL     1       7.254   7.034  17.759  0.00  0.00    +0.000 A 
ATOM      8  N   UNL     1       6.318   6.197  18.206  0.00  0.00    +0.000 NA
ATOM      9  N   UNL     1       6.144   5.356  17.148  0.00  0.00    +0.000 N 
ENDROOT
BRANCH   1  13
ATOM     10  C   UNL     1       2.674   3.150  20.224  0.00  0.00    +0.000 A 
ATOM     11  C   UNL     1       3.948   2.580  20.120  0.00  0.00    +0.000 A 
ATOM     12  C   UNL     1       4.793   2.933  19.065  0.00  0.00    +0.000 A 
ATOM     13  C   UNL     1       4.373   3.864  18.107  0.00  0.00    +0.000 A 
ATOM     14  C   UNL     1       3.092   4.423  18.205  0.00  0.00    +0.000 A 
ATOM     15  C   UNL     1       2.247   4.069  19.260  0.00  0.00    +0.000 A 
BRANCH  10  17
ATOM     16  N   UNL     1       1.124   2.507  22.203  0.00  0.00    +0.000 NA
ATOM     17  C   UNL     1       1.816   2.796  21.317  0.00  0.00    +0.000 C 
ENDBRANCH  10  17
ENDBRANCH   1  13
BRANCH   3  18
ATOM     18  N   UNL     1       6.002   3.300  13.560  0.00  0.00    +0.000 N 
ATOM     19  H   UNL     1       6.520   2.428  13.498  0.00  0.00    +0.000 HD
ATOM     20  H   UNL     1       6.061   3.867  12.718  0.00  0.00    +0.000 HD
ENDBRANCH   3  18
TORSDOF 3
ENDMDL
MODEL 2
REMARK VINA RESULT:      -6.9      3.821      6.099
REMARK  Name = 
REMARK  3 active torsions:
REMARK  status: ('A' for Active; 'I' for Inactive)
REMARK    1  A    between atoms: C_2  and  C_3
REMARK    2  A    between atoms: C_6  and  C_7
REMARK    3  A    between atoms: C_9  and  N_10
REMARK                            x       y       z     vdW  Elec       q    Type
REMARK                         _______ _______ _______ _____ _____    ______ ____
ROOT
ATOM      1  C   UNL     1       3.132   5.676  19.343  0.00  0.00    +0.000 A 
ATOM      2  C   UNL     1       4.404   5.516  18.919  0.00  0.00    +0.000 A 
ATOM      3  C   UNL     1       5.073   4.220  19.051  0.00  0.00    +0.000 A 
ATOM      4  C   UNL     1       4.394   3.166  19.556  0.00  0.00    +0.000 A 
ATOM      5  C   UNL     1       3.054   3.313  20.005  0.00  0.00    +0.000 A 
ATOM      6  N   UNL     1       2.220   2.460  20.558  0.00  0.00    +0.000 NA
ATOM      7  C   UNL     1       1.118   3.225  20.790  0.00  0.00    +0.000 A 
ATOM      8  N   UNL     1       1.198   4.498  20.406  0.00  0.00    +0.000 NA
ATOM      9  N   UNL     1       2.460   4.574  19.897  0.00  0.00    +0.000 N 
ENDROOT
BRANCH   1  13
ATOM     10  C   UNL     1       1.189   9.472  19.016  0.00  0.00    +0.000 A 
ATOM     11  C   UNL     1       1.790   8.891  17.894  0.00  0.00    +0.000 A 
ATOM     12  C   UNL     1       2.436   7.657  18.002  0.00  0.00    +0.000 A 
ATOM     13  C   UNL     1       2.482   6.990  19.232  0.00  0.00    +0.000 A 
ATOM     14  C   UNL     1       1.892   7.580  20.358  0.00  0.00    +0.000 A 
ATOM     15  C   UNL     1       1.246   8.815  20.250  0.00  0.00    +0.000 A 
BRANCH  10  17
ATOM     16  N   UNL     1      -0.038  11.748  18.803  0.00  0.00    +0.000 NA
ATOM     17  C   UNL     1       0.513  10.731  18.898  0.00  0.00    +0.000 C 
ENDBRANCH  10  17
ENDBRANCH   1  13
BRANCH   3  18
ATOM     18  N   UNL     1       6.390   4.151  18.672  0.00  0.00    +0.000 N 
ATOM     19  H   UNL     1       6.590   4.413  17.711  0.00  0.00    +0.000 HD
ATOM     20  H   UNL     1       6.887   3.318  18.976  0.00  0.00    +0.000 HD
ENDBRANCH   3  18
TORSDOF 3
ENDMDL
MODEL 3
REMARK VINA RESULT:      -6.9      3.811      6.084
REMARK  Name = 
REMARK  3 active torsions:
REMARK  status: ('A' for Active; 'I' for Inactive)
REMARK    1  A    between atoms: C_2  and  C_3
REMARK    2  A    between atoms: C_6  and  C_7
REMARK    3  A    between atoms: C_9  and  N_10
REMARK                            x       y       z     vdW  Elec       q    Type
REMARK                         _______ _______ _______ _____ _____    ______ ____
ROOT
ATOM      1  C   UNL     1       3.112   5.674  19.336  0.00  0.00    +0.000 A 
ATOM      2  C   UNL     1       4.376   5.521  18.885  0.00  0.00    +0.000 A 
ATOM      3  C   UNL     1       5.061   4.233  19.019  0.00  0.00    +0.000 A 
ATOM      4  C   UNL     1       4.405   3.180  19.553  0.00  0.00    +0.000 A 
ATOM      5  C   UNL     1       3.074   3.319  20.030  0.00  0.00    +0.000 A 
ATOM      6  N   UNL     1       2.262   2.465  20.613  0.00  0.00    +0.000 NA
ATOM      7  C   UNL     1       1.157   3.221  20.859  0.00  0.00    +0.000 A 
ATOM      8  N   UNL     1       1.215   4.489  20.457  0.00  0.00    +0.000 NA
ATOM      9  N   UNL     1       2.464   4.571  19.919  0.00  0.00    +0.000 N 
ENDROOT
BRANCH   1  13
ATOM     10  C   UNL     1       1.227   9.499  19.010  0.00  0.00    +0.000 A 
ATOM     11  C   UNL     1       1.265   8.836  20.242  0.00  0.00    +0.000 A 
ATOM     12  C   UNL     1       1.868   7.580  20.348  0.00  0.00    +0.000 A 
ATOM     13  C   UNL     1       2.446   6.979  19.223  0.00  0.00    +0.000 A 
ATOM     14  C   UNL     1       2.395   7.638  17.987  0.00  0.00    +0.000 A 
ATOM     15  C   UNL     1       1.791   8.894  17.882  0.00  0.00    +0.000 A 
BRANCH  10  17
ATOM     16  N   UNL     1       0.131  11.844  18.832  0.00  0.00    +0.000 NA
ATOM     17  C   UNL     1       0.620  10.794  18.910  0.00  0.00    +0.000 C 
ENDBRANCH  10  17
ENDBRANCH   1  13
BRANCH   3  18
ATOM     18  N   UNL     1       6.371   4.174  18.612  0.00  0.00    +0.000 N 
ATOM     19  H   UNL     1       7.068   4.277  19.343  0.00  0.00    +0.000 HD
ATOM     20  H   UNL     1       6.588   4.700  17.769  0.00  0.00    +0.000 HD
ENDBRANCH   3  18
TORSDOF 3
ENDMDL
MODEL 4
REMARK VINA RESULT:      -6.8      2.425      6.676
REMARK  Name = 
REMARK  3 active torsions:
REMARK  status: ('A' for Active; 'I' for Inactive)
REMARK    1  A    between atoms: C_2  and  C_3
REMARK    2  A    between atoms: C_6  and  C_7
REMARK    3  A    between atoms: C_9  and  N_10
REMARK                            x       y       z     vdW  Elec       q    Type
REMARK                         _______ _______ _______ _____ _____    ______ ____
ROOT
ATOM      1  C   UNL     1       3.132   5.089  18.494  0.00  0.00    +0.000 A 
ATOM      2  C   UNL     1       2.998   6.154  19.313  0.00  0.00    +0.000 A 
ATOM      3  C   UNL     1       1.995   6.149  20.380  0.00  0.00    +0.000 A 
ATOM      4  C   UNL     1       1.231   5.051  20.573  0.00  0.00    +0.000 A 
ATOM      5  C   UNL     1       1.358   3.920  19.724  0.00  0.00    +0.000 A 
ATOM      6  N   UNL     1       0.711   2.775  19.692  0.00  0.00    +0.000 NA
ATOM      7  C   UNL     1       1.271   2.142  18.625  0.00  0.00    +0.000 A 
ATOM      8  N   UNL     1       2.237   2.808  17.993  0.00  0.00    +0.000 NA
ATOM      9  N   UNL     1       2.301   3.974  18.694  0.00  0.00    +0.000 N 
ENDROOT
BRANCH   1  13
ATOM     10  C   UNL     1       6.059   5.174  15.377  0.00  0.00    +0.000 A 
ATOM     11  C   UNL     1       5.436   6.358  15.789  0.00  0.00    +0.000 A 
ATOM     12  C   UNL     1       4.470   6.330  16.799  0.00  0.00    +0.000 A 
ATOM     13  C   UNL     1       4.123   5.119  17.409  0.00  0.00    +0.000 A 
ATOM     14  C   UNL     1       4.738   3.933  16.985  0.00  0.00    +0.000 A 
ATOM     15  C   UNL     1       5.703   3.961  15.976  0.00  0.00    +0.000 A 
BRANCH  10  17
ATOM     16  N   UNL     1       7.875   5.237  13.525  0.00  0.00    +0.000 NA
ATOM     17  C   UNL     1       7.061   5.210  14.352  0.00  0.00    +0.000 C 
ENDBRANCH  10  17
ENDBRANCH   1  13
BRANCH   3  18
ATOM     18  N   UNL     1       1.861   7.296  21.122  0.00  0.00    +0.000 N 
ATOM     19  H   UNL     1       2.224   7.256  22.070  0.00  0.00    +0.000 HD
ATOM     20  H   UNL     1       0.957   7.755  21.055  0.00  0.00    +0.000 HD
ENDBRANCH   3  18
TORSDOF 3
ENDMDL
MODEL 5
REMARK VINA RESULT:      -6.8      0.104      1.145
REMARK  Name = 
REMARK  3 active torsions:
REMARK  status: ('A' for Active; 'I' for Inactive)
REMARK    1  A    between atoms: C_2  and  C_3
REMARK    2  A    between atoms: C_6  and  C_7
REMARK    3  A    between atoms: C_9  and  N_10
REMARK                            x       y       z     vdW  Elec       q    Type
REMARK                         _______ _______ _______ _____ _____    ______ ____
ROOT
ATOM      1  C   UNL     1       5.298   4.321  17.107  0.00  0.00    +0.000 A 
ATOM      2  C   UNL     1       5.257   3.624  15.950  0.00  0.00    +0.000 A 
ATOM      3  C   UNL     1       6.114   4.003  14.825  0.00  0.00    +0.000 A 
ATOM      4  C   UNL     1       6.985   5.026  14.964  0.00  0.00    +0.000 A 
ATOM      5  C   UNL     1       7.046   5.769  16.173  0.00  0.00    +0.000 A 
ATOM      6  N   UNL     1       7.770   6.810  16.523  0.00  0.00    +0.000 NA
ATOM      7  C   UNL     1       7.331   7.071  17.785  0.00  0.00    +0.000 A 
ATOM      8  N   UNL     1       6.390   6.255  18.256  0.00  0.00    +0.000 NA
ATOM      9  N   UNL     1       6.188   5.403  17.213  0.00  0.00    +0.000 N 
ENDROOT
BRANCH   1  13
ATOM     10  C   UNL     1       2.699   3.190  20.310  0.00  0.00    +0.000 A 
ATOM     11  C   UNL     1       2.294   4.158  19.384  0.00  0.00    +0.000 A 
ATOM     12  C   UNL     1       3.147   4.538  18.344  0.00  0.00    +0.000 A 
ATOM     13  C   UNL     1       4.411   3.949  18.218  0.00  0.00    +0.000 A 
ATOM     14  C   UNL     1       4.820   2.990  19.154  0.00  0.00    +0.000 A 
ATOM     15  C   UNL     1       3.968   2.611  20.194  0.00  0.00    +0.000 A 
BRANCH  10  17
ATOM     16  N   UNL     1       1.097   2.473  22.220  0.00  0.00    +0.000 NA
ATOM     17  C   UNL     1       1.816   2.792  21.366  0.00  0.00    +0.000 C 
ENDBRANCH  10  17
ENDBRANCH   1  13
BRANCH   3  18
ATOM     18  N   UNL     1       5.962   3.301  13.655  0.00  0.00    +0.000 N 
ATOM     19  H   UNL     1       6.780   2.792  13.333  0.00  0.00    +0.000 HD
ATOM     20  H   UNL     1       5.475   3.795  12.912  0.00  0.00    +0.000 HD
ENDBRANCH   3  18
TORSDOF 3
ENDMDL
MODEL 6
REMARK VINA RESULT:      -6.8      2.429      6.597
REMARK  Name = 
REMARK  3 active torsions:
REMARK  status: ('A' for Active; 'I' for Inactive)
REMARK    1  A    between atoms: C_2  and  C_3
REMARK    2  A    between atoms: C_6  and  C_7
REMARK    3  A    between atoms: C_9  and  N_10
REMARK                            x       y       z     vdW  Elec       q    Type
REMARK                         _______ _______ _______ _____ _____    ______ ____
ROOT
ATOM      1  C   UNL     1       3.176   5.084  18.507  0.00  0.00    +0.000 A 
ATOM      2  C   UNL     1       3.017   6.143  19.330  0.00  0.00    +0.000 A 
ATOM      3  C   UNL     1       1.980   6.129  20.365  0.00  0.00    +0.000 A 
ATOM      4  C   UNL     1       1.212   5.030  20.525  0.00  0.00    +0.000 A 
ATOM      5  C   UNL     1       1.366   3.905  19.672  0.00  0.00    +0.000 A 
ATOM      6  N   UNL     1       0.721   2.760  19.611  0.00  0.00    +0.000 NA
ATOM      7  C   UNL     1       1.315   2.136  18.557  0.00  0.00    +0.000 A 
ATOM      8  N   UNL     1       2.299   2.807  17.960  0.00  0.00    +0.000 NA
ATOM      9  N   UNL     1       2.341   3.967  18.672  0.00  0.00    +0.000 N 
ENDROOT
BRANCH   1  13
ATOM     10  C   UNL     1       6.114   5.193  15.400  0.00  0.00    +0.000 A 
ATOM     11  C   UNL     1       5.827   3.990  16.054  0.00  0.00    +0.000 A 
ATOM     12  C   UNL     1       4.877   3.955  17.078  0.00  0.00    +0.000 A 
ATOM     13  C   UNL     1       4.201   5.123  17.453  0.00  0.00    +0.000 A 
ATOM     14  C   UNL     1       4.500   6.329  16.806  0.00  0.00    +0.000 A 
ATOM     15  C   UNL     1       5.450   6.364  15.783  0.00  0.00    +0.000 A 
BRANCH  10  17
ATOM     16  N   UNL     1       7.858   5.249  13.480  0.00  0.00    +0.000 NA
ATOM     17  C   UNL     1       7.078   5.222  14.340  0.00  0.00    +0.000 C 
ENDBRANCH  10  17
ENDBRANCH   1  13
BRANCH   3  18
ATOM     18  N   UNL     1       1.823   7.270  21.111  0.00  0.00    +0.000 N 
ATOM     19  H   UNL     1       2.596   7.929  21.083  0.00  0.00    +0.000 HD
ATOM     20  H   UNL     1       1.445   7.130  22.044  0.00  0.00    +0.000 HD
ENDBRANCH   3  18
TORSDOF 3
ENDMDL
MODEL 7
REMARK VINA RESULT:      -6.7      4.163      5.377
REMARK  Name = 
REMARK  3 active torsions:
REMARK  status: ('A' for Active; 'I' for Inactive)
REMARK    1  A    between atoms: C_2  and  C_3
REMARK    2  A    between atoms: C_6  and  C_7
REMARK    3  A    between atoms: C_9  and  N_10
REMARK                            x       y       z     vdW  Elec       q    Type
REMARK                         _______ _______ _______ _____ _____    ______ ____
ROOT
ATOM      1  C   UNL     1       3.250   6.405  17.899  0.00  0.00    +0.000 A 
ATOM      2  C   UNL     1       4.418   6.723  17.300  0.00  0.00    +0.000 A 
ATOM      3  C   UNL     1       5.231   5.685  16.662  0.00  0.00    +0.000 A 
ATOM      4  C   UNL     1       4.783   4.411  16.631  0.00  0.00    +0.000 A 
ATOM      5  C   UNL     1       3.556   4.056  17.253  0.00  0.00    +0.000 A 
ATOM      6  N   UNL     1       2.946   2.899  17.385  0.00  0.00    +0.000 NA
ATOM      7  C   UNL     1       1.841   3.222  18.111  0.00  0.00    +0.000 A 
ATOM      8  N   UNL     1       1.708   4.509  18.432  0.00  0.00    +0.000 NA
ATOM      9  N   UNL     1       2.824   5.066  17.884  0.00  0.00    +0.000 N 
ENDROOT
BRANCH   1  13
ATOM     10  C   UNL     1       0.897   9.414  19.824  0.00  0.00    +0.000 A 
ATOM     11  C   UNL     1       1.184   9.513  18.458  0.00  0.00    +0.000 A 
ATOM     12  C   UNL     1       1.963   8.537  17.830  0.00  0.00    +0.000 A 
ATOM     13  C   UNL     1       2.458   7.451  18.562  0.00  0.00    +0.000 A 
ATOM     14  C   UNL     1       2.181   7.361  19.933  0.00  0.00    +0.000 A 
ATOM     15  C   UNL     1       1.402   8.337  20.560  0.00  0.00    +0.000 A 
BRANCH  10  17
ATOM     16  N   UNL     1      -0.572  11.217  20.973  0.00  0.00    +0.000 NA
ATOM     17  C   UNL     1       0.085  10.409  20.461  0.00  0.00    +0.000 C 
ENDBRANCH  10  17
ENDBRANCH   1  13
BRANCH   3  18
ATOM     18  N   UNL     1       6.443   6.067  16.143  0.00  0.00    +0.000 N 
ATOM     19  H   UNL     1       6.546   7.057  15.939  0.00  0.00    +0.000 HD
ATOM     20  H   UNL     1       6.814   5.464  15.414  0.00  0.00    +0.000 HD
ENDBRANCH   3  18
TORSDOF 3
ENDMDL
MODEL 8
REMARK VINA RESULT:      -6.7      4.144      5.287
REMARK  Name = 
REMARK  3 active torsions:
REMARK  status: ('A' for Active; 'I' for Inactive)
REMARK    1  A    between atoms: C_2  and  C_3
REMARK    2  A    between atoms: C_6  and  C_7
REMARK    3  A    between atoms: C_9  and  N_10
REMARK                            x       y       z     vdW  Elec       q    Type
REMARK                         _______ _______ _______ _____ _____    ______ ____
ROOT
ATOM      1  C   UNL     1       3.239   6.371  17.865  0.00  0.00    +0.000 A 
ATOM      2  C   UNL     1       4.401   6.704  17.261  0.00  0.00    +0.000 A 
ATOM      3  C   UNL     1       5.226   5.677  16.621  0.00  0.00    +0.000 A 
ATOM      4  C   UNL     1       4.796   4.397  16.593  0.00  0.00    +0.000 A 
ATOM      5  C   UNL     1       3.576   4.026  17.219  0.00  0.00    +0.000 A 
ATOM      6  N   UNL     1       2.983   2.860  17.355  0.00  0.00    +0.000 NA
ATOM      7  C   UNL     1       1.876   3.169  18.085  0.00  0.00    +0.000 A 
ATOM      8  N   UNL     1       1.726   4.454  18.404  0.00  0.00    +0.000 NA
ATOM      9  N   UNL     1       2.832   5.026  17.852  0.00  0.00    +0.000 N 
ENDROOT
BRANCH   1  13
ATOM     10  C   UNL     1       0.949   9.419  19.803  0.00  0.00    +0.000 A 
ATOM     11  C   UNL     1       1.435   8.331  20.536  0.00  0.00    +0.000 A 
ATOM     12  C   UNL     1       2.173   7.328  19.903  0.00  0.00    +0.000 A 
ATOM     13  C   UNL     1       2.435   7.406  18.529  0.00  0.00    +0.000 A 
ATOM     14  C   UNL     1       1.936   8.489  17.794  0.00  0.00    +0.000 A 
ATOM     15  C   UNL     1       1.197   9.492  18.428  0.00  0.00    +0.000 A 
BRANCH  10  17
ATOM     16  N   UNL     1      -0.399  11.288  20.994  0.00  0.00    +0.000 NA
ATOM     17  C   UNL     1       0.206  10.453  20.460  0.00  0.00    +0.000 C 
ENDBRANCH  10  17
ENDBRANCH   1  13
BRANCH   3  18
ATOM     18  N   UNL     1       6.431   6.075  16.098  0.00  0.00    +0.000 N 
ATOM     19  H   UNL     1       6.497   6.075  15.085  0.00  0.00    +0.000 HD
ATOM     20  H   UNL     1       7.252   5.691  16.557  0.00  0.00    +0.000 HD
ENDBRANCH   3  18
TORSDOF 3
ENDMDL
MODEL 9
REMARK VINA RESULT:      -6.6      3.918      5.724
REMARK  Name = 
REMARK  3 active torsions:
REMARK  status: ('A' for Active; 'I' for Inactive)
REMARK    1  A    between atoms: C_2  and  C_3
REMARK    2  A    between atoms: C_6  and  C_7
REMARK    3  A    between atoms: C_9  and  N_10
REMARK                            x       y       z     vdW  Elec       q    Type
REMARK                         _______ _______ _______ _____ _____    ______ ____
ROOT
ATOM      1  C   UNL     1       3.286   5.567  18.757  0.00  0.00    +0.000 A 
ATOM      2  C   UNL     1       4.633   5.529  18.674  0.00  0.00    +0.000 A 
ATOM      3  C   UNL     1       5.332   4.249  18.533  0.00  0.00    +0.000 A 
ATOM      4  C   UNL     1       4.619   3.106  18.438  0.00  0.00    +0.000 A 
ATOM      5  C   UNL     1       3.200   3.125  18.520  0.00  0.00    +0.000 A 
ATOM      6  N   UNL     1       2.311   2.157  18.493  0.00  0.00    +0.000 NA
ATOM      7  C   UNL     1       1.135   2.824  18.658  0.00  0.00    +0.000 A 
ATOM      8  N   UNL     1       1.226   4.148  18.772  0.00  0.00    +0.000 NA
ATOM      9  N   UNL     1       2.570   4.361  18.690  0.00  0.00    +0.000 N 
ENDROOT
BRANCH   1  13
ATOM     10  C   UNL     1       1.234   9.288  19.249  0.00  0.00    +0.000 A 
ATOM     11  C   UNL     1       1.762   8.935  18.002  0.00  0.00    +0.000 A 
ATOM     12  C   UNL     1       2.443   7.726  17.842  0.00  0.00    +0.000 A 
ATOM     13  C   UNL     1       2.599   6.856  18.928  0.00  0.00    +0.000 A 
ATOM     14  C   UNL     1       2.082   7.217  20.179  0.00  0.00    +0.000 A 
ATOM     15  C   UNL     1       1.401   8.426  20.339  0.00  0.00    +0.000 A 
BRANCH  10  17
ATOM     16  N   UNL     1      -0.051  11.524  19.532  0.00  0.00    +0.000 NA
ATOM     17  C   UNL     1       0.522  10.522  19.405  0.00  0.00    +0.000 C 
ENDBRANCH  10  17
ENDBRANCH   1  13
BRANCH   3  18
ATOM     18  N   UNL     1       6.704   4.279  18.535  0.00  0.00    +0.000 N 
ATOM     19  H   UNL     1       7.142   4.490  19.427  0.00  0.00    +0.000 HD
ATOM     20  H   UNL     1       7.130   4.767  17.751  0.00  0.00    +0.000 HD
ENDBRANCH   3  18
TORSDOF 3
ENDMDL
