MODEL 1
REMARK VINA RESULT:      -7.5      0.000      0.000
REMARK  Name = 
REMARK  10 active torsions:
REMARK  status: ('A' for Active; 'I' for Inactive)
REMARK    1  A    between atoms: C_1  and  C_2
REMARK    2  A    between atoms: C_5  and  C_6
REMARK    3  A    between atoms: C_6  and  O_7
REMARK    4  A    between atoms: O_7  and  P_8
REMARK    5  A    between atoms: P_8  and  O_10
REMARK    6  A    between atoms: P_8  and  O_11
REMARK    7  A    between atoms: C_12  and  C_13
REMARK    8  A    between atoms: N_14  and  N_15
REMARK    9  A    between atoms: N_18  and  O_19
REMARK   10  A    between atoms: C_20  and  O_21
REMARK                            x       y       z     vdW  Elec       q    Type
REMARK                         _______ _______ _______ _____ _____    ______ ____
ROOT
ATOM      1  C   UNL     1       1.705   2.508  22.039  0.00  0.00    +0.000 C 
ATOM      2  C   UNL     1       2.052   3.257  20.730  0.00  0.00    +0.000 A 
ATOM      3  N   UNL     1       2.291   1.971  19.508  0.00  0.00    +0.000 NA
ATOM      4  C   UNL     1       2.710   2.450  17.865  0.00  0.00    +0.000 A 
ATOM      5  C   UNL     1       2.997   4.105  17.328  0.00  0.00    +0.000 A 
ATOM      6  C   UNL     1       2.668   5.468  18.370  0.00  0.00    +0.000 A 
ATOM      7  C   UNL     1       2.207   5.159  20.054  0.00  0.00    +0.000 A 
ENDROOT
BRANCH   6   8
ATOM      8  C   UNL     1       3.179   6.855  18.129  0.00  0.00    +0.000 C 
ATOM      9  N   UNL     1       2.321   7.805  17.918  0.00  0.00    +0.000 NA
BRANCH   9  10
ATOM     10  N   UNL     1       2.816   9.095  17.998  0.00  0.00    +0.000 NA
ATOM     11  C   UNL     1       1.879  10.003  17.875  0.00  0.00    +0.000 C 
ATOM     12  N   UNL     1       2.200  11.325  18.000  0.00  0.00    +0.000 N 
ATOM     13  N   UNL     1       0.551   9.776  17.567  0.00  0.00    +0.000 N 
ATOM     14  H   UNL     1       3.200  11.441  18.120  0.00  0.00    +0.000 HD
ATOM     15  H   UNL     1       1.866  11.888  17.231  0.00  0.00    +0.000 HD
ATOM     16  H   UNL     1       0.273   8.811  17.739  0.00  0.00    +0.000 HD
BRANCH  13  17
ATOM     17  O   UNL     1      -0.373  10.699  18.080  0.00  0.00    +0.000 OA
ATOM     18  H   UNL     1      -0.067  11.554  17.731  0.00  0.00    +0.000 HD
ENDBRANCH  13  17
ENDBRANCH   9  10
ENDBRANCH   6   8
BRANCH   7  19
ATOM     19  O   UNL     1       1.705   6.408  20.545  0.00  0.00    +0.000 OA
ATOM     20  H   UNL     1       2.026   7.129  19.977  0.00  0.00    +0.000 HD
ENDBRANCH   7  19
BRANCH   5  21
ATOM     21  C   UNL     1       4.300   4.466  16.557  0.00  0.00    +0.000 C 
BRANCH  21  22
ATOM     22  O   UNL     1       5.598   4.547  17.107  0.00  0.00    +0.000 OA
BRANCH  22  23
ATOM     23  P   UNL     1       6.676   4.964  15.820  0.00  0.00    +0.000 P 
ATOM     24  O   UNL     1       7.869   4.474  16.629  0.00  0.00    +0.000 OA
BRANCH  23  25
ATOM     25  O   UNL     1       6.128   3.693  14.975  0.00  0.00    +0.000 OA
ATOM     26  H   UNL     1       5.438   3.255  15.509  0.00  0.00    +0.000 HD
ENDBRANCH  23  25
BRANCH  23  27
ATOM     27  O   UNL     1       7.754   5.382  14.533  0.00  0.00    +0.000 OA
ATOM     28  H   UNL     1       7.966   4.585  14.017  0.00  0.00    +0.000 HD
ENDBRANCH  23  27
ENDBRANCH  22  23
ENDBRANCH  21  22
ENDBRANCH   5  21
TORSDOF 9
ENDMDL
MODEL 2
REMARK VINA RESULT:      -7.3      3.285      5.543
REMARK  Name = 
REMARK  10 active torsions:
REMARK  status: ('A' for Active; 'I' for Inactive)
REMARK    1  A    between atoms: C_1  and  C_2
REMARK    2  A    between atoms: C_5  and  C_6
REMARK    3  A    between atoms: C_6  and  O_7
REMARK    4  A    between atoms: O_7  and  P_8
REMARK    5  A    between atoms: P_8  and  O_10
REMARK    6  A    between atoms: P_8  and  O_11
REMARK    7  A    between atoms: C_12  and  C_13
REMARK    8  A    between atoms: N_14  and  N_15
REMARK    9  A    between atoms: N_18  and  O_19
REMARK   10  A    between atoms: C_20  and  O_21
REMARK                            x       y       z     vdW  Elec       q    Type
REMARK                         _______ _______ _______ _____ _____    ______ ____
ROOT
ATOM      1  C   UNL     1       0.616  10.220  21.067  0.00  0.00    +0.000 C 
ATOM      2  C   UNL     1       1.219   9.019  20.298  0.00  0.00    +0.000 A 
ATOM      3  N   UNL     1       0.976   7.609  21.374  0.00  0.00    +0.000 NA
ATOM      4  C   UNL     1       1.548   6.035  20.826  0.00  0.00    +0.000 A 
ATOM      5  C   UNL     1       2.423   5.735  19.324  0.00  0.00    +0.000 A 
ATOM      6  C   UNL     1       2.611   6.984  18.117  0.00  0.00    +0.000 A 
ATOM      7  C   UNL     1       2.061   8.626  18.500  0.00  0.00    +0.000 A 
ENDROOT
BRANCH   6   8
ATOM      8  C   UNL     1       3.595   6.925  16.989  0.00  0.00    +0.000 C 
ATOM      9  N   UNL     1       4.830   7.239  17.226  0.00  0.00    +0.000 NA
BRANCH   9  10
ATOM     10  N   UNL     1       5.742   6.887  16.246  0.00  0.00    +0.000 NA
ATOM     11  C   UNL     1       6.601   5.986  16.656  0.00  0.00    +0.000 C 
ATOM     12  N   UNL     1       7.524   5.485  15.782  0.00  0.00    +0.000 N 
ATOM     13  N   UNL     1       6.726   5.497  17.943  0.00  0.00    +0.000 N 
ATOM     14  H   UNL     1       7.457   5.953  14.885  0.00  0.00    +0.000 HD
ATOM     15  H   UNL     1       8.469   5.529  16.136  0.00  0.00    +0.000 HD
ATOM     16  H   UNL     1       5.893   5.664  18.504  0.00  0.00    +0.000 HD
BRANCH  13  17
ATOM     17  O   UNL     1       7.199   4.182  18.065  0.00  0.00    +0.000 OA
ATOM     18  H   UNL     1       8.097   4.289  18.422  0.00  0.00    +0.000 HD
ENDBRANCH  13  17
ENDBRANCH   9  10
ENDBRANCH   6   8
BRANCH   7  19
ATOM     19  O   UNL     1       2.048   9.323  17.248  0.00  0.00    +0.000 OA
ATOM     20  H   UNL     1       1.189   9.760  17.132  0.00  0.00    +0.000 HD
ENDBRANCH   7  19
BRANCH   5  21
ATOM     21  C   UNL     1       3.771   4.957  19.342  0.00  0.00    +0.000 C 
BRANCH  21  22
ATOM     22  O   UNL     1       4.151   3.929  18.453  0.00  0.00    +0.000 OA
BRANCH  22  23
ATOM     23  P   UNL     1       2.885   2.750  18.461  0.00  0.00    +0.000 P 
ATOM     24  O   UNL     1       2.465   3.157  17.056  0.00  0.00    +0.000 OA
BRANCH  23  25
ATOM     25  O   UNL     1       3.998   1.582  18.298  0.00  0.00    +0.000 OA
ATOM     26  H   UNL     1       3.832   0.914  18.991  0.00  0.00    +0.000 HD
ENDBRANCH  23  25
BRANCH  23  27
ATOM     27  O   UNL     1       1.618   1.572  18.470  0.00  0.00    +0.000 OA
ATOM     28  H   UNL     1       1.121   1.624  17.636  0.00  0.00    +0.000 HD
ENDBRANCH  23  27
ENDBRANCH  22  23
ENDBRANCH  21  22
ENDBRANCH   5  21
TORSDOF 9
ENDMDL
MODEL 3
REMARK VINA RESULT:      -7.2      1.195      1.306
REMARK  Name = 
REMARK  10 active torsions:
REMARK  status: ('A' for Active; 'I' for Inactive)
REMARK    1  A    between atoms: C_1  and  C_2
REMARK    2  A    between atoms: C_5  and  C_6
REMARK    3  A    between atoms: C_6  and  O_7
REMARK    4  A    between atoms: O_7  and  P_8
REMARK    5  A    between atoms: P_8  and  O_10
REMARK    6  A    between atoms: P_8  and  O_11
REMARK    7  A    between atoms: C_12  and  C_13
REMARK    8  A    between atoms: N_14  and  N_15
REMARK    9  A    between atoms: N_18  and  O_19
REMARK   10  A    between atoms: C_20  and  O_21
REMARK                            x       y       z     vdW  Elec       q    Type
REMARK                         _______ _______ _______ _____ _____    ______ ____
ROOT
ATOM      1  C   UNL     1       1.795   2.644  21.965  0.00  0.00    +0.000 C 
ATOM      2  C   UNL     1       2.131   3.532  20.743  0.00  0.00    +0.000 A 
ATOM      3  N   UNL     1       2.756   2.402  19.503  0.00  0.00    +0.000 NA
ATOM      4  C   UNL     1       3.251   3.063  17.947  0.00  0.00    +0.000 A 
ATOM      5  C   UNL     1       3.262   4.775  17.524  0.00  0.00    +0.000 A 
ATOM      6  C   UNL     1       2.555   5.976  18.577  0.00  0.00    +0.000 A 
ATOM      7  C   UNL     1       1.979   5.470  20.177  0.00  0.00    +0.000 A 
ENDROOT
BRANCH   6   8
ATOM      8  C   UNL     1       2.804   7.448  18.463  0.00  0.00    +0.000 C 
ATOM      9  N   UNL     1       1.929   8.180  17.845  0.00  0.00    +0.000 NA
BRANCH   9  10
ATOM     10  N   UNL     1       2.050   9.547  18.024  0.00  0.00    +0.000 NA
ATOM     11  C   UNL     1       1.290   9.998  18.991  0.00  0.00    +0.000 C 
ATOM     12  N   UNL     1       1.348  11.319  19.336  0.00  0.00    +0.000 N 
ATOM     13  N   UNL     1       0.353   9.275  19.705  0.00  0.00    +0.000 N 
ATOM     14  H   UNL     1       1.971  11.824  18.714  0.00  0.00    +0.000 HD
ATOM     15  H   UNL     1       0.440  11.761  19.366  0.00  0.00    +0.000 HD
ATOM     16  H   UNL     1       0.503   8.270  19.634  0.00  0.00    +0.000 HD
BRANCH  13  17
ATOM     17  O   UNL     1       0.121   9.690  21.025  0.00  0.00    +0.000 OA
ATOM     18  H   UNL     1       0.917  10.201  21.253  0.00  0.00    +0.000 HD
ENDBRANCH  13  17
ENDBRANCH   9  10
ENDBRANCH   6   8
BRANCH   7  19
ATOM     19  O   UNL     1       1.187   6.563  20.657  0.00  0.00    +0.000 OA
ATOM     20  H   UNL     1       1.093   7.226  19.953  0.00  0.00    +0.000 HD
ENDBRANCH   7  19
BRANCH   5  21
ATOM     21  C   UNL     1       4.545   5.431  16.935  0.00  0.00    +0.000 C 
BRANCH  21  22
ATOM     22  O   UNL     1       5.869   5.214  17.378  0.00  0.00    +0.000 OA
BRANCH  22  23
ATOM     23  P   UNL     1       6.891   5.262  15.983  0.00  0.00    +0.000 P 
ATOM     24  O   UNL     1       7.443   6.616  16.406  0.00  0.00    +0.000 OA
BRANCH  23  25
ATOM     25  O   UNL     1       7.838   4.135  16.662  0.00  0.00    +0.000 OA
ATOM     26  H   UNL     1       7.997   3.439  15.996  0.00  0.00    +0.000 HD
ENDBRANCH  23  25
BRANCH  23  27
ATOM     27  O   UNL     1       7.912   5.310  14.587  0.00  0.00    +0.000 OA
ATOM     28  H   UNL     1       8.748   5.752  14.813  0.00  0.00    +0.000 HD
ENDBRANCH  23  27
ENDBRANCH  22  23
ENDBRANCH  21  22
ENDBRANCH   5  21
TORSDOF 9
ENDMDL
MODEL 4
REMARK VINA RESULT:      -7.2      1.194      1.673
REMARK  Name = 
REMARK  10 active torsions:
REMARK  status: ('A' for Active; 'I' for Inactive)
REMARK    1  A    between atoms: C_1  and  C_2
REMARK    2  A    between atoms: C_5  and  C_6
REMARK    3  A    between atoms: C_6  and  O_7
REMARK    4  A    between atoms: O_7  and  P_8
REMARK    5  A    between atoms: P_8  and  O_10
REMARK    6  A    between atoms: P_8  and  O_11
REMARK    7  A    between atoms: C_12  and  C_13
REMARK    8  A    between atoms: N_14  and  N_15
REMARK    9  A    between atoms: N_18  and  O_19
REMARK   10  A    between atoms: C_20  and  O_21
REMARK                            x       y       z     vdW  Elec       q    Type
REMARK                         _______ _______ _______ _____ _____    ______ ____
ROOT
ATOM      1  C   UNL     1       2.251   2.528  21.808  0.00  0.00    +0.000 C 
ATOM      2  C   UNL     1       2.559   3.373  20.548  0.00  0.00    +0.000 A 
ATOM      3  N   UNL     1       3.024   2.183  19.293  0.00  0.00    +0.000 NA
ATOM      4  C   UNL     1       3.453   2.785  17.694  0.00  0.00    +0.000 A 
ATOM      5  C   UNL     1       3.545   4.486  17.235  0.00  0.00    +0.000 A 
ATOM      6  C   UNL     1       2.989   5.747  18.308  0.00  0.00    +0.000 A 
ATOM      7  C   UNL     1       2.492   5.307  19.953  0.00  0.00    +0.000 A 
ENDROOT
BRANCH   6   8
ATOM      8  C   UNL     1       3.323   7.198  18.147  0.00  0.00    +0.000 C 
ATOM      9  N   UNL     1       2.357   8.037  17.931  0.00  0.00    +0.000 NA
BRANCH   9  10
ATOM     10  N   UNL     1       2.674   9.376  18.086  0.00  0.00    +0.000 NA
ATOM     11  C   UNL     1       1.634  10.159  17.942  0.00  0.00    +0.000 C 
ATOM     12  N   UNL     1       1.771  11.506  18.132  0.00  0.00    +0.000 N 
ATOM     13  N   UNL     1       0.365   9.777  17.550  0.00  0.00    +0.000 N 
ATOM     14  H   UNL     1       2.740  11.744  18.313  0.00  0.00    +0.000 HD
ATOM     15  H   UNL     1       1.407  12.053  17.365  0.00  0.00    +0.000 HD
ATOM     16  H   UNL     1       0.207   8.778  17.670  0.00  0.00    +0.000 HD
BRANCH  13  17
ATOM     17  O   UNL     1      -0.697  10.550  18.041  0.00  0.00    +0.000 OA
ATOM     18  H   UNL     1      -0.365  10.891  18.889  0.00  0.00    +0.000 HD
ENDBRANCH  13  17
ENDBRANCH   9  10
ENDBRANCH   6   8
BRANCH   7  19
ATOM     19  O   UNL     1       1.807   6.457  20.463  0.00  0.00    +0.000 OA
ATOM     20  H   UNL     1       2.333   7.252  20.278  0.00  0.00    +0.000 HD
ENDBRANCH   7  19
BRANCH   5  21
ATOM     21  C   UNL     1       4.824   5.047  16.548  0.00  0.00    +0.000 C 
BRANCH  21  22
ATOM     22  O   UNL     1       6.139   4.562  16.716  0.00  0.00    +0.000 OA
BRANCH  22  23
ATOM     23  P   UNL     1       6.650   5.005  18.309  0.00  0.00    +0.000 P 
ATOM     24  O   UNL     1       7.998   4.334  18.088  0.00  0.00    +0.000 OA
BRANCH  23  25
ATOM     25  O   UNL     1       6.803   6.541  17.812  0.00  0.00    +0.000 OA
ATOM     26  H   UNL     1       7.559   6.581  17.196  0.00  0.00    +0.000 HD
ENDBRANCH  23  25
BRANCH  23  27
ATOM     27  O   UNL     1       7.160   5.448  19.902  0.00  0.00    +0.000 OA
ATOM     28  H   UNL     1       6.702   4.891  20.555  0.00  0.00    +0.000 HD
ENDBRANCH  23  27
ENDBRANCH  22  23
ENDBRANCH  21  22
ENDBRANCH   5  21
TORSDOF 9
ENDMDL
MODEL 5
REMARK VINA RESULT:      -7.1      1.695      2.132
REMARK  Name = 
REMARK  10 active torsions:
REMARK  status: ('A' for Active; 'I' for Inactive)
REMARK    1  A    between atoms: C_1  and  C_2
REMARK    2  A    between atoms: C_5  and  C_6
REMARK    3  A    between atoms: C_6  and  O_7
REMARK    4  A    between atoms: O_7  and  P_8
REMARK    5  A    between atoms: P_8  and  O_10
REMARK    6  A    between atoms: P_8  and  O_11
REMARK    7  A    between atoms: C_12  and  C_13
REMARK    8  A    between atoms: N_14  and  N_15
REMARK    9  A    between atoms: N_18  and  O_19
REMARK   10  A    between atoms: C_20  and  O_21
REMARK                            x       y       z     vdW  Elec       q    Type
REMARK                         _______ _______ _______ _____ _____    ______ ____
ROOT
ATOM      1  C   UNL     1       2.412   2.910  21.567  0.00  0.00    +0.000 C 
ATOM      2  C   UNL     1       2.739   3.831  20.367  0.00  0.00    +0.000 A 
ATOM      3  N   UNL     1       3.535   2.766  19.167  0.00  0.00    +0.000 NA
ATOM      4  C   UNL     1       4.061   3.476  17.643  0.00  0.00    +0.000 A 
ATOM      5  C   UNL     1       3.945   5.184  17.220  0.00  0.00    +0.000 A 
ATOM      6  C   UNL     1       3.071   6.312  18.228  0.00  0.00    +0.000 A 
ATOM      7  C   UNL     1       2.449   5.750  19.791  0.00  0.00    +0.000 A 
ENDROOT
BRANCH   6   8
ATOM      8  C   UNL     1       3.194   7.801  18.128  0.00  0.00    +0.000 C 
ATOM      9  N   UNL     1       2.285   8.456  17.475  0.00  0.00    +0.000 NA
BRANCH   9  10
ATOM     10  N   UNL     1       2.278   9.828  17.662  0.00  0.00    +0.000 NA
ATOM     11  C   UNL     1       1.519  10.196  18.664  0.00  0.00    +0.000 C 
ATOM     12  N   UNL     1       1.460  11.515  19.018  0.00  0.00    +0.000 N 
ATOM     13  N   UNL     1       0.689   9.380  19.409  0.00  0.00    +0.000 N 
ATOM     14  H   UNL     1       2.003  12.082  18.376  0.00  0.00    +0.000 HD
ATOM     15  H   UNL     1       0.515  11.864  19.090  0.00  0.00    +0.000 HD
ATOM     16  H   UNL     1       0.934   8.396  19.322  0.00  0.00    +0.000 HD
BRANCH  13  17
ATOM     17  O   UNL     1       0.473   9.763  20.742  0.00  0.00    +0.000 OA
ATOM     18  H   UNL     1       0.082  10.650  20.669  0.00  0.00    +0.000 HD
ENDBRANCH  13  17
ENDBRANCH   9  10
ENDBRANCH   6   8
BRANCH   7  19
ATOM     19  O   UNL     1       1.535   6.766  20.222  0.00  0.00    +0.000 OA
ATOM     20  H   UNL     1       1.994   7.375  20.824  0.00  0.00    +0.000 HD
ENDBRANCH   7  19
BRANCH   5  21
ATOM     21  C   UNL     1       5.197   5.954  16.709  0.00  0.00    +0.000 C 
BRANCH  21  22
ATOM     22  O   UNL     1       6.530   5.490  16.741  0.00  0.00    +0.000 OA
BRANCH  22  23
ATOM     23  P   UNL     1       7.057   5.559  18.387  0.00  0.00    +0.000 P 
ATOM     24  O   UNL     1       8.004   4.389  18.157  0.00  0.00    +0.000 OA
BRANCH  23  25
ATOM     25  O   UNL     1       7.888   6.909  18.044  0.00  0.00    +0.000 OA
ATOM     26  H   UNL     1       7.513   7.633  18.579  0.00  0.00    +0.000 HD
ENDBRANCH  23  25
BRANCH  23  27
ATOM     27  O   UNL     1       7.584   5.628  20.033  0.00  0.00    +0.000 OA
ATOM     28  H   UNL     1       8.094   6.443  20.177  0.00  0.00    +0.000 HD
ENDBRANCH  23  27
ENDBRANCH  22  23
ENDBRANCH  21  22
ENDBRANCH   5  21
TORSDOF 9
ENDMDL
MODEL 6
REMARK VINA RESULT:      -7.1      1.347      1.655
REMARK  Name = 
REMARK  10 active torsions:
REMARK  status: ('A' for Active; 'I' for Inactive)
REMARK    1  A    between atoms: C_1  and  C_2
REMARK    2  A    between atoms: C_5  and  C_6
REMARK    3  A    between atoms: C_6  and  O_7
REMARK    4  A    between atoms: O_7  and  P_8
REMARK    5  A    between atoms: P_8  and  O_10
REMARK    6  A    between atoms: P_8  and  O_11
REMARK    7  A    between atoms: C_12  and  C_13
REMARK    8  A    between atoms: N_14  and  N_15
REMARK    9  A    between atoms: N_18  and  O_19
REMARK   10  A    between atoms: C_20  and  O_21
REMARK                            x       y       z     vdW  Elec       q    Type
REMARK                         _______ _______ _______ _____ _____    ______ ____
ROOT
ATOM      1  C   UNL     1       2.103   2.829  21.802  0.00  0.00    +0.000 C 
ATOM      2  C   UNL     1       2.347   3.756  20.587  0.00  0.00    +0.000 A 
ATOM      3  N   UNL     1       2.946   2.676  19.291  0.00  0.00    +0.000 NA
ATOM      4  C   UNL     1       3.340   3.389  17.729  0.00  0.00    +0.000 A 
ATOM      5  C   UNL     1       3.273   5.110  17.348  0.00  0.00    +0.000 A 
ATOM      6  C   UNL     1       2.580   6.261  18.464  0.00  0.00    +0.000 A 
ATOM      7  C   UNL     1       2.102   5.700  20.077  0.00  0.00    +0.000 A 
ENDROOT
BRANCH   6   8
ATOM      8  C   UNL     1       2.774   7.744  18.374  0.00  0.00    +0.000 C 
ATOM      9  N   UNL     1       1.791   8.473  17.946  0.00  0.00    +0.000 NA
BRANCH   9  10
ATOM     10  N   UNL     1       1.911   9.836  18.162  0.00  0.00    +0.000 NA
ATOM     11  C   UNL     1       1.143  10.262  19.133  0.00  0.00    +0.000 C 
ATOM     12  N   UNL     1       1.198  11.574  19.512  0.00  0.00    +0.000 N 
ATOM     13  N   UNL     1       0.199   9.522  19.820  0.00  0.00    +0.000 N 
ATOM     14  H   UNL     1       1.826  12.094  18.909  0.00  0.00    +0.000 HD
ATOM     15  H   UNL     1       0.290  12.015  19.546  0.00  0.00    +0.000 HD
ATOM     16  H   UNL     1       0.349   8.519  19.724  0.00  0.00    +0.000 HD
BRANCH  13  17
ATOM     17  O   UNL     1      -0.044   9.902  21.148  0.00  0.00    +0.000 OA
ATOM     18  H   UNL     1      -0.145  10.868  21.099  0.00  0.00    +0.000 HD
ENDBRANCH  13  17
ENDBRANCH   9  10
ENDBRANCH   6   8
BRANCH   7  19
ATOM     19  O   UNL     1       1.300   6.754  20.623  0.00  0.00    +0.000 OA
ATOM     20  H   UNL     1       0.422   6.405  20.851  0.00  0.00    +0.000 HD
ENDBRANCH   7  19
BRANCH   5  21
ATOM     21  C   UNL     1       4.503   5.823  16.713  0.00  0.00    +0.000 C 
BRANCH  21  22
ATOM     22  O   UNL     1       5.330   5.304  15.693  0.00  0.00    +0.000 OA
BRANCH  22  23
ATOM     23  P   UNL     1       6.768   4.712  16.451  0.00  0.00    +0.000 P 
ATOM     24  O   UNL     1       7.626   5.312  15.346  0.00  0.00    +0.000 OA
BRANCH  23  25
ATOM     25  O   UNL     1       6.612   5.852  17.594  0.00  0.00    +0.000 OA
ATOM     26  H   UNL     1       5.733   5.742  18.005  0.00  0.00    +0.000 HD
ENDBRANCH  23  25
BRANCH  23  27
ATOM     27  O   UNL     1       8.206   4.119  17.209  0.00  0.00    +0.000 OA
ATOM     28  H   UNL     1       8.182   4.329  18.158  0.00  0.00    +0.000 HD
ENDBRANCH  23  27
ENDBRANCH  22  23
ENDBRANCH  21  22
ENDBRANCH   5  21
TORSDOF 9
ENDMDL
MODEL 7
REMARK VINA RESULT:      -7.0      3.416      6.184
REMARK  Name = 
REMARK  10 active torsions:
REMARK  status: ('A' for Active; 'I' for Inactive)
REMARK    1  A    between atoms: C_1  and  C_2
REMARK    2  A    between atoms: C_5  and  C_6
REMARK    3  A    between atoms: C_6  and  O_7
REMARK    4  A    between atoms: O_7  and  P_8
REMARK    5  A    between atoms: P_8  and  O_10
REMARK    6  A    between atoms: P_8  and  O_11
REMARK    7  A    between atoms: C_12  and  C_13
REMARK    8  A    between atoms: N_14  and  N_15
REMARK    9  A    between atoms: N_18  and  O_19
REMARK   10  A    between atoms: C_20  and  O_21
REMARK                            x       y       z     vdW  Elec       q    Type
REMARK                         _______ _______ _______ _____ _____    ______ ____
ROOT
ATOM      1  C   UNL     1       1.055   1.678  19.040  0.00  0.00    +0.000 C 
ATOM      2  C   UNL     1       1.790   3.039  19.004  0.00  0.00    +0.000 A 
ATOM      3  N   UNL     1       0.923   4.068  20.186  0.00  0.00    +0.000 NA
ATOM      4  C   UNL     1       1.485   5.721  20.420  0.00  0.00    +0.000 A 
ATOM      5  C   UNL     1       2.794   6.491  19.522  0.00  0.00    +0.000 A 
ATOM      6  C   UNL     1       3.814   5.574  18.441  0.00  0.00    +0.000 A 
ATOM      7  C   UNL     1       3.403   3.880  18.115  0.00  0.00    +0.000 A 
ENDROOT
BRANCH   6   8
ATOM      8  C   UNL     1       4.714   6.185  17.412  0.00  0.00    +0.000 C 
ATOM      9  N   UNL     1       5.993   5.990  17.511  0.00  0.00    +0.000 NA
BRANCH   9  10
ATOM     10  N   UNL     1       6.742   6.315  16.392  0.00  0.00    +0.000 NA
ATOM     11  C   UNL     1       6.938   5.288  15.602  0.00  0.00    +0.000 C 
ATOM     12  N   UNL     1       7.603   5.463  14.421  0.00  0.00    +0.000 N 
ATOM     13  N   UNL     1       6.583   3.977  15.855  0.00  0.00    +0.000 N 
ATOM     14  H   UNL     1       7.932   6.418  14.334  0.00  0.00    +0.000 HD
ATOM     15  H   UNL     1       8.364   4.811  14.295  0.00  0.00    +0.000 HD
ATOM     16  H   UNL     1       5.874   3.901  16.582  0.00  0.00    +0.000 HD
BRANCH  13  17
ATOM     17  O   UNL     1       6.289   3.185  14.735  0.00  0.00    +0.000 OA
ATOM     18  H   UNL     1       5.541   3.643  14.316  0.00  0.00    +0.000 HD
ENDBRANCH  13  17
ENDBRANCH   9  10
ENDBRANCH   6   8
BRANCH   7  19
ATOM     19  O   UNL     1       4.561   3.325  17.478  0.00  0.00    +0.000 OA
ATOM     20  H   UNL     1       5.360   3.731  17.854  0.00  0.00    +0.000 HD
ENDBRANCH   7  19
BRANCH   5  21
ATOM     21  C   UNL     1       2.568   7.866  18.829  0.00  0.00    +0.000 C 
BRANCH  21  22
ATOM     22  O   UNL     1       1.693   8.121  17.751  0.00  0.00    +0.000 OA
BRANCH  22  23
ATOM     23  P   UNL     1       0.928   9.642  18.061  0.00  0.00    +0.000 P 
ATOM     24  O   UNL     1       1.215   9.509  19.550  0.00  0.00    +0.000 OA
BRANCH  23  25
ATOM     25  O   UNL     1       2.204  10.396  17.402  0.00  0.00    +0.000 OA
ATOM     26  H   UNL     1       2.025  10.506  16.449  0.00  0.00    +0.000 HD
ENDBRANCH  23  25
BRANCH  23  27
ATOM     27  O   UNL     1       0.163  11.162  18.370  0.00  0.00    +0.000 OA
ATOM     28  H   UNL     1      -0.357  11.428  17.592  0.00  0.00    +0.000 HD
ENDBRANCH  23  27
ENDBRANCH  22  23
ENDBRANCH  21  22
ENDBRANCH   5  21
TORSDOF 9
ENDMDL
MODEL 8
REMARK VINA RESULT:      -7.0      1.347      1.739
REMARK  Name = 
REMARK  10 active torsions:
REMARK  status: ('A' for Active; 'I' for Inactive)
REMARK    1  A    between atoms: C_1  and  C_2
REMARK    2  A    between atoms: C_5  and  C_6
REMARK    3  A    between atoms: C_6  and  O_7
REMARK    4  A    between atoms: O_7  and  P_8
REMARK    5  A    between atoms: P_8  and  O_10
REMARK    6  A    between atoms: P_8  and  O_11
REMARK    7  A    between atoms: C_12  and  C_13
REMARK    8  A    between atoms: N_14  and  N_15
REMARK    9  A    between atoms: N_18  and  O_19
REMARK   10  A    between atoms: C_20  and  O_21
REMARK                            x       y       z     vdW  Elec       q    Type
REMARK                         _______ _______ _______ _____ _____    ______ ____
ROOT
ATOM      1  C   UNL     1       2.166   2.970  21.856  0.00  0.00    +0.000 C 
ATOM      2  C   UNL     1       2.420   3.905  20.649  0.00  0.00    +0.000 A 
ATOM      3  N   UNL     1       3.119   2.851  19.382  0.00  0.00    +0.000 NA
ATOM      4  C   UNL     1       3.546   3.578  17.835  0.00  0.00    +0.000 A 
ATOM      5  C   UNL     1       3.421   5.294  17.446  0.00  0.00    +0.000 A 
ATOM      6  C   UNL     1       2.632   6.415  18.528  0.00  0.00    +0.000 A 
ATOM      7  C   UNL     1       2.113   5.836  20.122  0.00  0.00    +0.000 A 
ENDROOT
BRANCH   6   8
ATOM      8  C   UNL     1       2.765   7.904  18.442  0.00  0.00    +0.000 C 
ATOM      9  N   UNL     1       1.755   8.593  18.009  0.00  0.00    +0.000 NA
BRANCH   9  10
ATOM     10  N   UNL     1       1.818   9.959  18.227  0.00  0.00    +0.000 NA
ATOM     11  C   UNL     1       0.647  10.539  18.130  0.00  0.00    +0.000 C 
ATOM     12  N   UNL     1       0.533  11.877  18.385  0.00  0.00    +0.000 N 
ATOM     13  N   UNL     1      -0.534   9.944  17.730  0.00  0.00    +0.000 N 
ATOM     14  H   UNL     1       1.443  12.285  18.569  0.00  0.00    +0.000 HD
ATOM     15  H   UNL     1       0.060  12.381  17.648  0.00  0.00    +0.000 HD
ATOM     16  H   UNL     1      -0.500   8.928  17.802  0.00  0.00    +0.000 HD
BRANCH  13  17
ATOM     17  O   UNL     1      -1.714  10.480  18.267  0.00  0.00    +0.000 OA
ATOM     18  H   UNL     1      -1.421  10.913  19.086  0.00  0.00    +0.000 HD
ENDBRANCH  13  17
ENDBRANCH   9  10
ENDBRANCH   6   8
BRANCH   7  19
ATOM     19  O   UNL     1       1.243   6.855  20.631  0.00  0.00    +0.000 OA
ATOM     20  H   UNL     1       1.777   7.598  20.958  0.00  0.00    +0.000 HD
ENDBRANCH   7  19
BRANCH   5  21
ATOM     21  C   UNL     1       4.643   6.058  16.860  0.00  0.00    +0.000 C 
BRANCH  21  22
ATOM     22  O   UNL     1       5.769   6.507  17.584  0.00  0.00    +0.000 OA
BRANCH  22  23
ATOM     23  P   UNL     1       6.991   5.291  17.438  0.00  0.00    +0.000 P 
ATOM     24  O   UNL     1       7.486   5.912  16.140  0.00  0.00    +0.000 OA
BRANCH  23  25
ATOM     25  O   UNL     1       7.814   6.001  18.642  0.00  0.00    +0.000 OA
ATOM     26  H   UNL     1       8.136   6.862  18.314  0.00  0.00    +0.000 HD
ENDBRANCH  23  25
BRANCH  23  27
ATOM     27  O   UNL     1       8.213   4.075  17.292  0.00  0.00    +0.000 OA
ATOM     28  H   UNL     1       9.008   4.461  16.888  0.00  0.00    +0.000 HD
ENDBRANCH  23  27
ENDBRANCH  22  23
ENDBRANCH  21  22
ENDBRANCH   5  21
TORSDOF 9
ENDMDL
MODEL 9
REMARK VINA RESULT:      -7.0      1.019      1.257
REMARK  Name = 
REMARK  10 active torsions:
REMARK  status: ('A' for Active; 'I' for Inactive)
REMARK    1  A    between atoms: C_1  and  C_2
REMARK    2  A    between atoms: C_5  and  C_6
REMARK    3  A    between atoms: C_6  and  O_7
REMARK    4  A    between atoms: O_7  and  P_8
REMARK    5  A    between atoms: P_8  and  O_10
REMARK    6  A    between atoms: P_8  and  O_11
REMARK    7  A    between atoms: C_12  and  C_13
REMARK    8  A    between atoms: N_14  and  N_15
REMARK    9  A    between atoms: N_18  and  O_19
REMARK   10  A    between atoms: C_20  and  O_21
REMARK                            x       y       z     vdW  Elec       q    Type
REMARK                         _______ _______ _______ _____ _____    ______ ____
ROOT
ATOM      1  C   UNL     1       2.129   2.597  21.845  0.00  0.00    +0.000 C 
ATOM      2  C   UNL     1       2.426   3.471  20.602  0.00  0.00    +0.000 A 
ATOM      3  N   UNL     1       2.958   2.320  19.339  0.00  0.00    +0.000 NA
ATOM      4  C   UNL     1       3.391   2.961  17.756  0.00  0.00    +0.000 A 
ATOM      5  C   UNL     1       3.425   4.670  17.324  0.00  0.00    +0.000 A 
ATOM      6  C   UNL     1       2.803   5.893  18.404  0.00  0.00    +0.000 A 
ATOM      7  C   UNL     1       2.296   5.410  20.034  0.00  0.00    +0.000 A 
ENDROOT
BRANCH   6   8
ATOM      8  C   UNL     1       3.084   7.358  18.270  0.00  0.00    +0.000 C 
ATOM      9  N   UNL     1       2.116   8.146  17.917  0.00  0.00    +0.000 NA
BRANCH   9  10
ATOM     10  N   UNL     1       2.344   9.500  18.095  0.00  0.00    +0.000 NA
ATOM     11  C   UNL     1       1.239  10.204  18.068  0.00  0.00    +0.000 C 
ATOM     12  N   UNL     1       1.290  11.551  18.296  0.00  0.00    +0.000 N 
ATOM     13  N   UNL     1      -0.027   9.736  17.770  0.00  0.00    +0.000 N 
ATOM     14  H   UNL     1       2.251  11.858  18.404  0.00  0.00    +0.000 HD
ATOM     15  H   UNL     1       0.821  12.091  17.584  0.00  0.00    +0.000 HD
ATOM     16  H   UNL     1      -0.099   8.725  17.866  0.00  0.00    +0.000 HD
BRANCH  13  17
ATOM     17  O   UNL     1      -1.098  10.409  18.377  0.00  0.00    +0.000 OA
ATOM     18  H   UNL     1      -1.133  11.261  17.911  0.00  0.00    +0.000 HD
ENDBRANCH  13  17
ENDBRANCH   9  10
ENDBRANCH   6   8
BRANCH   7  19
ATOM     19  O   UNL     1       1.558   6.526  20.547  0.00  0.00    +0.000 OA
ATOM     20  H   UNL     1       1.940   6.800  21.398  0.00  0.00    +0.000 HD
ENDBRANCH   7  19
BRANCH   5  21
ATOM     21  C   UNL     1       4.693   5.289  16.668  0.00  0.00    +0.000 C 
BRANCH  21  22
ATOM     22  O   UNL     1       5.706   6.013  17.334  0.00  0.00    +0.000 OA
BRANCH  22  23
ATOM     23  P   UNL     1       7.064   4.955  17.508  0.00  0.00    +0.000 P 
ATOM     24  O   UNL     1       6.494   4.399  18.805  0.00  0.00    +0.000 OA
BRANCH  23  25
ATOM     25  O   UNL     1       6.477   4.037  16.306  0.00  0.00    +0.000 OA
ATOM     26  H   UNL     1       5.864   4.588  15.783  0.00  0.00    +0.000 HD
ENDBRANCH  23  25
BRANCH  23  27
ATOM     27  O   UNL     1       8.422   3.898  17.681  0.00  0.00    +0.000 OA
ATOM     28  H   UNL     1       8.663   3.831  18.621  0.00  0.00    +0.000 HD
ENDBRANCH  23  27
ENDBRANCH  22  23
ENDBRANCH  21  22
ENDBRANCH   5  21
TORSDOF 9
ENDMDL
