MODEL 1
REMARK VINA RESULT:      -7.2      0.000      0.000
REMARK  Name = 
REMARK  4 active torsions:
REMARK  status: ('A' for Active; 'I' for Inactive)
REMARK    1  A    between atoms: C_2  and  C_15
REMARK    2  A    between atoms: N_3  and  C_4
REMARK    3  A    between atoms: C_6  and  N_7
REMARK    4  A    between atoms: C_11  and  N_12
REMARK                            x       y       z     vdW  Elec       q    Type
REMARK                         _______ _______ _______ _____ _____    ______ ____
ROOT
ATOM      1  C   UNL     1       6.075   4.297  17.881  0.00  0.00    +0.000 A 
ATOM      2  S   UNL     1       5.835   3.598  16.347  0.00  0.00    +0.000 S 
ATOM      3  C   UNL     1       6.787   4.796  15.604  0.00  0.00    +0.000 A 
ATOM      4  C   UNL     1       7.398   5.631  16.515  0.00  0.00    +0.000 A 
ATOM      5  C   UNL     1       7.007   5.319  17.864  0.00  0.00    +0.000 A 
ENDROOT
BRANCH   1   8
ATOM      6  O   UNL     1       3.534   5.137  18.241  0.00  0.00    +0.000 OA
ATOM      7  C   UNL     1       3.990   4.282  19.002  0.00  0.00    +0.000 C 
ATOM      8  N   UNL     1       5.275   3.767  18.877  0.00  0.00    +0.000 N 
ATOM      9  H   UNL     1       5.397   2.791  19.118  0.00  0.00    +0.000 HD
BRANCH   7  10
ATOM     10  C   UNL     1       3.165   3.694  20.041  0.00  0.00    +0.000 A 
ATOM     11  C   UNL     1       1.868   4.137  20.446  0.00  0.00    +0.000 A 
ATOM     12  C   UNL     1       1.490   3.340  21.500  0.00  0.00    +0.000 A 
ATOM     13  O   UNL     1       2.450   2.419  21.761  0.00  0.00    +0.000 OA
ATOM     14  C   UNL     1       3.464   2.641  20.882  0.00  0.00    +0.000 A 
ENDBRANCH   7  10
ENDBRANCH   1   8
BRANCH   3  15
ATOM     15  N   UNL     1       6.916   4.857  14.170  0.00  0.00    +0.000 N 
ATOM     16  O   UNL     1       6.142   4.148  13.521  0.00  0.00    +0.000 OA
ATOM     17  O   UNL     1       7.787   5.597  13.695  0.00  0.00    +0.000 OA
ENDBRANCH   3  15
BRANCH   5  18
ATOM     18  N   UNL     1       7.562   5.965  19.037  0.00  0.00    +0.000 N 
ATOM     19  O   UNL     1       7.425   5.401  20.130  0.00  0.00    +0.000 OA
ATOM     20  O   UNL     1       8.220   6.993  18.835  0.00  0.00    +0.000 OA
ENDBRANCH   5  18
TORSDOF 4
ENDMDL
MODEL 2
REMARK VINA RESULT:      -7.2      1.029      1.428
REMARK  Name = 
REMARK  4 active torsions:
REMARK  status: ('A' for Active; 'I' for Inactive)
REMARK    1  A    between atoms: C_2  and  C_15
REMARK    2  A    between atoms: N_3  and  C_4
REMARK    3  A    between atoms: C_6  and  N_7
REMARK    4  A    between atoms: C_11  and  N_12
REMARK                            x       y       z     vdW  Elec       q    Type
REMARK                         _______ _______ _______ _____ _____    ______ ____
ROOT
ATOM      1  C   UNL     1       5.454   4.915  17.522  0.00  0.00    +0.000 A 
ATOM      2  S   UNL     1       5.206   4.250  15.975  0.00  0.00    +0.000 S 
ATOM      3  C   UNL     1       6.672   4.900  15.412  0.00  0.00    +0.000 A 
ATOM      4  C   UNL     1       7.412   5.490  16.414  0.00  0.00    +0.000 A 
ATOM      5  C   UNL     1       6.711   5.472  17.671  0.00  0.00    +0.000 A 
ENDROOT
BRANCH   1   8
ATOM      6  O   UNL     1       5.099   2.813  19.179  0.00  0.00    +0.000 OA
ATOM      7  C   UNL     1       4.244   3.700  19.154  0.00  0.00    +0.000 C 
ATOM      8  N   UNL     1       4.354   4.833  18.357  0.00  0.00    +0.000 N 
ATOM      9  H   UNL     1       3.980   5.693  18.739  0.00  0.00    +0.000 HD
BRANCH   7  10
ATOM     10  C   UNL     1       3.093   3.649  20.036  0.00  0.00    +0.000 A 
ATOM     11  C   UNL     1       2.856   2.687  21.067  0.00  0.00    +0.000 A 
ATOM     12  C   UNL     1       1.622   2.975  21.599  0.00  0.00    +0.000 A 
ATOM     13  O   UNL     1       1.088   4.061  20.988  0.00  0.00    +0.000 OA
ATOM     14  C   UNL     1       1.976   4.460  20.039  0.00  0.00    +0.000 A 
ENDBRANCH   7  10
ENDBRANCH   1   8
BRANCH   3  15
ATOM     15  N   UNL     1       7.050   4.789  14.025  0.00  0.00    +0.000 N 
ATOM     16  O   UNL     1       7.958   5.534  13.645  0.00  0.00    +0.000 OA
ATOM     17  O   UNL     1       6.443   3.972  13.319  0.00  0.00    +0.000 OA
ENDBRANCH   3  15
BRANCH   5  18
ATOM     18  N   UNL     1       7.280   5.933  18.921  0.00  0.00    +0.000 N 
ATOM     19  O   UNL     1       6.982   5.322  19.955  0.00  0.00    +0.000 OA
ATOM     20  O   UNL     1       8.105   6.852  18.841  0.00  0.00    +0.000 OA
ENDBRANCH   5  18
TORSDOF 4
ENDMDL
MODEL 3
REMARK VINA RESULT:      -7.2      0.348      1.065
REMARK  Name = 
REMARK  4 active torsions:
REMARK  status: ('A' for Active; 'I' for Inactive)
REMARK    1  A    between atoms: C_2  and  C_15
REMARK    2  A    between atoms: N_3  and  C_4
REMARK    3  A    between atoms: C_6  and  N_7
REMARK    4  A    between atoms: C_11  and  N_12
REMARK                            x       y       z     vdW  Elec       q    Type
REMARK                         _______ _______ _______ _____ _____    ______ ____
ROOT
ATOM      1  C   UNL     1       6.001   4.296  17.612  0.00  0.00    +0.000 A 
ATOM      2  S   UNL     1       5.831   3.621  16.059  0.00  0.00    +0.000 S 
ATOM      3  C   UNL     1       6.861   4.795  15.388  0.00  0.00    +0.000 A 
ATOM      4  C   UNL     1       7.444   5.601  16.343  0.00  0.00    +0.000 A 
ATOM      5  C   UNL     1       6.964   5.288  17.663  0.00  0.00    +0.000 A 
ENDROOT
BRANCH   1   8
ATOM      6  O   UNL     1       3.578   5.407  18.039  0.00  0.00    +0.000 OA
ATOM      7  C   UNL     1       3.914   4.437  18.721  0.00  0.00    +0.000 C 
ATOM      8  N   UNL     1       5.128   3.781  18.553  0.00  0.00    +0.000 N 
ATOM      9  H   UNL     1       5.125   2.780  18.705  0.00  0.00    +0.000 HD
BRANCH   7  10
ATOM     10  C   UNL     1       3.008   3.865  19.699  0.00  0.00    +0.000 A 
ATOM     11  C   UNL     1       1.736   4.390  20.086  0.00  0.00    +0.000 A 
ATOM     12  C   UNL     1       1.258   3.572  21.081  0.00  0.00    +0.000 A 
ATOM     13  O   UNL     1       2.133   2.564  21.322  0.00  0.00    +0.000 OA
ATOM     14  C   UNL     1       3.192   2.749  20.491  0.00  0.00    +0.000 A 
ENDBRANCH   7  10
ENDBRANCH   1   8
BRANCH   3  15
ATOM     15  N   UNL     1       7.077   4.867  13.965  0.00  0.00    +0.000 N 
ATOM     16  O   UNL     1       7.927   5.676  13.582  0.00  0.00    +0.000 OA
ATOM     17  O   UNL     1       6.400   4.132  13.234  0.00  0.00    +0.000 OA
ENDBRANCH   3  15
BRANCH   5  18
ATOM     18  N   UNL     1       7.469   5.903  18.874  0.00  0.00    +0.000 N 
ATOM     19  O   UNL     1       8.123   6.948  18.766  0.00  0.00    +0.000 OA
ATOM     20  O   UNL     1       7.118   5.381  19.940  0.00  0.00    +0.000 OA
ENDBRANCH   5  18
TORSDOF 4
ENDMDL
MODEL 4
REMARK VINA RESULT:      -7.2      0.905      1.049
REMARK  Name = 
REMARK  4 active torsions:
REMARK  status: ('A' for Active; 'I' for Inactive)
REMARK    1  A    between atoms: C_2  and  C_15
REMARK    2  A    between atoms: N_3  and  C_4
REMARK    3  A    between atoms: C_6  and  N_7
REMARK    4  A    between atoms: C_11  and  N_12
REMARK                            x       y       z     vdW  Elec       q    Type
REMARK                         _______ _______ _______ _____ _____    ______ ____
ROOT
ATOM      1  C   UNL     1       5.769   4.302  17.446  0.00  0.00    +0.000 A 
ATOM      2  S   UNL     1       5.691   3.680  15.864  0.00  0.00    +0.000 S 
ATOM      3  C   UNL     1       6.852   4.796  15.320  0.00  0.00    +0.000 A 
ATOM      4  C   UNL     1       7.402   5.535  16.347  0.00  0.00    +0.000 A 
ATOM      5  C   UNL     1       6.788   5.223  17.610  0.00  0.00    +0.000 A 
ENDROOT
BRANCH   1   8
ATOM      6  O   UNL     1       3.357   5.504  17.615  0.00  0.00    +0.000 OA
ATOM      7  C   UNL     1       3.585   4.527  18.331  0.00  0.00    +0.000 C 
ATOM      8  N   UNL     1       4.784   3.826  18.292  0.00  0.00    +0.000 N 
ATOM      9  H   UNL     1       4.728   2.826  18.445  0.00  0.00    +0.000 HD
BRANCH   7  10
ATOM     10  C   UNL     1       2.561   3.994  19.211  0.00  0.00    +0.000 A 
ATOM     11  C   UNL     1       2.574   4.020  20.640  0.00  0.00    +0.000 A 
ATOM     12  C   UNL     1       1.449   3.349  21.056  0.00  0.00    +0.000 A 
ATOM     13  O   UNL     1       0.728   2.931  19.986  0.00  0.00    +0.000 OA
ATOM     14  C   UNL     1       1.407   3.315  18.874  0.00  0.00    +0.000 A 
ENDBRANCH   7  10
ENDBRANCH   1   8
BRANCH   3  15
ATOM     15  N   UNL     1       7.197   4.889  13.924  0.00  0.00    +0.000 N 
ATOM     16  O   UNL     1       6.588   4.134  13.160  0.00  0.00    +0.000 OA
ATOM     17  O   UNL     1       8.071   5.701  13.592  0.00  0.00    +0.000 OA
ENDBRANCH   3  15
BRANCH   5  18
ATOM     18  N   UNL     1       7.225   5.771  18.879  0.00  0.00    +0.000 N 
ATOM     19  O   UNL     1       6.810   5.238  19.916  0.00  0.00    +0.000 OA
ATOM     20  O   UNL     1       8.064   6.678  18.823  0.00  0.00    +0.000 OA
ENDBRANCH   5  18
TORSDOF 4
ENDMDL
MODEL 5
REMARK VINA RESULT:      -7.1      1.116      1.375
REMARK  Name = 
REMARK  4 active torsions:
REMARK  status: ('A' for Active; 'I' for Inactive)
REMARK    1  A    between atoms: C_2  and  C_15
REMARK    2  A    between atoms: N_3  and  C_4
REMARK    3  A    between atoms: C_6  and  N_7
REMARK    4  A    between atoms: C_11  and  N_12
REMARK                            x       y       z     vdW  Elec       q    Type
REMARK                         _______ _______ _______ _____ _____    ______ ____
ROOT
ATOM      1  C   UNL     1       5.740   4.406  17.349  0.00  0.00    +0.000 A 
ATOM      2  S   UNL     1       5.639   3.793  15.765  0.00  0.00    +0.000 S 
ATOM      3  C   UNL     1       6.877   4.831  15.237  0.00  0.00    +0.000 A 
ATOM      4  C   UNL     1       7.462   5.530  16.271  0.00  0.00    +0.000 A 
ATOM      5  C   UNL     1       6.815   5.258  17.527  0.00  0.00    +0.000 A 
ENDROOT
BRANCH   1   8
ATOM      6  O   UNL     1       3.482   5.859  17.628  0.00  0.00    +0.000 OA
ATOM      7  C   UNL     1       3.604   4.821  18.283  0.00  0.00    +0.000 C 
ATOM      8  N   UNL     1       4.716   3.994  18.183  0.00  0.00    +0.000 N 
ATOM      9  H   UNL     1       4.549   2.999  18.279  0.00  0.00    +0.000 HD
BRANCH   7  10
ATOM     10  C   UNL     1       2.536   4.356  19.147  0.00  0.00    +0.000 A 
ATOM     11  C   UNL     1       1.658   3.257  18.895  0.00  0.00    +0.000 A 
ATOM     12  C   UNL     1       0.765   3.218  19.938  0.00  0.00    +0.000 A 
ATOM     13  O   UNL     1       1.042   4.200  20.831  0.00  0.00    +0.000 OA
ATOM     14  C   UNL     1       2.108   4.890  20.346  0.00  0.00    +0.000 A 
ENDBRANCH   7  10
ENDBRANCH   1   8
BRANCH   3  15
ATOM     15  N   UNL     1       7.243   4.903  13.845  0.00  0.00    +0.000 N 
ATOM     16  O   UNL     1       6.651   4.132  13.084  0.00  0.00    +0.000 OA
ATOM     17  O   UNL     1       8.118   5.714  13.513  0.00  0.00    +0.000 OA
ENDBRANCH   3  15
BRANCH   5  18
ATOM     18  N   UNL     1       7.272   5.774  18.802  0.00  0.00    +0.000 N 
ATOM     19  O   UNL     1       8.075   6.715  18.793  0.00  0.00    +0.000 OA
ATOM     20  O   UNL     1       6.742   5.290  19.809  0.00  0.00    +0.000 OA
ENDBRANCH   5  18
TORSDOF 4
ENDMDL
MODEL 6
REMARK VINA RESULT:      -6.9      1.257      1.481
REMARK  Name = 
REMARK  4 active torsions:
REMARK  status: ('A' for Active; 'I' for Inactive)
REMARK    1  A    between atoms: C_2  and  C_15
REMARK    2  A    between atoms: N_3  and  C_4
REMARK    3  A    between atoms: C_6  and  N_7
REMARK    4  A    between atoms: C_11  and  N_12
REMARK                            x       y       z     vdW  Elec       q    Type
REMARK                         _______ _______ _______ _____ _____    ______ ____
ROOT
ATOM      1  C   UNL     1       5.228   4.455  17.489  0.00  0.00    +0.000 A 
ATOM      2  S   UNL     1       5.057   3.989  15.861  0.00  0.00    +0.000 S 
ATOM      3  C   UNL     1       6.570   4.655  15.465  0.00  0.00    +0.000 A 
ATOM      4  C   UNL     1       7.264   5.095  16.573  0.00  0.00    +0.000 A 
ATOM      5  C   UNL     1       6.488   4.949  17.776  0.00  0.00    +0.000 A 
ENDROOT
BRANCH   1   8
ATOM      6  O   UNL     1       4.971   2.458  19.288  0.00  0.00    +0.000 OA
ATOM      7  C   UNL     1       4.028   3.235  19.125  0.00  0.00    +0.000 C 
ATOM      8  N   UNL     1       4.079   4.309  18.245  0.00  0.00    +0.000 N 
ATOM      9  H   UNL     1       3.581   5.146  18.523  0.00  0.00    +0.000 HD
BRANCH   7  10
ATOM     10  C   UNL     1       2.820   3.117  19.920  0.00  0.00    +0.000 A 
ATOM     11  C   UNL     1       2.745   2.759  21.301  0.00  0.00    +0.000 A 
ATOM     12  C   UNL     1       1.410   2.703  21.623  0.00  0.00    +0.000 A 
ATOM     13  O   UNL     1       0.653   3.024  20.545  0.00  0.00    +0.000 OA
ATOM     14  C   UNL     1       1.508   3.266  19.516  0.00  0.00    +0.000 A 
ENDBRANCH   7  10
ENDBRANCH   1   8
BRANCH   3  15
ATOM     15  N   UNL     1       7.028   4.698  14.100  0.00  0.00    +0.000 N 
ATOM     16  O   UNL     1       6.476   3.922  13.314  0.00  0.00    +0.000 OA
ATOM     17  O   UNL     1       7.935   5.491  13.814  0.00  0.00    +0.000 OA
ENDBRANCH   3  15
BRANCH   5  18
ATOM     18  N   UNL     1       6.992   5.238  19.104  0.00  0.00    +0.000 N 
ATOM     19  O   UNL     1       8.215   5.194  19.283  0.00  0.00    +0.000 OA
ATOM     20  O   UNL     1       6.155   5.604  19.938  0.00  0.00    +0.000 OA
ENDBRANCH   5  18
TORSDOF 4
ENDMDL
MODEL 7
REMARK VINA RESULT:      -6.9      2.268      6.591
REMARK  Name = 
REMARK  4 active torsions:
REMARK  status: ('A' for Active; 'I' for Inactive)
REMARK    1  A    between atoms: C_2  and  C_15
REMARK    2  A    between atoms: N_3  and  C_4
REMARK    3  A    between atoms: C_6  and  N_7
REMARK    4  A    between atoms: C_11  and  N_12
REMARK                            x       y       z     vdW  Elec       q    Type
REMARK                         _______ _______ _______ _____ _____    ______ ____
ROOT
ATOM      1  C   UNL     1       3.284   4.656  18.619  0.00  0.00    +0.000 A 
ATOM      2  S   UNL     1       3.102   3.052  19.160  0.00  0.00    +0.000 S 
ATOM      3  C   UNL     1       2.514   3.580  20.665  0.00  0.00    +0.000 A 
ATOM      4  C   UNL     1       2.318   4.944  20.711  0.00  0.00    +0.000 A 
ATOM      5  C   UNL     1       2.740   5.581  19.492  0.00  0.00    +0.000 A 
ENDROOT
BRANCH   1   8
ATOM      6  O   UNL     1       5.968   4.387  18.520  0.00  0.00    +0.000 OA
ATOM      7  C   UNL     1       5.360   4.650  17.481  0.00  0.00    +0.000 C 
ATOM      8  N   UNL     1       3.977   4.778  17.428  0.00  0.00    +0.000 N 
ATOM      9  H   UNL     1       3.526   4.461  16.578  0.00  0.00    +0.000 HD
BRANCH   7  10
ATOM     10  C   UNL     1       6.061   4.762  16.216  0.00  0.00    +0.000 A 
ATOM     11  C   UNL     1       5.684   4.150  14.980  0.00  0.00    +0.000 A 
ATOM     12  C   UNL     1       6.663   4.466  14.069  0.00  0.00    +0.000 A 
ATOM     13  O   UNL     1       7.607   5.250  14.646  0.00  0.00    +0.000 OA
ATOM     14  C   UNL     1       7.244   5.420  15.944  0.00  0.00    +0.000 A 
ENDBRANCH   7  10
ENDBRANCH   1   8
BRANCH   3  15
ATOM     15  N   UNL     1       2.246   2.643  21.727  0.00  0.00    +0.000 N 
ATOM     16  O   UNL     1       3.200   1.957  22.104  0.00  0.00    +0.000 OA
ATOM     17  O   UNL     1       1.093   2.585  22.176  0.00  0.00    +0.000 OA
ENDBRANCH   3  15
BRANCH   5  18
ATOM     18  N   UNL     1       2.567   6.993  19.215  0.00  0.00    +0.000 N 
ATOM     19  O   UNL     1       2.831   7.398  18.076  0.00  0.00    +0.000 OA
ATOM     20  O   UNL     1       2.069   7.671  20.123  0.00  0.00    +0.000 OA
ENDBRANCH   5  18
TORSDOF 4
ENDMDL
MODEL 8
REMARK VINA RESULT:      -6.8      2.275      6.275
REMARK  Name = 
REMARK  4 active torsions:
REMARK  status: ('A' for Active; 'I' for Inactive)
REMARK    1  A    between atoms: C_2  and  C_15
REMARK    2  A    between atoms: N_3  and  C_4
REMARK    3  A    between atoms: C_6  and  N_7
REMARK    4  A    between atoms: C_11  and  N_12
REMARK                            x       y       z     vdW  Elec       q    Type
REMARK                         _______ _______ _______ _____ _____    ______ ____
ROOT
ATOM      1  C   UNL     1       4.881   4.188  17.438  0.00  0.00    +0.000 A 
ATOM      2  S   UNL     1       3.183   4.108  17.521  0.00  0.00    +0.000 S 
ATOM      3  C   UNL     1       3.212   4.282  19.212  0.00  0.00    +0.000 A 
ATOM      4  C   UNL     1       4.476   4.542  19.698  0.00  0.00    +0.000 A 
ATOM      5  C   UNL     1       5.461   4.520  18.649  0.00  0.00    +0.000 A 
ENDROOT
BRANCH   1   8
ATOM      6  O   UNL     1       5.450   6.094  15.613  0.00  0.00    +0.000 OA
ATOM      7  C   UNL     1       5.640   4.912  15.316  0.00  0.00    +0.000 C 
ATOM      8  N   UNL     1       5.405   3.866  16.199  0.00  0.00    +0.000 N 
ATOM      9  H   UNL     1       6.031   3.072  16.137  0.00  0.00    +0.000 HD
BRANCH   7  10
ATOM     10  C   UNL     1       6.208   4.550  14.032  0.00  0.00    +0.000 A 
ATOM     11  C   UNL     1       5.709   3.555  13.134  0.00  0.00    +0.000 A 
ATOM     12  C   UNL     1       6.589   3.499  12.080  0.00  0.00    +0.000 A 
ATOM     13  O   UNL     1       7.584   4.405  12.249  0.00  0.00    +0.000 OA
ATOM     14  C   UNL     1       7.354   5.032  13.433  0.00  0.00    +0.000 A 
ENDBRANCH   7  10
ENDBRANCH   1   8
BRANCH   3  15
ATOM     15  N   UNL     1       2.003   4.181  19.989  0.00  0.00    +0.000 N 
ATOM     16  O   UNL     1       1.870   5.005  20.899  0.00  0.00    +0.000 OA
ATOM     17  O   UNL     1       1.198   3.285  19.703  0.00  0.00    +0.000 OA
ENDBRANCH   3  15
BRANCH   5  18
ATOM     18  N   UNL     1       6.858   4.854  18.845  0.00  0.00    +0.000 N 
ATOM     19  O   UNL     1       7.172   5.458  19.877  0.00  0.00    +0.000 OA
ATOM     20  O   UNL     1       7.648   4.416  17.999  0.00  0.00    +0.000 OA
ENDBRANCH   5  18
TORSDOF 4
ENDMDL
MODEL 9
REMARK VINA RESULT:      -6.8      2.894      3.430
REMARK  Name = 
REMARK  4 active torsions:
REMARK  status: ('A' for Active; 'I' for Inactive)
REMARK    1  A    between atoms: C_2  and  C_15
REMARK    2  A    between atoms: N_3  and  C_4
REMARK    3  A    between atoms: C_6  and  N_7
REMARK    4  A    between atoms: C_11  and  N_12
REMARK                            x       y       z     vdW  Elec       q    Type
REMARK                         _______ _______ _______ _____ _____    ______ ____
ROOT
ATOM      1  C   UNL     1       5.174   6.167  17.190  0.00  0.00    +0.000 A 
ATOM      2  S   UNL     1       5.194   6.246  15.489  0.00  0.00    +0.000 S 
ATOM      3  C   UNL     1       6.484   5.142  15.409  0.00  0.00    +0.000 A 
ATOM      4  C   UNL     1       6.804   4.607  16.639  0.00  0.00    +0.000 A 
ATOM      5  C   UNL     1       6.011   5.185  17.690  0.00  0.00    +0.000 A 
ENDROOT
BRANCH   1   8
ATOM      6  O   UNL     1       2.638   5.602  17.922  0.00  0.00    +0.000 OA
ATOM      7  C   UNL     1       3.070   6.741  18.109  0.00  0.00    +0.000 C 
ATOM      8  N   UNL     1       4.370   7.116  17.792  0.00  0.00    +0.000 N 
ATOM      9  H   UNL     1       4.807   7.793  18.407  0.00  0.00    +0.000 HD
BRANCH   7  10
ATOM     10  C   UNL     1       2.253   7.749  18.758  0.00  0.00    +0.000 A 
ATOM     11  C   UNL     1       1.719   8.928  18.152  0.00  0.00    +0.000 A 
ATOM     12  C   UNL     1       1.072   9.624  19.145  0.00  0.00    +0.000 A 
ATOM     13  O   UNL     1       1.147   8.948  20.318  0.00  0.00    +0.000 OA
ATOM     14  C   UNL     1       1.869   7.820  20.082  0.00  0.00    +0.000 A 
ENDBRANCH   7  10
ENDBRANCH   1   8
BRANCH   3  15
ATOM     15  N   UNL     1       7.113   4.826  14.151  0.00  0.00    +0.000 N 
ATOM     16  O   UNL     1       6.629   3.882  13.520  0.00  0.00    +0.000 OA
ATOM     17  O   UNL     1       8.087   5.506  13.799  0.00  0.00    +0.000 OA
ENDBRANCH   3  15
BRANCH   5  18
ATOM     18  N   UNL     1       6.058   4.750  19.072  0.00  0.00    +0.000 N 
ATOM     19  O   UNL     1       5.384   3.764  19.394  0.00  0.00    +0.000 OA
ATOM     20  O   UNL     1       6.853   5.349  19.806  0.00  0.00    +0.000 OA
ENDBRANCH   5  18
TORSDOF 4
ENDMDL
