MODEL 1
REMARK VINA RESULT:      -8.0      0.000      0.000
REMARK  Name = 
REMARK  10 active torsions:
REMARK  status: ('A' for Active; 'I' for Inactive)
REMARK    1  A    between atoms: C_1  and  C_2
REMARK    2  A    between atoms: C_2  and  O_3
REMARK    3  A    between atoms: C_2  and  C_16
REMARK    4  A    between atoms: O_3  and  C_4
REMARK    5  A    between atoms: C_4  and  C_6
REMARK    6  A    between atoms: C_9  and  N_10
REMARK    7  A    between atoms: N_18  and  C_19
REMARK    8  A    between atoms: C_19  and  C_20
REMARK    9  A    between atoms: C_19  and  C_27
REMARK   10  A    between atoms: C_20  and  C_21
REMARK                            x       y       z     vdW  Elec       q    Type
REMARK                         _______ _______ _______ _____ _____    ______ ____
ROOT
ATOM      1  C   UNL     1       8.283   5.459  20.175  0.00  0.00    +0.000 C 
ATOM      2  C   UNL     1       7.661   6.157  18.970  0.00  0.00    +0.000 C 
ENDROOT
BRANCH   2   3
ATOM      3  C   UNL     1       7.480   5.070  17.891  0.00  0.00    +0.000 C 
ATOM      4  O   UNL     1       8.232   4.111  17.768  0.00  0.00    +0.000 OA
ATOM      5  N   UNL     1       6.346   5.250  17.111  0.00  0.00    +0.000 N 
ATOM      6  H   UNL     1       5.740   6.051  17.274  0.00  0.00    +0.000 HD
BRANCH   5   7
ATOM      7  C   UNL     1       5.867   4.251  16.150  0.00  0.00    +0.000 C 
BRANCH   7   8
ATOM      8  C   UNL     1       6.607   4.363  14.803  0.00  0.00    +0.000 C 
ATOM      9  N   UNL     1       6.241   3.439  13.858  0.00  0.00    +0.000 N 
ATOM     10  O   UNL     1       7.359   5.284  14.491  0.00  0.00    +0.000 OA
ATOM     11  H   UNL     1       5.403   2.888  13.976  0.00  0.00    +0.000 HD
ATOM     12  H   UNL     1       6.622   3.553  12.929  0.00  0.00    +0.000 HD
ENDBRANCH   7   8
BRANCH   7  13
ATOM     13  C   UNL     1       4.335   4.262  15.972  0.00  0.00    +0.000 C 
BRANCH  13  14
ATOM     14  C   UNL     1       3.525   3.587  17.061  0.00  0.00    +0.000 A 
ATOM     15  C   UNL     1       2.197   3.965  17.314  0.00  0.00    +0.000 A 
ATOM     16  C   UNL     1       1.436   3.299  18.277  0.00  0.00    +0.000 A 
ATOM     17  C   UNL     1       1.989   2.241  18.995  0.00  0.00    +0.000 A 
ATOM     18  C   UNL     1       3.309   1.862  18.762  0.00  0.00    +0.000 A 
ATOM     19  C   UNL     1       4.071   2.533  17.804  0.00  0.00    +0.000 A 
ENDBRANCH  13  14
ENDBRANCH   7  13
ENDBRANCH   5   7
ENDBRANCH   2   3
BRANCH   2  20
ATOM     20  O   UNL     1       8.502   7.244  18.566  0.00  0.00    +0.000 OA
BRANCH  20  21
ATOM     21  C   UNL     1       7.880   8.265  17.918  0.00  0.00    +0.000 C 
ATOM     22  O   UNL     1       6.976   8.179  17.104  0.00  0.00    +0.000 OA
BRANCH  21  23
ATOM     23  C   UNL     1       8.512   9.548  18.292  0.00  0.00    +0.000 A 
ATOM     24  C   UNL     1       8.387  10.677  17.482  0.00  0.00    +0.000 A 
ATOM     25  C   UNL     1       8.870  11.904  17.932  0.00  0.00    +0.000 A 
ATOM     26  C   UNL     1       9.493  12.022  19.186  0.00  0.00    +0.000 A 
ATOM     27  C   UNL     1       9.704  10.858  19.933  0.00  0.00    +0.000 A 
ATOM     28  C   UNL     1       9.213   9.626  19.497  0.00  0.00    +0.000 A 
BRANCH  26  29
ATOM     29  N   UNL     1       9.760  13.309  19.670  0.00  0.00    +0.000 N 
ATOM     30  C   UNL     1       8.942  14.195  20.292  0.00  0.00    +0.000 C 
ATOM     31  N   UNL     1       7.696  14.130  20.598  0.00  0.00    +0.000 NA
ATOM     32  N   UNL     1       9.565  15.363  20.566  0.00  0.00    +0.000 N 
ATOM     33  H   UNL     1      10.699  13.637  19.494  0.00  0.00    +0.000 HD
ATOM     34  H   UNL     1       7.304  13.245  20.281  0.00  0.00    +0.000 HD
ATOM     35  H   UNL     1       9.989  15.783  19.749  0.00  0.00    +0.000 HD
ATOM     36  H   UNL     1       8.867  16.004  20.936  0.00  0.00    +0.000 HD
ENDBRANCH  26  29
ENDBRANCH  21  23
ENDBRANCH  20  21
ENDBRANCH   2  20
TORSDOF 9
ENDMDL
MODEL 2
REMARK VINA RESULT:      -8.0      4.485      6.790
REMARK  Name = 
REMARK  10 active torsions:
REMARK  status: ('A' for Active; 'I' for Inactive)
REMARK    1  A    between atoms: C_1  and  C_2
REMARK    2  A    between atoms: C_2  and  O_3
REMARK    3  A    between atoms: C_2  and  C_16
REMARK    4  A    between atoms: O_3  and  C_4
REMARK    5  A    between atoms: C_4  and  C_6
REMARK    6  A    between atoms: C_9  and  N_10
REMARK    7  A    between atoms: N_18  and  C_19
REMARK    8  A    between atoms: C_19  and  C_20
REMARK    9  A    between atoms: C_19  and  C_27
REMARK   10  A    between atoms: C_20  and  C_21
REMARK                            x       y       z     vdW  Elec       q    Type
REMARK                         _______ _______ _______ _____ _____    ______ ____
ROOT
ATOM      1  C   UNL     1       3.790   2.568  20.020  0.00  0.00    +0.000 C 
ATOM      2  C   UNL     1       3.432   3.754  19.131  0.00  0.00    +0.000 C 
ENDROOT
BRANCH   2   3
ATOM      3  C   UNL     1       4.493   3.786  18.012  0.00  0.00    +0.000 C 
ATOM      4  O   UNL     1       4.567   2.941  17.128  0.00  0.00    +0.000 OA
ATOM      5  N   UNL     1       5.321   4.900  18.068  0.00  0.00    +0.000 N 
ATOM      6  H   UNL     1       5.198   5.586  18.809  0.00  0.00    +0.000 HD
BRANCH   5   7
ATOM      7  C   UNL     1       6.277   5.242  17.010  0.00  0.00    +0.000 C 
BRANCH   7   8
ATOM      8  C   UNL     1       7.295   6.295  17.487  0.00  0.00    +0.000 C 
ATOM      9  N   UNL     1       7.811   6.083  18.739  0.00  0.00    +0.000 N 
ATOM     10  O   UNL     1       7.762   7.188  16.782  0.00  0.00    +0.000 OA
ATOM     11  H   UNL     1       7.693   5.192  19.199  0.00  0.00    +0.000 HD
ATOM     12  H   UNL     1       8.564   6.689  19.037  0.00  0.00    +0.000 HD
ENDBRANCH   7   8
BRANCH   7  13
ATOM     13  C   UNL     1       5.601   5.648  15.685  0.00  0.00    +0.000 C 
BRANCH  13  14
ATOM     14  C   UNL     1       6.123   4.980  14.429  0.00  0.00    +0.000 A 
ATOM     15  C   UNL     1       5.391   3.964  13.793  0.00  0.00    +0.000 A 
ATOM     16  C   UNL     1       5.848   3.393  12.602  0.00  0.00    +0.000 A 
ATOM     17  C   UNL     1       7.036   3.836  12.026  0.00  0.00    +0.000 A 
ATOM     18  C   UNL     1       7.777   4.836  12.651  0.00  0.00    +0.000 A 
ATOM     19  C   UNL     1       7.324   5.401  13.846  0.00  0.00    +0.000 A 
ENDBRANCH  13  14
ENDBRANCH   7  13
ENDBRANCH   5   7
ENDBRANCH   2   3
BRANCH   2  20
ATOM     20  O   UNL     1       3.387   4.945  19.925  0.00  0.00    +0.000 OA
BRANCH  20  21
ATOM     21  C   UNL     1       2.153   5.335  20.340  0.00  0.00    +0.000 C 
ATOM     22  O   UNL     1       1.291   4.636  20.846  0.00  0.00    +0.000 OA
BRANCH  21  23
ATOM     23  C   UNL     1       1.952   6.765  20.025  0.00  0.00    +0.000 A 
ATOM     24  C   UNL     1       2.292   7.284  18.775  0.00  0.00    +0.000 A 
ATOM     25  C   UNL     1       1.956   8.599  18.461  0.00  0.00    +0.000 A 
ATOM     26  C   UNL     1       1.289   9.419  19.389  0.00  0.00    +0.000 A 
ATOM     27  C   UNL     1       1.056   8.912  20.672  0.00  0.00    +0.000 A 
ATOM     28  C   UNL     1       1.378   7.592  20.992  0.00  0.00    +0.000 A 
BRANCH  26  29
ATOM     29  N   UNL     1       0.791  10.649  18.942  0.00  0.00    +0.000 N 
ATOM     30  C   UNL     1      -0.271  10.923  18.145  0.00  0.00    +0.000 C 
ATOM     31  N   UNL     1      -1.111  10.151  17.554  0.00  0.00    +0.000 NA
ATOM     32  N   UNL     1      -0.402  12.246  17.901  0.00  0.00    +0.000 N 
ATOM     33  H   UNL     1       1.333  11.451  19.232  0.00  0.00    +0.000 HD
ATOM     34  H   UNL     1      -0.880   9.177  17.740  0.00  0.00    +0.000 HD
ATOM     35  H   UNL     1       0.441  12.660  17.524  0.00  0.00    +0.000 HD
ATOM     36  H   UNL     1      -1.151  12.361  17.222  0.00  0.00    +0.000 HD
ENDBRANCH  26  29
ENDBRANCH  21  23
ENDBRANCH  20  21
ENDBRANCH   2  20
TORSDOF 9
ENDMDL
MODEL 3
REMARK VINA RESULT:      -7.8      4.683      6.542
REMARK  Name = 
REMARK  10 active torsions:
REMARK  status: ('A' for Active; 'I' for Inactive)
REMARK    1  A    between atoms: C_1  and  C_2
REMARK    2  A    between atoms: C_2  and  O_3
REMARK    3  A    between atoms: C_2  and  C_16
REMARK    4  A    between atoms: O_3  and  C_4
REMARK    5  A    between atoms: C_4  and  C_6
REMARK    6  A    between atoms: C_9  and  N_10
REMARK    7  A    between atoms: N_18  and  C_19
REMARK    8  A    between atoms: C_19  and  C_20
REMARK    9  A    between atoms: C_19  and  C_27
REMARK   10  A    between atoms: C_20  and  C_21
REMARK                            x       y       z     vdW  Elec       q    Type
REMARK                         _______ _______ _______ _____ _____    ______ ____
ROOT
ATOM      1  C   UNL     1       1.080   3.108  18.481  0.00  0.00    +0.000 C 
ATOM      2  C   UNL     1       2.034   4.287  18.325  0.00  0.00    +0.000 C 
ENDROOT
BRANCH   2   3
ATOM      3  C   UNL     1       3.321   3.718  17.694  0.00  0.00    +0.000 C 
ATOM      4  O   UNL     1       3.524   2.519  17.543  0.00  0.00    +0.000 OA
ATOM      5  N   UNL     1       4.202   4.698  17.256  0.00  0.00    +0.000 N 
ATOM      6  H   UNL     1       3.970   5.681  17.382  0.00  0.00    +0.000 HD
BRANCH   5   7
ATOM      7  C   UNL     1       5.397   4.403  16.460  0.00  0.00    +0.000 C 
BRANCH   7   8
ATOM      8  C   UNL     1       6.672   4.429  17.326  0.00  0.00    +0.000 C 
ATOM      9  N   UNL     1       6.480   4.168  18.657  0.00  0.00    +0.000 N 
ATOM     10  O   UNL     1       7.817   4.516  16.884  0.00  0.00    +0.000 OA
ATOM     11  H   UNL     1       5.608   3.774  18.983  0.00  0.00    +0.000 HD
ATOM     12  H   UNL     1       7.305   4.064  19.232  0.00  0.00    +0.000 HD
ENDBRANCH   7   8
BRANCH   7  13
ATOM     13  C   UNL     1       5.530   5.291  15.206  0.00  0.00    +0.000 C 
BRANCH  13  14
ATOM     14  C   UNL     1       6.020   4.608  13.946  0.00  0.00    +0.000 A 
ATOM     15  C   UNL     1       5.249   3.621  13.311  0.00  0.00    +0.000 A 
ATOM     16  C   UNL     1       5.678   3.038  12.116  0.00  0.00    +0.000 A 
ATOM     17  C   UNL     1       6.878   3.440  11.534  0.00  0.00    +0.000 A 
ATOM     18  C   UNL     1       7.658   4.411  12.158  0.00  0.00    +0.000 A 
ATOM     19  C   UNL     1       7.232   4.988  13.356  0.00  0.00    +0.000 A 
ENDBRANCH  13  14
ENDBRANCH   7  13
ENDBRANCH   5   7
ENDBRANCH   2   3
BRANCH   2  20
ATOM     20  O   UNL     1       2.237   4.906  19.601  0.00  0.00    +0.000 OA
BRANCH  20  21
ATOM     21  C   UNL     1       3.067   5.982  19.614  0.00  0.00    +0.000 C 
ATOM     22  O   UNL     1       4.278   5.977  19.765  0.00  0.00    +0.000 OA
BRANCH  21  23
ATOM     23  C   UNL     1       2.274   7.222  19.481  0.00  0.00    +0.000 A 
ATOM     24  C   UNL     1       1.500   7.700  20.539  0.00  0.00    +0.000 A 
ATOM     25  C   UNL     1       0.882   8.945  20.432  0.00  0.00    +0.000 A 
ATOM     26  C   UNL     1       1.015   9.723  19.270  0.00  0.00    +0.000 A 
ATOM     27  C   UNL     1       1.704   9.177  18.182  0.00  0.00    +0.000 A 
ATOM     28  C   UNL     1       2.338   7.936  18.283  0.00  0.00    +0.000 A 
BRANCH  26  29
ATOM     29  N   UNL     1       0.554  11.045  19.306  0.00  0.00    +0.000 N 
ATOM     30  C   UNL     1       0.987  12.101  20.040  0.00  0.00    +0.000 C 
ATOM     31  N   UNL     1       1.917  12.198  20.921  0.00  0.00    +0.000 NA
ATOM     32  N   UNL     1       0.246  13.211  19.827  0.00  0.00    +0.000 N 
ATOM     33  H   UNL     1      -0.249  11.226  18.720  0.00  0.00    +0.000 HD
ATOM     34  H   UNL     1       2.361  11.293  21.062  0.00  0.00    +0.000 HD
ATOM     35  H   UNL     1      -0.743  13.058  19.975  0.00  0.00    +0.000 HD
ATOM     36  H   UNL     1       0.566  13.923  20.480  0.00  0.00    +0.000 HD
ENDBRANCH  26  29
ENDBRANCH  21  23
ENDBRANCH  20  21
ENDBRANCH   2  20
TORSDOF 9
ENDMDL
MODEL 4
REMARK VINA RESULT:      -7.6      5.697      9.437
REMARK  Name = 
REMARK  10 active torsions:
REMARK  status: ('A' for Active; 'I' for Inactive)
REMARK    1  A    between atoms: C_1  and  C_2
REMARK    2  A    between atoms: C_2  and  O_3
REMARK    3  A    between atoms: C_2  and  C_16
REMARK    4  A    between atoms: O_3  and  C_4
REMARK    5  A    between atoms: C_4  and  C_6
REMARK    6  A    between atoms: C_9  and  N_10
REMARK    7  A    between atoms: N_18  and  C_19
REMARK    8  A    between atoms: C_19  and  C_20
REMARK    9  A    between atoms: C_19  and  C_27
REMARK   10  A    between atoms: C_20  and  C_21
REMARK                            x       y       z     vdW  Elec       q    Type
REMARK                         _______ _______ _______ _____ _____    ______ ____
ROOT
ATOM      1  C   UNL     1       1.681   7.081  20.313  0.00  0.00    +0.000 C 
ATOM      2  C   UNL     1       2.580   7.508  19.156  0.00  0.00    +0.000 C 
ENDROOT
BRANCH   2   3
ATOM      3  C   UNL     1       1.846   8.665  18.448  0.00  0.00    +0.000 C 
ATOM      4  O   UNL     1       1.823   8.804  17.231  0.00  0.00    +0.000 OA
ATOM      5  N   UNL     1       1.160   9.500  19.320  0.00  0.00    +0.000 N 
ATOM      6  H   UNL     1       1.191   9.323  20.321  0.00  0.00    +0.000 HD
BRANCH   5   7
ATOM      7  C   UNL     1       0.244  10.551  18.868  0.00  0.00    +0.000 C 
BRANCH   7   8
ATOM      8  C   UNL     1       0.577  11.909  19.517  0.00  0.00    +0.000 C 
ATOM      9  N   UNL     1       0.952  11.851  20.834  0.00  0.00    +0.000 N 
ATOM     10  O   UNL     1       0.670  12.972  18.906  0.00  0.00    +0.000 OA
ATOM     11  H   UNL     1       1.198  10.969  21.259  0.00  0.00    +0.000 HD
ATOM     12  H   UNL     1       1.286  12.706  21.257  0.00  0.00    +0.000 HD
ENDBRANCH   7   8
BRANCH   7  13
ATOM     13  C   UNL     1      -1.243  10.178  19.038  0.00  0.00    +0.000 C 
BRANCH  13  14
ATOM     14  C   UNL     1      -2.144  10.440  17.848  0.00  0.00    +0.000 A 
ATOM     15  C   UNL     1      -1.958   9.756  16.636  0.00  0.00    +0.000 A 
ATOM     16  C   UNL     1      -2.829   9.957  15.562  0.00  0.00    +0.000 A 
ATOM     17  C   UNL     1      -3.902  10.836  15.687  0.00  0.00    +0.000 A 
ATOM     18  C   UNL     1      -4.093  11.528  16.881  0.00  0.00    +0.000 A 
ATOM     19  C   UNL     1      -3.218  11.333  17.952  0.00  0.00    +0.000 A 
ENDBRANCH  13  14
ENDBRANCH   7  13
ENDBRANCH   5   7
ENDBRANCH   2   3
BRANCH   2  20
ATOM     20  O   UNL     1       2.837   6.379  18.314  0.00  0.00    +0.000 OA
BRANCH  20  21
ATOM     21  C   UNL     1       4.038   5.768  18.491  0.00  0.00    +0.000 C 
ATOM     22  O   UNL     1       4.677   5.686  19.527  0.00  0.00    +0.000 OA
BRANCH  21  23
ATOM     23  C   UNL     1       4.528   5.251  17.196  0.00  0.00    +0.000 A 
ATOM     24  C   UNL     1       5.037   6.109  16.221  0.00  0.00    +0.000 A 
ATOM     25  C   UNL     1       5.624   5.577  15.075  0.00  0.00    +0.000 A 
ATOM     26  C   UNL     1       5.700   4.189  14.876  0.00  0.00    +0.000 A 
ATOM     27  C   UNL     1       5.087   3.351  15.814  0.00  0.00    +0.000 A 
ATOM     28  C   UNL     1       4.508   3.872  16.972  0.00  0.00    +0.000 A 
BRANCH  26  29
ATOM     29  N   UNL     1       6.486   3.716  13.817  0.00  0.00    +0.000 N 
ATOM     30  C   UNL     1       6.131   3.365  12.556  0.00  0.00    +0.000 C 
ATOM     31  N   UNL     1       4.987   3.339  11.972  0.00  0.00    +0.000 NA
ATOM     32  N   UNL     1       7.180   2.907  11.837  0.00  0.00    +0.000 N 
ATOM     33  H   UNL     1       7.462   3.584  14.045  0.00  0.00    +0.000 HD
ATOM     34  H   UNL     1       4.257   3.628  12.620  0.00  0.00    +0.000 HD
ATOM     35  H   UNL     1       7.667   2.148  12.293  0.00  0.00    +0.000 HD
ATOM     36  H   UNL     1       6.819   2.573  10.946  0.00  0.00    +0.000 HD
ENDBRANCH  26  29
ENDBRANCH  21  23
ENDBRANCH  20  21
ENDBRANCH   2  20
TORSDOF 9
ENDMDL
MODEL 5
REMARK VINA RESULT:      -7.6      4.910      6.722
REMARK  Name = 
REMARK  10 active torsions:
REMARK  status: ('A' for Active; 'I' for Inactive)
REMARK    1  A    between atoms: C_1  and  C_2
REMARK    2  A    between atoms: C_2  and  O_3
REMARK    3  A    between atoms: C_2  and  C_16
REMARK    4  A    between atoms: O_3  and  C_4
REMARK    5  A    between atoms: C_4  and  C_6
REMARK    6  A    between atoms: C_9  and  N_10
REMARK    7  A    between atoms: N_18  and  C_19
REMARK    8  A    between atoms: C_19  and  C_20
REMARK    9  A    between atoms: C_19  and  C_27
REMARK   10  A    between atoms: C_20  and  C_21
REMARK                            x       y       z     vdW  Elec       q    Type
REMARK                         _______ _______ _______ _____ _____    ______ ____
ROOT
ATOM      1  C   UNL     1       1.747   2.417  18.766  0.00  0.00    +0.000 C 
ATOM      2  C   UNL     1       2.487   3.727  18.512  0.00  0.00    +0.000 C 
ENDROOT
BRANCH   2   3
ATOM      3  C   UNL     1       3.740   3.358  17.692  0.00  0.00    +0.000 C 
ATOM      4  O   UNL     1       4.079   2.205  17.459  0.00  0.00    +0.000 OA
ATOM      5  N   UNL     1       4.416   4.463  17.190  0.00  0.00    +0.000 N 
ATOM      6  H   UNL     1       4.075   5.400  17.392  0.00  0.00    +0.000 HD
BRANCH   5   7
ATOM      7  C   UNL     1       5.521   4.359  16.233  0.00  0.00    +0.000 C 
BRANCH   7   8
ATOM      8  C   UNL     1       6.830   4.924  16.818  0.00  0.00    +0.000 C 
ATOM      9  N   UNL     1       7.287   4.292  17.945  0.00  0.00    +0.000 N 
ATOM     10  O   UNL     1       7.534   5.770  16.270  0.00  0.00    +0.000 OA
ATOM     11  H   UNL     1       6.908   3.397  18.221  0.00  0.00    +0.000 HD
ATOM     12  H   UNL     1       8.199   4.561  18.289  0.00  0.00    +0.000 HD
ENDBRANCH   7   8
BRANCH   7  13
ATOM     13  C   UNL     1       5.194   4.967  14.854  0.00  0.00    +0.000 C 
BRANCH  13  14
ATOM     14  C   UNL     1       5.703   4.209  13.645  0.00  0.00    +0.000 A 
ATOM     15  C   UNL     1       4.863   3.339  12.930  0.00  0.00    +0.000 A 
ATOM     16  C   UNL     1       5.320   2.690  11.781  0.00  0.00    +0.000 A 
ATOM     17  C   UNL     1       6.618   2.907  11.324  0.00  0.00    +0.000 A 
ATOM     18  C   UNL     1       7.465   3.760  12.029  0.00  0.00    +0.000 A 
ATOM     19  C   UNL     1       7.010   4.403  13.182  0.00  0.00    +0.000 A 
ENDBRANCH  13  14
ENDBRANCH   7  13
ENDBRANCH   5   7
ENDBRANCH   2   3
BRANCH   2  20
ATOM     20  O   UNL     1       2.776   4.360  19.764  0.00  0.00    +0.000 OA
BRANCH  20  21
ATOM     21  C   UNL     1       3.544   5.479  19.699  0.00  0.00    +0.000 C 
ATOM     22  O   UNL     1       4.758   5.547  19.804  0.00  0.00    +0.000 OA
BRANCH  21  23
ATOM     23  C   UNL     1       2.678   6.667  19.545  0.00  0.00    +0.000 A 
ATOM     24  C   UNL     1       1.873   7.113  20.593  0.00  0.00    +0.000 A 
ATOM     25  C   UNL     1       1.182   8.317  20.465  0.00  0.00    +0.000 A 
ATOM     26  C   UNL     1       1.273   9.085  19.292  0.00  0.00    +0.000 A 
ATOM     27  C   UNL     1       1.999   8.565  18.215  0.00  0.00    +0.000 A 
ATOM     28  C   UNL     1       2.705   7.366  18.337  0.00  0.00    +0.000 A 
BRANCH  26  29
ATOM     29  N   UNL     1       0.734  10.377  19.307  0.00  0.00    +0.000 N 
ATOM     30  C   UNL     1      -0.256  10.919  18.553  0.00  0.00    +0.000 C 
ATOM     31  N   UNL     1      -0.968  10.425  17.604  0.00  0.00    +0.000 NA
ATOM     32  N   UNL     1      -0.459  12.225  18.836  0.00  0.00    +0.000 N 
ATOM     33  H   UNL     1       1.179  11.011  19.955  0.00  0.00    +0.000 HD
ATOM     34  H   UNL     1      -0.684   9.464  17.419  0.00  0.00    +0.000 HD
ATOM     35  H   UNL     1       0.385  12.777  18.764  0.00  0.00    +0.000 HD
ATOM     36  H   UNL     1      -1.139  12.581  18.167  0.00  0.00    +0.000 HD
ENDBRANCH  26  29
ENDBRANCH  21  23
ENDBRANCH  20  21
ENDBRANCH   2  20
TORSDOF 9
ENDMDL
MODEL 6
REMARK VINA RESULT:      -7.6      2.372      3.591
REMARK  Name = 
REMARK  10 active torsions:
REMARK  status: ('A' for Active; 'I' for Inactive)
REMARK    1  A    between atoms: C_1  and  C_2
REMARK    2  A    between atoms: C_2  and  O_3
REMARK    3  A    between atoms: C_2  and  C_16
REMARK    4  A    between atoms: O_3  and  C_4
REMARK    5  A    between atoms: C_4  and  C_6
REMARK    6  A    between atoms: C_9  and  N_10
REMARK    7  A    between atoms: N_18  and  C_19
REMARK    8  A    between atoms: C_19  and  C_20
REMARK    9  A    between atoms: C_19  and  C_27
REMARK   10  A    between atoms: C_20  and  C_21
REMARK                            x       y       z     vdW  Elec       q    Type
REMARK                         _______ _______ _______ _____ _____    ______ ____
ROOT
ATOM      1  C   UNL     1       7.081   5.545  15.984  0.00  0.00    +0.000 C 
ATOM      2  C   UNL     1       6.624   6.485  17.094  0.00  0.00    +0.000 C 
ENDROOT
BRANCH   2   3
ATOM      3  C   UNL     1       5.123   6.742  16.847  0.00  0.00    +0.000 C 
ATOM      4  O   UNL     1       4.654   6.991  15.744  0.00  0.00    +0.000 OA
ATOM      5  N   UNL     1       4.344   6.604  17.989  0.00  0.00    +0.000 N 
ATOM      6  H   UNL     1       4.783   6.369  18.876  0.00  0.00    +0.000 HD
BRANCH   5   7
ATOM      7  C   UNL     1       2.878   6.616  17.965  0.00  0.00    +0.000 C 
BRANCH   7   8
ATOM      8  C   UNL     1       2.322   8.043  18.135  0.00  0.00    +0.000 C 
ATOM      9  N   UNL     1       1.887   8.353  19.397  0.00  0.00    +0.000 N 
ATOM     10  O   UNL     1       2.387   8.926  17.282  0.00  0.00    +0.000 OA
ATOM     11  H   UNL     1       2.124   7.764  20.182  0.00  0.00    +0.000 HD
ATOM     12  H   UNL     1       1.623   9.314  19.572  0.00  0.00    +0.000 HD
ENDBRANCH   7   8
BRANCH   7  13
ATOM     13  C   UNL     1       2.243   5.625  18.961  0.00  0.00    +0.000 C 
BRANCH  13  14
ATOM     14  C   UNL     1       2.654   4.173  18.822  0.00  0.00    +0.000 A 
ATOM     15  C   UNL     1       2.208   3.395  17.741  0.00  0.00    +0.000 A 
ATOM     16  C   UNL     1       2.638   2.075  17.586  0.00  0.00    +0.000 A 
ATOM     17  C   UNL     1       3.527   1.517  18.502  0.00  0.00    +0.000 A 
ATOM     18  C   UNL     1       3.970   2.274  19.584  0.00  0.00    +0.000 A 
ATOM     19  C   UNL     1       3.533   3.591  19.743  0.00  0.00    +0.000 A 
ENDBRANCH  13  14
ENDBRANCH   7  13
ENDBRANCH   5   7
ENDBRANCH   2   3
BRANCH   2  20
ATOM     20  O   UNL     1       7.428   7.670  17.074  0.00  0.00    +0.000 OA
BRANCH  20  21
ATOM     21  C   UNL     1       8.163   7.907  18.192  0.00  0.00    +0.000 C 
ATOM     22  O   UNL     1       8.487   7.098  19.047  0.00  0.00    +0.000 OA
BRANCH  21  23
ATOM     23  C   UNL     1       8.479   9.348  18.283  0.00  0.00    +0.000 A 
ATOM     24  C   UNL     1       9.445   9.821  19.171  0.00  0.00    +0.000 A 
ATOM     25  C   UNL     1       9.821  11.162  19.129  0.00  0.00    +0.000 A 
ATOM     26  C   UNL     1       9.235  12.052  18.213  0.00  0.00    +0.000 A 
ATOM     27  C   UNL     1       8.193  11.580  17.407  0.00  0.00    +0.000 A 
ATOM     28  C   UNL     1       7.816  10.236  17.432  0.00  0.00    +0.000 A 
BRANCH  26  29
ATOM     29  N   UNL     1       9.803  13.324  18.073  0.00  0.00    +0.000 N 
ATOM     30  C   UNL     1      10.862  13.730  17.329  0.00  0.00    +0.000 C 
ATOM     31  N   UNL     1      11.658  13.079  16.559  0.00  0.00    +0.000 NA
ATOM     32  N   UNL     1      11.135  15.043  17.499  0.00  0.00    +0.000 N 
ATOM     33  H   UNL     1       9.378  14.039  18.647  0.00  0.00    +0.000 HD
ATOM     34  H   UNL     1      11.415  12.090  16.560  0.00  0.00    +0.000 HD
ATOM     35  H   UNL     1      11.267  15.293  18.471  0.00  0.00    +0.000 HD
ATOM     36  H   UNL     1      11.993  15.246  16.992  0.00  0.00    +0.000 HD
ENDBRANCH  26  29
ENDBRANCH  21  23
ENDBRANCH  20  21
ENDBRANCH   2  20
TORSDOF 9
ENDMDL
MODEL 7
REMARK VINA RESULT:      -7.5      5.794      8.881
REMARK  Name = 
REMARK  10 active torsions:
REMARK  status: ('A' for Active; 'I' for Inactive)
REMARK    1  A    between atoms: C_1  and  C_2
REMARK    2  A    between atoms: C_2  and  O_3
REMARK    3  A    between atoms: C_2  and  C_16
REMARK    4  A    between atoms: O_3  and  C_4
REMARK    5  A    between atoms: C_4  and  C_6
REMARK    6  A    between atoms: C_9  and  N_10
REMARK    7  A    between atoms: N_18  and  C_19
REMARK    8  A    between atoms: C_19  and  C_20
REMARK    9  A    between atoms: C_19  and  C_27
REMARK   10  A    between atoms: C_20  and  C_21
REMARK                            x       y       z     vdW  Elec       q    Type
REMARK                         _______ _______ _______ _____ _____    ______ ____
ROOT
ATOM      1  C   UNL     1       1.043   7.930  21.508  0.00  0.00    +0.000 C 
ATOM      2  C   UNL     1       1.881   7.465  20.322  0.00  0.00    +0.000 C 
ENDROOT
BRANCH   2   3
ATOM      3  C   UNL     1       1.692   8.527  19.220  0.00  0.00    +0.000 C 
ATOM      4  O   UNL     1       1.978   8.337  18.045  0.00  0.00    +0.000 OA
ATOM      5  N   UNL     1       1.106   9.700  19.678  0.00  0.00    +0.000 N 
ATOM      6  H   UNL     1       0.863   9.794  20.662  0.00  0.00    +0.000 HD
BRANCH   5   7
ATOM      7  C   UNL     1       0.659  10.774  18.786  0.00  0.00    +0.000 C 
BRANCH   7   8
ATOM      8  C   UNL     1       1.698  11.908  18.702  0.00  0.00    +0.000 C 
ATOM      9  N   UNL     1       1.614  12.851  19.693  0.00  0.00    +0.000 N 
ATOM     10  O   UNL     1       2.649  11.931  17.922  0.00  0.00    +0.000 OA
ATOM     11  H   UNL     1       1.061  12.680  20.520  0.00  0.00    +0.000 HD
ATOM     12  H   UNL     1       2.349  13.545  19.735  0.00  0.00    +0.000 HD
ENDBRANCH   7   8
BRANCH   7  13
ATOM     13  C   UNL     1      -0.749  11.303  19.127  0.00  0.00    +0.000 C 
BRANCH  13  14
ATOM     14  C   UNL     1      -1.835  11.038  18.102  0.00  0.00    +0.000 A 
ATOM     15  C   UNL     1      -1.651  10.093  17.081  0.00  0.00    +0.000 A 
ATOM     16  C   UNL     1      -2.677   9.810  16.176  0.00  0.00    +0.000 A 
ATOM     17  C   UNL     1      -3.904  10.461  16.286  0.00  0.00    +0.000 A 
ATOM     18  C   UNL     1      -4.097  11.409  17.288  0.00  0.00    +0.000 A 
ATOM     19  C   UNL     1      -3.068  11.696  18.187  0.00  0.00    +0.000 A 
ENDBRANCH  13  14
ENDBRANCH   7  13
ENDBRANCH   5   7
ENDBRANCH   2   3
BRANCH   2  20
ATOM     20  O   UNL     1       1.470   6.148  19.938  0.00  0.00    +0.000 OA
BRANCH  20  21
ATOM     21  C   UNL     1       2.268   5.131  20.359  0.00  0.00    +0.000 C 
ATOM     22  O   UNL     1       2.247   4.580  21.448  0.00  0.00    +0.000 OA
BRANCH  21  23
ATOM     23  C   UNL     1       3.255   4.807  19.308  0.00  0.00    +0.000 A 
ATOM     24  C   UNL     1       2.851   4.499  18.008  0.00  0.00    +0.000 A 
ATOM     25  C   UNL     1       3.809   4.341  17.009  0.00  0.00    +0.000 A 
ATOM     26  C   UNL     1       5.180   4.476  17.290  0.00  0.00    +0.000 A 
ATOM     27  C   UNL     1       5.566   4.677  18.619  0.00  0.00    +0.000 A 
ATOM     28  C   UNL     1       4.614   4.849  19.626  0.00  0.00    +0.000 A 
BRANCH  26  29
ATOM     29  N   UNL     1       6.072   4.520  16.212  0.00  0.00    +0.000 N 
ATOM     30  C   UNL     1       7.002   5.453  15.886  0.00  0.00    +0.000 C 
ATOM     31  N   UNL     1       7.323   6.564  16.445  0.00  0.00    +0.000 NA
ATOM     32  N   UNL     1       7.640   5.158  14.731  0.00  0.00    +0.000 N 
ATOM     33  H   UNL     1       5.979   3.755  15.558  0.00  0.00    +0.000 HD
ATOM     34  H   UNL     1       6.733   6.728  17.259  0.00  0.00    +0.000 HD
ATOM     35  H   UNL     1       7.004   5.006  13.959  0.00  0.00    +0.000 HD
ATOM     36  H   UNL     1       8.243   5.946  14.505  0.00  0.00    +0.000 HD
ENDBRANCH  26  29
ENDBRANCH  21  23
ENDBRANCH  20  21
ENDBRANCH   2  20
TORSDOF 9
ENDMDL
MODEL 8
REMARK VINA RESULT:      -7.5      4.837      6.789
REMARK  Name = 
REMARK  10 active torsions:
REMARK  status: ('A' for Active; 'I' for Inactive)
REMARK    1  A    between atoms: C_1  and  C_2
REMARK    2  A    between atoms: C_2  and  O_3
REMARK    3  A    between atoms: C_2  and  C_16
REMARK    4  A    between atoms: O_3  and  C_4
REMARK    5  A    between atoms: C_4  and  C_6
REMARK    6  A    between atoms: C_9  and  N_10
REMARK    7  A    between atoms: N_18  and  C_19
REMARK    8  A    between atoms: C_19  and  C_20
REMARK    9  A    between atoms: C_19  and  C_27
REMARK   10  A    between atoms: C_20  and  C_21
REMARK                            x       y       z     vdW  Elec       q    Type
REMARK                         _______ _______ _______ _____ _____    ______ ____
ROOT
ATOM      1  C   UNL     1       2.073   4.234  19.396  0.00  0.00    +0.000 C 
ATOM      2  C   UNL     1       2.734   5.160  18.379  0.00  0.00    +0.000 C 
ENDROOT
BRANCH   2   3
ATOM      3  C   UNL     1       3.991   4.419  17.880  0.00  0.00    +0.000 C 
ATOM      4  O   UNL     1       4.022   3.214  17.662  0.00  0.00    +0.000 OA
ATOM      5  N   UNL     1       5.069   5.261  17.641  0.00  0.00    +0.000 N 
ATOM      6  H   UNL     1       4.980   6.260  17.813  0.00  0.00    +0.000 HD
BRANCH   5   7
ATOM      7  C   UNL     1       6.305   4.816  16.989  0.00  0.00    +0.000 C 
BRANCH   7   8
ATOM      8  C   UNL     1       7.480   4.761  17.983  0.00  0.00    +0.000 C 
ATOM      9  N   UNL     1       7.257   5.380  19.186  0.00  0.00    +0.000 N 
ATOM     10  O   UNL     1       8.501   4.094  17.825  0.00  0.00    +0.000 OA
ATOM     11  H   UNL     1       6.323   5.646  19.461  0.00  0.00    +0.000 HD
ATOM     12  H   UNL     1       7.962   5.265  19.902  0.00  0.00    +0.000 HD
ENDBRANCH   7   8
BRANCH   7  13
ATOM     13  C   UNL     1       6.653   5.626  15.724  0.00  0.00    +0.000 C 
BRANCH  13  14
ATOM     14  C   UNL     1       6.592   4.879  14.407  0.00  0.00    +0.000 A 
ATOM     15  C   UNL     1       5.520   4.023  14.109  0.00  0.00    +0.000 A 
ATOM     16  C   UNL     1       5.438   3.385  12.870  0.00  0.00    +0.000 A 
ATOM     17  C   UNL     1       6.421   3.601  11.906  0.00  0.00    +0.000 A 
ATOM     18  C   UNL     1       7.496   4.440  12.191  0.00  0.00    +0.000 A 
ATOM     19  C   UNL     1       7.581   5.071  13.434  0.00  0.00    +0.000 A 
ENDBRANCH  13  14
ENDBRANCH   7  13
ENDBRANCH   5   7
ENDBRANCH   2   3
BRANCH   2  20
ATOM     20  O   UNL     1       3.009   6.423  18.996  0.00  0.00    +0.000 OA
BRANCH  20  21
ATOM     21  C   UNL     1       2.149   6.803  19.978  0.00  0.00    +0.000 C 
ATOM     22  O   UNL     1       1.825   6.161  20.964  0.00  0.00    +0.000 OA
BRANCH  21  23
ATOM     23  C   UNL     1       1.577   8.126  19.651  0.00  0.00    +0.000 A 
ATOM     24  C   UNL     1       0.769   8.808  20.562  0.00  0.00    +0.000 A 
ATOM     25  C   UNL     1       0.367  10.112  20.282  0.00  0.00    +0.000 A 
ATOM     26  C   UNL     1       0.751  10.751  19.091  0.00  0.00    +0.000 A 
ATOM     27  C   UNL     1       1.469  10.011  18.145  0.00  0.00    +0.000 A 
ATOM     28  C   UNL     1       1.888   8.708  18.420  0.00  0.00    +0.000 A 
BRANCH  26  29
ATOM     29  N   UNL     1       0.497  12.122  18.967  0.00  0.00    +0.000 N 
ATOM     30  C   UNL     1      -0.495  12.771  18.307  0.00  0.00    +0.000 C 
ATOM     31  N   UNL     1      -1.470  12.331  17.595  0.00  0.00    +0.000 NA
ATOM     32  N   UNL     1      -0.369  14.115  18.383  0.00  0.00    +0.000 N 
ATOM     33  H   UNL     1       1.184  12.718  19.408  0.00  0.00    +0.000 HD
ATOM     34  H   UNL     1      -1.430  11.315  17.537  0.00  0.00    +0.000 HD
ATOM     35  H   UNL     1       0.537  14.441  18.073  0.00  0.00    +0.000 HD
ATOM     36  H   UNL     1      -1.084  14.524  17.787  0.00  0.00    +0.000 HD
ENDBRANCH  26  29
ENDBRANCH  21  23
ENDBRANCH  20  21
ENDBRANCH   2  20
TORSDOF 9
ENDMDL
MODEL 9
REMARK VINA RESULT:      -7.5      4.765      6.670
REMARK  Name = 
REMARK  10 active torsions:
REMARK  status: ('A' for Active; 'I' for Inactive)
REMARK    1  A    between atoms: C_1  and  C_2
REMARK    2  A    between atoms: C_2  and  O_3
REMARK    3  A    between atoms: C_2  and  C_16
REMARK    4  A    between atoms: O_3  and  C_4
REMARK    5  A    between atoms: C_4  and  C_6
REMARK    6  A    between atoms: C_9  and  N_10
REMARK    7  A    between atoms: N_18  and  C_19
REMARK    8  A    between atoms: C_19  and  C_20
REMARK    9  A    between atoms: C_19  and  C_27
REMARK   10  A    between atoms: C_20  and  C_21
REMARK                            x       y       z     vdW  Elec       q    Type
REMARK                         _______ _______ _______ _____ _____    ______ ____
ROOT
ATOM      1  C   UNL     1       1.489   3.695  18.656  0.00  0.00    +0.000 C 
ATOM      2  C   UNL     1       2.215   4.473  17.564  0.00  0.00    +0.000 C 
ENDROOT
BRANCH   2   3
ATOM      3  C   UNL     1       3.649   3.908  17.515  0.00  0.00    +0.000 C 
ATOM      4  O   UNL     1       3.924   2.745  17.782  0.00  0.00    +0.000 OA
ATOM      5  N   UNL     1       4.591   4.830  17.079  0.00  0.00    +0.000 N 
ATOM      6  H   UNL     1       4.302   5.777  16.844  0.00  0.00    +0.000 HD
BRANCH   5   7
ATOM      7  C   UNL     1       5.980   4.474  16.775  0.00  0.00    +0.000 C 
BRANCH   7   8
ATOM      8  C   UNL     1       6.857   4.484  18.043  0.00  0.00    +0.000 C 
ATOM      9  N   UNL     1       8.198   4.300  17.827  0.00  0.00    +0.000 N 
ATOM     10  O   UNL     1       6.459   4.785  19.167  0.00  0.00    +0.000 OA
ATOM     11  H   UNL     1       8.584   4.378  16.897  0.00  0.00    +0.000 HD
ATOM     12  H   UNL     1       8.814   4.414  18.621  0.00  0.00    +0.000 HD
ENDBRANCH   7   8
BRANCH   7  13
ATOM     13  C   UNL     1       6.593   5.321  15.641  0.00  0.00    +0.000 C 
BRANCH  13  14
ATOM     14  C   UNL     1       6.602   4.695  14.261  0.00  0.00    +0.000 A 
ATOM     15  C   UNL     1       5.606   3.783  13.874  0.00  0.00    +0.000 A 
ATOM     16  C   UNL     1       5.585   3.256  12.581  0.00  0.00    +0.000 A 
ATOM     17  C   UNL     1       6.552   3.639  11.654  0.00  0.00    +0.000 A 
ATOM     18  C   UNL     1       7.551   4.534  12.028  0.00  0.00    +0.000 A 
ATOM     19  C   UNL     1       7.576   5.055  13.323  0.00  0.00    +0.000 A 
ENDBRANCH  13  14
ENDBRANCH   7  13
ENDBRANCH   5   7
ENDBRANCH   2   3
BRANCH   2  20
ATOM     20  O   UNL     1       2.151   5.874  17.858  0.00  0.00    +0.000 OA
BRANCH  20  21
ATOM     21  C   UNL     1       2.607   6.244  19.083  0.00  0.00    +0.000 C 
ATOM     22  O   UNL     1       3.318   5.593  19.833  0.00  0.00    +0.000 OA
BRANCH  21  23
ATOM     23  C   UNL     1       2.055   7.568  19.440  0.00  0.00    +0.000 A 
ATOM     24  C   UNL     1       1.913   8.573  18.483  0.00  0.00    +0.000 A 
ATOM     25  C   UNL     1       1.256   9.755  18.819  0.00  0.00    +0.000 A 
ATOM     26  C   UNL     1       0.744   9.958  20.111  0.00  0.00    +0.000 A 
ATOM     27  C   UNL     1       0.993   8.983  21.083  0.00  0.00    +0.000 A 
ATOM     28  C   UNL     1       1.639   7.790  20.754  0.00  0.00    +0.000 A 
BRANCH  26  29
ATOM     29  N   UNL     1      -0.087  11.065  20.324  0.00  0.00    +0.000 N 
ATOM     30  C   UNL     1       0.205  12.293  20.822  0.00  0.00    +0.000 C 
ATOM     31  N   UNL     1       1.305  12.792  21.259  0.00  0.00    +0.000 NA
ATOM     32  N   UNL     1      -0.890  13.081  20.918  0.00  0.00    +0.000 N 
ATOM     33  H   UNL     1      -1.061  10.907  20.105  0.00  0.00    +0.000 HD
ATOM     34  H   UNL     1       2.047  12.096  21.215  0.00  0.00    +0.000 HD
ATOM     35  H   UNL     1      -1.637  12.651  21.447  0.00  0.00    +0.000 HD
ATOM     36  H   UNL     1      -0.610  13.938  21.388  0.00  0.00    +0.000 HD
ENDBRANCH  26  29
ENDBRANCH  21  23
ENDBRANCH  20  21
ENDBRANCH   2  20
TORSDOF 9
ENDMDL
