MODEL 1
REMARK VINA RESULT:      -8.7      0.000      0.000
REMARK  Name = 
REMARK  7 active torsions:
REMARK  status: ('A' for Active; 'I' for Inactive)
REMARK    1  A    between atoms: C_1  and  C_2
REMARK    2  A    between atoms: C_5  and  C_6
REMARK    3  A    between atoms: N_11  and  C_12
REMARK    4  A    between atoms: C_19  and  O_20
REMARK    5  A    between atoms: O_20  and  C_21
REMARK    6  A    between atoms: C_21  and  C_22
REMARK    7  A    between atoms: C_24  and  C_25
REMARK                            x       y       z     vdW  Elec       q    Type
REMARK                         _______ _______ _______ _____ _____    ______ ____
ROOT
ATOM      1  C   UNL     1       3.819   0.995  18.087  0.00  0.00    +0.000 C 
ATOM      2  C   UNL     1       3.556   2.462  18.253  0.00  0.00    +0.000 A 
ATOM      3  N   UNL     1       2.438   2.923  17.658  0.00  0.00    +0.000 NA
ATOM      4  C   UNL     1       2.167   4.226  17.809  0.00  0.00    +0.000 A 
ATOM      5  C   UNL     1       2.962   5.088  18.537  0.00  0.00    +0.000 A 
ATOM      6  C   UNL     1       4.100   4.524  19.099  0.00  0.00    +0.000 A 
ATOM      7  N   UNL     1       4.421   3.216  18.980  0.00  0.00    +0.000 NA
ENDROOT
BRANCH   5   8
ATOM      8  C   UNL     1       2.626   6.517  18.623  0.00  0.00    +0.000 A 
ATOM      9  C   UNL     1       2.894   7.420  17.543  0.00  0.00    +0.000 A 
ATOM     10  C   UNL     1       2.503   8.698  17.604  0.00  0.00    +0.000 A 
ATOM     11  C   UNL     1       1.795   9.203  18.808  0.00  0.00    +0.000 A 
ATOM     12  O   UNL     1       1.481  10.390  18.819  0.00  0.00    +0.000 OA
ATOM     13  N   UNL     1       1.611   8.288  19.861  0.00  0.00    +0.000 N 
ATOM     14  C   UNL     1       2.017   6.965  19.739  0.00  0.00    +0.000 A 
BRANCH  13  15
ATOM     15  C   UNL     1       1.017   8.757  21.075  0.00  0.00    +0.000 A 
ATOM     16  C   UNL     1       1.806   9.023  22.202  0.00  0.00    +0.000 A 
ATOM     17  C   UNL     1       1.217   9.455  23.391  0.00  0.00    +0.000 A 
ATOM     18  C   UNL     1      -0.166   9.599  23.472  0.00  0.00    +0.000 A 
ATOM     19  C   UNL     1      -0.962   9.330  22.360  0.00  0.00    +0.000 A 
ATOM     20  C   UNL     1      -0.372   8.933  21.159  0.00  0.00    +0.000 A 
ENDBRANCH  13  15
ENDBRANCH   5   8
BRANCH   6  21
ATOM     21  O   UNL     1       4.866   5.371  19.900  0.00  0.00    +0.000 OA
BRANCH  21  22
ATOM     22  C   UNL     1       6.271   5.434  19.616  0.00  0.00    +0.000 C 
BRANCH  22  23
ATOM     23  C   UNL     1       6.455   6.069  18.248  0.00  0.00    +0.000 C 
ATOM     24  C   UNL     1       7.721   6.785  17.862  0.00  0.00    +0.000 C 
ATOM     25  C   UNL     1       7.397   5.506  17.142  0.00  0.00    +0.000 C 
BRANCH  25  26
ATOM     26  C   UNL     1       6.777   5.351  15.749  0.00  0.00    +0.000 A 
ATOM     27  C   UNL     1       5.451   4.938  15.742  0.00  0.00    +0.000 A 
ATOM     28  C   UNL     1       4.831   4.666  14.553  0.00  0.00    +0.000 A 
ATOM     29  C   UNL     1       5.665   4.163  13.584  0.00  0.00    +0.000 A 
ATOM     30  C   UNL     1       5.198   3.100  12.813  0.00  0.00    +0.000 A 
ATOM     31  C   UNL     1       5.952   2.650  11.747  0.00  0.00    +0.000 A 
ATOM     32  C   UNL     1       7.097   3.360  11.408  0.00  0.00    +0.000 A 
ATOM     33  C   UNL     1       7.590   4.375  12.265  0.00  0.00    +0.000 A 
ATOM     34  C   UNL     1       6.952   4.696  13.480  0.00  0.00    +0.000 A 
ATOM     35  N   UNL     1       7.479   5.382  14.563  0.00  0.00    +0.000 NA
ENDBRANCH  25  26
ENDBRANCH  22  23
ENDBRANCH  21  22
ENDBRANCH   6  21
TORSDOF 6
ENDMDL
MODEL 2
REMARK VINA RESULT:      -8.2      4.022      6.894
REMARK  Name = 
REMARK  7 active torsions:
REMARK  status: ('A' for Active; 'I' for Inactive)
REMARK    1  A    between atoms: C_1  and  C_2
REMARK    2  A    between atoms: C_5  and  C_6
REMARK    3  A    between atoms: N_11  and  C_12
REMARK    4  A    between atoms: C_19  and  O_20
REMARK    5  A    between atoms: O_20  and  C_21
REMARK    6  A    between atoms: C_21  and  C_22
REMARK    7  A    between atoms: C_24  and  C_25
REMARK                            x       y       z     vdW  Elec       q    Type
REMARK                         _______ _______ _______ _____ _____    ______ ____
ROOT
ATOM      1  C   UNL     1       8.387   5.255  13.317  0.00  0.00    +0.000 C 
ATOM      2  C   UNL     1       7.345   5.243  14.395  0.00  0.00    +0.000 A 
ATOM      3  N   UNL     1       6.313   4.399  14.197  0.00  0.00    +0.000 NA
ATOM      4  C   UNL     1       5.379   4.352  15.156  0.00  0.00    +0.000 A 
ATOM      5  C   UNL     1       5.435   5.107  16.309  0.00  0.00    +0.000 A 
ATOM      6  C   UNL     1       6.527   5.959  16.416  0.00  0.00    +0.000 A 
ATOM      7  N   UNL     1       7.500   6.045  15.480  0.00  0.00    +0.000 NA
ENDROOT
BRANCH   5   8
ATOM      8  C   UNL     1       4.349   5.036  17.298  0.00  0.00    +0.000 A 
ATOM      9  C   UNL     1       3.930   3.790  17.868  0.00  0.00    +0.000 A 
ATOM     10  C   UNL     1       3.001   3.753  18.830  0.00  0.00    +0.000 A 
ATOM     11  C   UNL     1       2.377   5.012  19.310  0.00  0.00    +0.000 A 
ATOM     12  O   UNL     1       1.512   4.916  20.176  0.00  0.00    +0.000 OA
ATOM     13  N   UNL     1       2.783   6.200  18.673  0.00  0.00    +0.000 N 
ATOM     14  C   UNL     1       3.768   6.186  17.694  0.00  0.00    +0.000 A 
BRANCH  13  15
ATOM     15  C   UNL     1       2.138   7.423  19.040  0.00  0.00    +0.000 A 
ATOM     16  C   UNL     1       1.803   7.683  20.375  0.00  0.00    +0.000 A 
ATOM     17  C   UNL     1       1.150   8.868  20.722  0.00  0.00    +0.000 A 
ATOM     18  C   UNL     1       0.803   9.787  19.735  0.00  0.00    +0.000 A 
ATOM     19  C   UNL     1       1.125   9.535  18.402  0.00  0.00    +0.000 A 
ATOM     20  C   UNL     1       1.810   8.369  18.058  0.00  0.00    +0.000 A 
ENDBRANCH  13  15
ENDBRANCH   5   8
BRANCH   6  21
ATOM     21  O   UNL     1       6.630   6.667  17.613  0.00  0.00    +0.000 OA
BRANCH  21  22
ATOM     22  C   UNL     1       7.954   6.907  18.111  0.00  0.00    +0.000 C 
BRANCH  22  23
ATOM     23  C   UNL     1       8.371   8.310  17.704  0.00  0.00    +0.000 C 
ATOM     24  C   UNL     1       7.365   9.394  17.422  0.00  0.00    +0.000 C 
ATOM     25  C   UNL     1       8.250   9.561  18.626  0.00  0.00    +0.000 C 
BRANCH  25  26
ATOM     26  C   UNL     1       9.508  10.429  18.744  0.00  0.00    +0.000 A 
ATOM     27  C   UNL     1       9.850  10.787  20.041  0.00  0.00    +0.000 A 
ATOM     28  C   UNL     1      10.894  11.647  20.255  0.00  0.00    +0.000 A 
ATOM     29  C   UNL     1      11.065  12.582  19.264  0.00  0.00    +0.000 A 
ATOM     30  C   UNL     1      11.340  13.895  19.648  0.00  0.00    +0.000 A 
ATOM     31  C   UNL     1      11.645  14.835  18.685  0.00  0.00    +0.000 A 
ATOM     32  C   UNL     1      11.788  14.407  17.371  0.00  0.00    +0.000 A 
ATOM     33  C   UNL     1      11.413  13.092  17.002  0.00  0.00    +0.000 A 
ATOM     34  C   UNL     1      10.883  12.180  17.938  0.00  0.00    +0.000 A 
ATOM     35  N   UNL     1      10.160  11.025  17.686  0.00  0.00    +0.000 NA
ENDBRANCH  25  26
ENDBRANCH  22  23
ENDBRANCH  21  22
ENDBRANCH   6  21
TORSDOF 6
ENDMDL
MODEL 3
REMARK VINA RESULT:      -8.1      4.582      8.469
REMARK  Name = 
REMARK  7 active torsions:
REMARK  status: ('A' for Active; 'I' for Inactive)
REMARK    1  A    between atoms: C_1  and  C_2
REMARK    2  A    between atoms: C_5  and  C_6
REMARK    3  A    between atoms: N_11  and  C_12
REMARK    4  A    between atoms: C_19  and  O_20
REMARK    5  A    between atoms: O_20  and  C_21
REMARK    6  A    between atoms: C_21  and  C_22
REMARK    7  A    between atoms: C_24  and  C_25
REMARK                            x       y       z     vdW  Elec       q    Type
REMARK                         _______ _______ _______ _____ _____    ______ ____
ROOT
ATOM      1  C   UNL     1       3.589  14.743  18.456  0.00  0.00    +0.000 C 
ATOM      2  C   UNL     1       2.345  14.264  19.142  0.00  0.00    +0.000 A 
ATOM      3  N   UNL     1       1.748  15.159  19.954  0.00  0.00    +0.000 NA
ATOM      4  C   UNL     1       0.622  14.766  20.562  0.00  0.00    +0.000 A 
ATOM      5  C   UNL     1       0.061  13.517  20.389  0.00  0.00    +0.000 A 
ATOM      6  C   UNL     1       0.756  12.659  19.546  0.00  0.00    +0.000 A 
ATOM      7  N   UNL     1       1.896  13.005  18.905  0.00  0.00    +0.000 NA
ENDROOT
BRANCH   5   8
ATOM      8  C   UNL     1      -1.155  13.138  21.125  0.00  0.00    +0.000 A 
ATOM      9  C   UNL     1      -1.094  12.594  22.449  0.00  0.00    +0.000 A 
ATOM     10  C   UNL     1      -2.212  12.336  23.137  0.00  0.00    +0.000 A 
ATOM     11  C   UNL     1      -3.539  12.598  22.525  0.00  0.00    +0.000 A 
ATOM     12  O   UNL     1      -4.531  12.320  23.193  0.00  0.00    +0.000 OA
ATOM     13  N   UNL     1      -3.540  13.077  21.201  0.00  0.00    +0.000 N 
ATOM     14  C   UNL     1      -2.350  13.349  20.538  0.00  0.00    +0.000 A 
BRANCH  13  15
ATOM     15  C   UNL     1      -4.797  13.254  20.541  0.00  0.00    +0.000 A 
ATOM     16  C   UNL     1      -5.412  12.185  19.876  0.00  0.00    +0.000 A 
ATOM     17  C   UNL     1      -6.626  12.372  19.212  0.00  0.00    +0.000 A 
ATOM     18  C   UNL     1      -7.219  13.631  19.183  0.00  0.00    +0.000 A 
ATOM     19  C   UNL     1      -6.612  14.704  19.835  0.00  0.00    +0.000 A 
ATOM     20  C   UNL     1      -5.417  14.511  20.531  0.00  0.00    +0.000 A 
ENDBRANCH  13  15
ENDBRANCH   5   8
BRANCH   6  21
ATOM     21  O   UNL     1       0.155  11.424  19.306  0.00  0.00    +0.000 OA
BRANCH  21  22
ATOM     22  C   UNL     1       0.613  10.317  20.094  0.00  0.00    +0.000 C 
BRANCH  22  23
ATOM     23  C   UNL     1       0.898   9.152  19.162  0.00  0.00    +0.000 C 
ATOM     24  C   UNL     1       1.446   9.352  17.774  0.00  0.00    +0.000 C 
ATOM     25  C   UNL     1       2.329   8.667  18.779  0.00  0.00    +0.000 C 
BRANCH  25  26
ATOM     26  C   UNL     1       2.587   7.163  18.922  0.00  0.00    +0.000 A 
ATOM     27  C   UNL     1       3.003   6.529  17.759  0.00  0.00    +0.000 A 
ATOM     28  C   UNL     1       3.160   5.169  17.746  0.00  0.00    +0.000 A 
ATOM     29  C   UNL     1       2.294   4.494  18.571  0.00  0.00    +0.000 A 
ATOM     30  C   UNL     1       1.703   3.330  18.080  0.00  0.00    +0.000 A 
ATOM     31  C   UNL     1       0.928   2.555  18.920  0.00  0.00    +0.000 A 
ATOM     32  C   UNL     1       0.867   2.902  20.264  0.00  0.00    +0.000 A 
ATOM     33  C   UNL     1       1.400   4.137  20.708  0.00  0.00    +0.000 A 
ATOM     34  C   UNL     1       2.001   5.051  19.818  0.00  0.00    +0.000 A 
ATOM     35  N   UNL     1       2.239   6.401  20.017  0.00  0.00    +0.000 NA
ENDBRANCH  25  26
ENDBRANCH  22  23
ENDBRANCH  21  22
ENDBRANCH   6  21
TORSDOF 6
ENDMDL
MODEL 4
REMARK VINA RESULT:      -8.1      2.667      8.908
REMARK  Name = 
REMARK  7 active torsions:
REMARK  status: ('A' for Active; 'I' for Inactive)
REMARK    1  A    between atoms: C_1  and  C_2
REMARK    2  A    between atoms: C_5  and  C_6
REMARK    3  A    between atoms: N_11  and  C_12
REMARK    4  A    between atoms: C_19  and  O_20
REMARK    5  A    between atoms: O_20  and  C_21
REMARK    6  A    between atoms: C_21  and  C_22
REMARK    7  A    between atoms: C_24  and  C_25
REMARK                            x       y       z     vdW  Elec       q    Type
REMARK                         _______ _______ _______ _____ _____    ______ ____
ROOT
ATOM      1  C   UNL     1       1.504   2.561  21.519  0.00  0.00    +0.000 C 
ATOM      2  C   UNL     1       2.424   3.138  20.485  0.00  0.00    +0.000 A 
ATOM      3  N   UNL     1       3.646   2.573  20.416  0.00  0.00    +0.000 NA
ATOM      4  C   UNL     1       4.481   3.054  19.486  0.00  0.00    +0.000 A 
ATOM      5  C   UNL     1       4.146   4.072  18.616  0.00  0.00    +0.000 A 
ATOM      6  C   UNL     1       2.871   4.601  18.775  0.00  0.00    +0.000 A 
ATOM      7  N   UNL     1       1.988   4.152  19.695  0.00  0.00    +0.000 NA
ENDROOT
BRANCH   5   8
ATOM      8  C   UNL     1       5.131   4.579  17.649  0.00  0.00    +0.000 A 
ATOM      9  C   UNL     1       6.167   5.490  18.037  0.00  0.00    +0.000 A 
ATOM     10  C   UNL     1       7.106   5.873  17.166  0.00  0.00    +0.000 A 
ATOM     11  C   UNL     1       7.075   5.368  15.769  0.00  0.00    +0.000 A 
ATOM     12  O   UNL     1       7.948   5.773  15.006  0.00  0.00    +0.000 OA
ATOM     13  N   UNL     1       6.002   4.524  15.428  0.00  0.00    +0.000 N 
ATOM     14  C   UNL     1       5.065   4.138  16.377  0.00  0.00    +0.000 A 
BRANCH  13  15
ATOM     15  C   UNL     1       5.883   4.090  14.070  0.00  0.00    +0.000 A 
ATOM     16  C   UNL     1       4.634   3.745  13.536  0.00  0.00    +0.000 A 
ATOM     17  C   UNL     1       4.529   3.297  12.218  0.00  0.00    +0.000 A 
ATOM     18  C   UNL     1       5.672   3.164  11.433  0.00  0.00    +0.000 A 
ATOM     19  C   UNL     1       6.920   3.497  11.956  0.00  0.00    +0.000 A 
ATOM     20  C   UNL     1       7.024   3.980  13.261  0.00  0.00    +0.000 A 
ENDBRANCH  13  15
ENDBRANCH   5   8
BRANCH   6  21
ATOM     21  O   UNL     1       2.499   5.576  17.850  0.00  0.00    +0.000 OA
BRANCH  21  22
ATOM     22  C   UNL     1       2.936   6.917  18.112  0.00  0.00    +0.000 C 
BRANCH  22  23
ATOM     23  C   UNL     1       1.771   7.692  18.703  0.00  0.00    +0.000 C 
ATOM     24  C   UNL     1       1.713   8.062  20.161  0.00  0.00    +0.000 C 
ATOM     25  C   UNL     1       1.854   9.179  19.164  0.00  0.00    +0.000 C 
BRANCH  25  26
ATOM     26  C   UNL     1       0.751  10.105  18.640  0.00  0.00    +0.000 A 
ATOM     27  C   UNL     1       0.640  11.317  19.308  0.00  0.00    +0.000 A 
ATOM     28  C   UNL     1      -0.379  12.175  18.992  0.00  0.00    +0.000 A 
ATOM     29  C   UNL     1      -1.537  11.553  18.594  0.00  0.00    +0.000 A 
ATOM     30  C   UNL     1      -2.744  12.047  19.088  0.00  0.00    +0.000 A 
ATOM     31  C   UNL     1      -3.934  11.533  18.614  0.00  0.00    +0.000 A 
ATOM     32  C   UNL     1      -3.885  10.623  17.565  0.00  0.00    +0.000 A 
ATOM     33  C   UNL     1      -2.646  10.075  17.151  0.00  0.00    +0.000 A 
ATOM     34  C   UNL     1      -1.432  10.422  17.779  0.00  0.00    +0.000 A 
ATOM     35  N   UNL     1      -0.228   9.739  17.740  0.00  0.00    +0.000 NA
ENDBRANCH  25  26
ENDBRANCH  22  23
ENDBRANCH  21  22
ENDBRANCH   6  21
TORSDOF 6
ENDMDL
MODEL 5
REMARK VINA RESULT:      -8.1      2.762      8.825
REMARK  Name = 
REMARK  7 active torsions:
REMARK  status: ('A' for Active; 'I' for Inactive)
REMARK    1  A    between atoms: C_1  and  C_2
REMARK    2  A    between atoms: C_5  and  C_6
REMARK    3  A    between atoms: N_11  and  C_12
REMARK    4  A    between atoms: C_19  and  O_20
REMARK    5  A    between atoms: O_20  and  C_21
REMARK    6  A    between atoms: C_21  and  C_22
REMARK    7  A    between atoms: C_24  and  C_25
REMARK                            x       y       z     vdW  Elec       q    Type
REMARK                         _______ _______ _______ _____ _____    ______ ____
ROOT
ATOM      1  C   UNL     1       1.468   2.543  21.729  0.00  0.00    +0.000 C 
ATOM      2  C   UNL     1       2.372   3.185  20.720  0.00  0.00    +0.000 A 
ATOM      3  N   UNL     1       3.467   2.474  20.385  0.00  0.00    +0.000 NA
ATOM      4  C   UNL     1       4.281   3.014  19.468  0.00  0.00    +0.000 A 
ATOM      5  C   UNL     1       4.043   4.232  18.865  0.00  0.00    +0.000 A 
ATOM      6  C   UNL     1       2.899   4.897  19.287  0.00  0.00    +0.000 A 
ATOM      7  N   UNL     1       2.043   4.398  20.206  0.00  0.00    +0.000 NA
ENDROOT
BRANCH   5   8
ATOM      8  C   UNL     1       5.005   4.783  17.898  0.00  0.00    +0.000 A 
ATOM      9  C   UNL     1       5.938   5.808  18.265  0.00  0.00    +0.000 A 
ATOM     10  C   UNL     1       6.862   6.236  17.399  0.00  0.00    +0.000 A 
ATOM     11  C   UNL     1       6.922   5.661  16.030  0.00  0.00    +0.000 A 
ATOM     12  O   UNL     1       7.775   6.110  15.269  0.00  0.00    +0.000 OA
ATOM     13  N   UNL     1       5.945   4.703  15.706  0.00  0.00    +0.000 N 
ATOM     14  C   UNL     1       5.019   4.276  16.650  0.00  0.00    +0.000 A 
BRANCH  13  15
ATOM     15  C   UNL     1       5.908   4.193  14.370  0.00  0.00    +0.000 A 
ATOM     16  C   UNL     1       7.093   3.973  13.655  0.00  0.00    +0.000 A 
ATOM     17  C   UNL     1       7.049   3.501  12.342  0.00  0.00    +0.000 A 
ATOM     18  C   UNL     1       5.822   3.271  11.724  0.00  0.00    +0.000 A 
ATOM     19  C   UNL     1       4.636   3.493  12.423  0.00  0.00    +0.000 A 
ATOM     20  C   UNL     1       4.679   3.930  13.748  0.00  0.00    +0.000 A 
ENDBRANCH  13  15
ENDBRANCH   5   8
BRANCH   6  21
ATOM     21  O   UNL     1       2.613   6.091  18.626  0.00  0.00    +0.000 OA
BRANCH  21  22
ATOM     22  C   UNL     1       2.800   7.303  19.371  0.00  0.00    +0.000 C 
BRANCH  22  23
ATOM     23  C   UNL     1       1.438   7.929  19.616  0.00  0.00    +0.000 C 
ATOM     24  C   UNL     1       0.914   8.188  21.003  0.00  0.00    +0.000 C 
ATOM     25  C   UNL     1       1.223   9.380  20.141  0.00  0.00    +0.000 C 
BRANCH  25  26
ATOM     26  C   UNL     1       0.232  10.239  19.348  0.00  0.00    +0.000 A 
ATOM     27  C   UNL     1      -0.396  11.236  20.083  0.00  0.00    +0.000 A 
ATOM     28  C   UNL     1      -1.377  11.993  19.502  0.00  0.00    +0.000 A 
ATOM     29  C   UNL     1      -2.121  11.324  18.560  0.00  0.00    +0.000 A 
ATOM     30  C   UNL     1      -3.502  11.516  18.566  0.00  0.00    +0.000 A 
ATOM     31  C   UNL     1      -4.270  10.965  17.559  0.00  0.00    +0.000 A 
ATOM     32  C   UNL     1      -3.617  10.340  16.504  0.00  0.00    +0.000 A 
ATOM     33  C   UNL     1      -2.226  10.082  16.575  0.00  0.00    +0.000 A 
ATOM     34  C   UNL     1      -1.460  10.439  17.704  0.00  0.00    +0.000 A 
ATOM     35  N   UNL     1      -0.215   9.959  18.074  0.00  0.00    +0.000 NA
ENDBRANCH  25  26
ENDBRANCH  22  23
ENDBRANCH  21  22
ENDBRANCH   6  21
TORSDOF 6
ENDMDL
MODEL 6
REMARK VINA RESULT:      -7.9      1.944      9.107
REMARK  Name = 
REMARK  7 active torsions:
REMARK  status: ('A' for Active; 'I' for Inactive)
REMARK    1  A    between atoms: C_1  and  C_2
REMARK    2  A    between atoms: C_5  and  C_6
REMARK    3  A    between atoms: N_11  and  C_12
REMARK    4  A    between atoms: C_19  and  O_20
REMARK    5  A    between atoms: O_20  and  C_21
REMARK    6  A    between atoms: C_21  and  C_22
REMARK    7  A    between atoms: C_24  and  C_25
REMARK                            x       y       z     vdW  Elec       q    Type
REMARK                         _______ _______ _______ _____ _____    ______ ____
ROOT
ATOM      1  C   UNL     1       1.709   2.345  21.562  0.00  0.00    +0.000 C 
ATOM      2  C   UNL     1       2.591   2.934  20.501  0.00  0.00    +0.000 A 
ATOM      3  N   UNL     1       3.902   2.642  20.609  0.00  0.00    +0.000 NA
ATOM      4  C   UNL     1       4.711   3.136  19.662  0.00  0.00    +0.000 A 
ATOM      5  C   UNL     1       4.264   3.904  18.607  0.00  0.00    +0.000 A 
ATOM      6  C   UNL     1       2.899   4.165  18.590  0.00  0.00    +0.000 A 
ATOM      7  N   UNL     1       2.038   3.690  19.518  0.00  0.00    +0.000 NA
ENDROOT
BRANCH   5   8
ATOM      8  C   UNL     1       5.216   4.450  17.628  0.00  0.00    +0.000 A 
ATOM      9  C   UNL     1       6.233   5.385  18.008  0.00  0.00    +0.000 A 
ATOM     10  C   UNL     1       7.145   5.805  17.125  0.00  0.00    +0.000 A 
ATOM     11  C   UNL     1       7.103   5.315  15.723  0.00  0.00    +0.000 A 
ATOM     12  O   UNL     1       7.950   5.752  14.949  0.00  0.00    +0.000 OA
ATOM     13  N   UNL     1       6.048   4.445  15.391  0.00  0.00    +0.000 N 
ATOM     14  C   UNL     1       5.139   4.022  16.352  0.00  0.00    +0.000 A 
BRANCH  13  15
ATOM     15  C   UNL     1       5.916   4.023  14.030  0.00  0.00    +0.000 A 
ATOM     16  C   UNL     1       4.657   3.725  13.492  0.00  0.00    +0.000 A 
ATOM     17  C   UNL     1       4.538   3.289  12.172  0.00  0.00    +0.000 A 
ATOM     18  C   UNL     1       5.677   3.120  11.388  0.00  0.00    +0.000 A 
ATOM     19  C   UNL     1       6.935   3.405  11.915  0.00  0.00    +0.000 A 
ATOM     20  C   UNL     1       7.054   3.877  13.223  0.00  0.00    +0.000 A 
ENDBRANCH  13  15
ENDBRANCH   5   8
BRANCH   6  21
ATOM     21  O   UNL     1       2.431   4.875  17.485  0.00  0.00    +0.000 OA
BRANCH  21  22
ATOM     22  C   UNL     1       1.437   5.879  17.736  0.00  0.00    +0.000 C 
BRANCH  22  23
ATOM     23  C   UNL     1       2.099   7.032  18.473  0.00  0.00    +0.000 C 
ATOM     24  C   UNL     1       2.907   8.080  17.758  0.00  0.00    +0.000 C 
ATOM     25  C   UNL     1       1.616   8.512  18.395  0.00  0.00    +0.000 C 
BRANCH  25  26
ATOM     26  C   UNL     1       1.433   9.227  19.738  0.00  0.00    +0.000 A 
ATOM     27  C   UNL     1       1.419   8.393  20.848  0.00  0.00    +0.000 A 
ATOM     28  C   UNL     1       1.156   8.914  22.086  0.00  0.00    +0.000 A 
ATOM     29  C   UNL     1       0.294   9.983  22.076  0.00  0.00    +0.000 A 
ATOM     30  C   UNL     1      -0.698  10.027  23.055  0.00  0.00    +0.000 A 
ATOM     31  C   UNL     1      -1.502  11.145  23.159  0.00  0.00    +0.000 A 
ATOM     32  C   UNL     1      -1.209  12.240  22.356  0.00  0.00    +0.000 A 
ATOM     33  C   UNL     1      -0.259  12.129  21.312  0.00  0.00    +0.000 A 
ATOM     34  C   UNL     1       0.415  10.919  21.046  0.00  0.00    +0.000 A 
ATOM     35  N   UNL     1       1.079  10.552  19.887  0.00  0.00    +0.000 NA
ENDBRANCH  25  26
ENDBRANCH  22  23
ENDBRANCH  21  22
ENDBRANCH   6  21
TORSDOF 6
ENDMDL
MODEL 7
REMARK VINA RESULT:      -7.9      3.668     10.721
REMARK  Name = 
REMARK  7 active torsions:
REMARK  status: ('A' for Active; 'I' for Inactive)
REMARK    1  A    between atoms: C_1  and  C_2
REMARK    2  A    between atoms: C_5  and  C_6
REMARK    3  A    between atoms: N_11  and  C_12
REMARK    4  A    between atoms: C_19  and  O_20
REMARK    5  A    between atoms: O_20  and  C_21
REMARK    6  A    between atoms: C_21  and  C_22
REMARK    7  A    between atoms: C_24  and  C_25
REMARK                            x       y       z     vdW  Elec       q    Type
REMARK                         _______ _______ _______ _____ _____    ______ ____
ROOT
ATOM      1  C   UNL     1      -0.962  10.640  23.041  0.00  0.00    +0.000 C 
ATOM      2  C   UNL     1      -0.167   9.961  21.966  0.00  0.00    +0.000 A 
ATOM      3  N   UNL     1       0.604   8.933  22.376  0.00  0.00    +0.000 NA
ATOM      4  C   UNL     1       1.308   8.294  21.433  0.00  0.00    +0.000 A 
ATOM      5  C   UNL     1       1.270   8.631  20.096  0.00  0.00    +0.000 A 
ATOM      6  C   UNL     1       0.459   9.713  19.774  0.00  0.00    +0.000 A 
ATOM      7  N   UNL     1      -0.274  10.393  20.684  0.00  0.00    +0.000 NA
ENDROOT
BRANCH   5   8
ATOM      8  C   UNL     1       2.105   7.912  19.122  0.00  0.00    +0.000 A 
ATOM      9  C   UNL     1       2.801   8.598  18.075  0.00  0.00    +0.000 A 
ATOM     10  C   UNL     1       3.625   7.940  17.253  0.00  0.00    +0.000 A 
ATOM     11  C   UNL     1       3.816   6.475  17.407  0.00  0.00    +0.000 A 
ATOM     12  O   UNL     1       4.564   5.918  16.608  0.00  0.00    +0.000 OA
ATOM     13  N   UNL     1       3.062   5.843  18.413  0.00  0.00    +0.000 N 
ATOM     14  C   UNL     1       2.236   6.577  19.255  0.00  0.00    +0.000 A 
BRANCH  13  15
ATOM     15  C   UNL     1       3.144   4.420  18.534  0.00  0.00    +0.000 A 
ATOM     16  C   UNL     1       4.023   3.830  19.452  0.00  0.00    +0.000 A 
ATOM     17  C   UNL     1       4.117   2.440  19.547  0.00  0.00    +0.000 A 
ATOM     18  C   UNL     1       3.357   1.631  18.706  0.00  0.00    +0.000 A 
ATOM     19  C   UNL     1       2.486   2.207  17.783  0.00  0.00    +0.000 A 
ATOM     20  C   UNL     1       2.362   3.596  17.713  0.00  0.00    +0.000 A 
ENDBRANCH  13  15
ENDBRANCH   5   8
BRANCH   6  21
ATOM     21  O   UNL     1       0.356  10.010  18.415  0.00  0.00    +0.000 OA
BRANCH  21  22
ATOM     22  C   UNL     1      -0.881   9.675  17.771  0.00  0.00    +0.000 C 
BRANCH  22  23
ATOM     23  C   UNL     1      -1.765  10.911  17.761  0.00  0.00    +0.000 C 
ATOM     24  C   UNL     1      -2.754  11.179  16.660  0.00  0.00    +0.000 C 
ATOM     25  C   UNL     1      -3.300  10.892  18.030  0.00  0.00    +0.000 C 
BRANCH  25  26
ATOM     26  C   UNL     1      -3.812  11.904  19.061  0.00  0.00    +0.000 A 
ATOM     27  C   UNL     1      -2.823  12.518  19.818  0.00  0.00    +0.000 A 
ATOM     28  C   UNL     1      -3.174  13.360  20.839  0.00  0.00    +0.000 A 
ATOM     29  C   UNL     1      -4.348  13.025  21.467  0.00  0.00    +0.000 A 
ATOM     30  C   UNL     1      -4.385  13.099  22.859  0.00  0.00    +0.000 A 
ATOM     31  C   UNL     1      -5.580  12.895  23.520  0.00  0.00    +0.000 A 
ATOM     32  C   UNL     1      -6.732  12.743  22.759  0.00  0.00    +0.000 A 
ATOM     33  C   UNL     1      -6.647  12.580  21.355  0.00  0.00    +0.000 A 
ATOM     34  C   UNL     1      -5.407  12.560  20.683  0.00  0.00    +0.000 A 
ATOM     35  N   UNL     1      -5.134  12.072  19.416  0.00  0.00    +0.000 NA
ENDBRANCH  25  26
ENDBRANCH  22  23
ENDBRANCH  21  22
ENDBRANCH   6  21
TORSDOF 6
ENDMDL
MODEL 8
REMARK VINA RESULT:      -7.9      2.649      8.995
REMARK  Name = 
REMARK  7 active torsions:
REMARK  status: ('A' for Active; 'I' for Inactive)
REMARK    1  A    between atoms: C_1  and  C_2
REMARK    2  A    between atoms: C_5  and  C_6
REMARK    3  A    between atoms: N_11  and  C_12
REMARK    4  A    between atoms: C_19  and  O_20
REMARK    5  A    between atoms: O_20  and  C_21
REMARK    6  A    between atoms: C_21  and  C_22
REMARK    7  A    between atoms: C_24  and  C_25
REMARK                            x       y       z     vdW  Elec       q    Type
REMARK                         _______ _______ _______ _____ _____    ______ ____
ROOT
ATOM      1  C   UNL     1       1.453   2.462  21.734  0.00  0.00    +0.000 C 
ATOM      2  C   UNL     1       2.411   3.165  20.819  0.00  0.00    +0.000 A 
ATOM      3  N   UNL     1       3.297   2.372  20.184  0.00  0.00    +0.000 NA
ATOM      4  C   UNL     1       4.150   2.972  19.344  0.00  0.00    +0.000 A 
ATOM      5  C   UNL     1       4.152   4.331  19.104  0.00  0.00    +0.000 A 
ATOM      6  C   UNL     1       3.213   5.067  19.817  0.00  0.00    +0.000 A 
ATOM      7  N   UNL     1       2.328   4.513  20.676  0.00  0.00    +0.000 NA
ENDROOT
BRANCH   5   8
ATOM      8  C   UNL     1       5.148   4.926  18.201  0.00  0.00    +0.000 A 
ATOM      9  C   UNL     1       6.093   5.902  18.660  0.00  0.00    +0.000 A 
ATOM     10  C   UNL     1       7.047   6.367  17.847  0.00  0.00    +0.000 A 
ATOM     11  C   UNL     1       7.129   5.888  16.444  0.00  0.00    +0.000 A 
ATOM     12  O   UNL     1       8.010   6.368  15.736  0.00  0.00    +0.000 OA
ATOM     13  N   UNL     1       6.141   4.975  16.031  0.00  0.00    +0.000 N 
ATOM     14  C   UNL     1       5.184   4.506  16.921  0.00  0.00    +0.000 A 
BRANCH  13  15
ATOM     15  C   UNL     1       6.127   4.560  14.662  0.00  0.00    +0.000 A 
ATOM     16  C   UNL     1       4.990   3.957  14.109  0.00  0.00    +0.000 A 
ATOM     17  C   UNL     1       4.992   3.530  12.780  0.00  0.00    +0.000 A 
ATOM     18  C   UNL     1       6.139   3.675  12.003  0.00  0.00    +0.000 A 
ATOM     19  C   UNL     1       7.279   4.266  12.545  0.00  0.00    +0.000 A 
ATOM     20  C   UNL     1       7.266   4.728  13.862  0.00  0.00    +0.000 A 
ENDBRANCH  13  15
ENDBRANCH   5   8
BRANCH   6  21
ATOM     21  O   UNL     1       3.158   6.429  19.522  0.00  0.00    +0.000 OA
BRANCH  21  22
ATOM     22  C   UNL     1       1.978   7.133  19.934  0.00  0.00    +0.000 C 
BRANCH  22  23
ATOM     23  C   UNL     1       1.933   8.461  19.197  0.00  0.00    +0.000 C 
ATOM     24  C   UNL     1       2.540   8.641  17.832  0.00  0.00    +0.000 C 
ATOM     25  C   UNL     1       1.044   8.739  17.948  0.00  0.00    +0.000 C 
BRANCH  25  26
ATOM     26  C   UNL     1       0.195  10.014  18.000  0.00  0.00    +0.000 A 
ATOM     27  C   UNL     1       0.762  11.065  18.708  0.00  0.00    +0.000 A 
ATOM     28  C   UNL     1       0.045  12.213  18.908  0.00  0.00    +0.000 A 
ATOM     29  C   UNL     1      -1.310  12.020  19.022  0.00  0.00    +0.000 A 
ATOM     30  C   UNL     1      -1.987  12.727  20.015  0.00  0.00    +0.000 A 
ATOM     31  C   UNL     1      -3.364  12.659  20.080  0.00  0.00    +0.000 A 
ATOM     32  C   UNL     1      -4.036  11.980  19.071  0.00  0.00    +0.000 A 
ATOM     33  C   UNL     1      -3.317  11.198  18.134  0.00  0.00    +0.000 A 
ATOM     34  C   UNL     1      -1.914  11.074  18.189  0.00  0.00    +0.000 A 
ATOM     35  N   UNL     1      -1.121  10.104  17.597  0.00  0.00    +0.000 NA
ENDBRANCH  25  26
ENDBRANCH  22  23
ENDBRANCH  21  22
ENDBRANCH   6  21
TORSDOF 6
ENDMDL
MODEL 9
REMARK VINA RESULT:      -7.9      4.149     11.141
REMARK  Name = 
REMARK  7 active torsions:
REMARK  status: ('A' for Active; 'I' for Inactive)
REMARK    1  A    between atoms: C_1  and  C_2
REMARK    2  A    between atoms: C_5  and  C_6
REMARK    3  A    between atoms: N_11  and  C_12
REMARK    4  A    between atoms: C_19  and  O_20
REMARK    5  A    between atoms: O_20  and  C_21
REMARK    6  A    between atoms: C_21  and  C_22
REMARK    7  A    between atoms: C_24  and  C_25
REMARK                            x       y       z     vdW  Elec       q    Type
REMARK                         _______ _______ _______ _____ _____    ______ ____
ROOT
ATOM      1  C   UNL     1      -1.263  12.078  23.027  0.00  0.00    +0.000 C 
ATOM      2  C   UNL     1      -0.546  11.186  22.059  0.00  0.00    +0.000 A 
ATOM      3  N   UNL     1       0.226  10.230  22.611  0.00  0.00    +0.000 NA
ATOM      4  C   UNL     1       0.861   9.405  21.769  0.00  0.00    +0.000 A 
ATOM      5  C   UNL     1       0.752   9.489  20.396  0.00  0.00    +0.000 A 
ATOM      6  C   UNL     1      -0.054  10.516  19.921  0.00  0.00    +0.000 A 
ATOM      7  N   UNL     1      -0.719  11.375  20.725  0.00  0.00    +0.000 NA
ENDROOT
BRANCH   5   8
ATOM      8  C   UNL     1       1.514   8.576  19.531  0.00  0.00    +0.000 A 
ATOM      9  C   UNL     1       2.303   9.058  18.436  0.00  0.00    +0.000 A 
ATOM     10  C   UNL     1       3.059   8.223  17.715  0.00  0.00    +0.000 A 
ATOM     11  C   UNL     1       3.076   6.772  18.033  0.00  0.00    +0.000 A 
ATOM     12  O   UNL     1       3.768   6.049  17.321  0.00  0.00    +0.000 OA
ATOM     13  N   UNL     1       2.237   6.346  19.079  0.00  0.00    +0.000 N 
ATOM     14  C   UNL     1       1.488   7.257  19.812  0.00  0.00    +0.000 A 
BRANCH  13  15
ATOM     15  C   UNL     1       2.152   4.945  19.356  0.00  0.00    +0.000 A 
ATOM     16  C   UNL     1       1.428   4.091  18.514  0.00  0.00    +0.000 A 
ATOM     17  C   UNL     1       1.328   2.730  18.805  0.00  0.00    +0.000 A 
ATOM     18  C   UNL     1       1.925   2.216  19.954  0.00  0.00    +0.000 A 
ATOM     19  C   UNL     1       2.641   3.058  20.803  0.00  0.00    +0.000 A 
ATOM     20  C   UNL     1       2.774   4.413  20.495  0.00  0.00    +0.000 A 
ENDBRANCH  13  15
ENDBRANCH   5   8
BRANCH   6  21
ATOM     21  O   UNL     1      -0.230  10.558  18.538  0.00  0.00    +0.000 OA
BRANCH  21  22
ATOM     22  C   UNL     1      -1.459  10.025  18.026  0.00  0.00    +0.000 C 
BRANCH  22  23
ATOM     23  C   UNL     1      -2.482  11.148  17.974  0.00  0.00    +0.000 C 
ATOM     24  C   UNL     1      -3.444  11.302  16.827  0.00  0.00    +0.000 C 
ATOM     25  C   UNL     1      -4.015  10.945  18.171  0.00  0.00    +0.000 C 
BRANCH  25  26
ATOM     26  C   UNL     1      -4.691  11.884  19.176  0.00  0.00    +0.000 A 
ATOM     27  C   UNL     1      -3.818  12.626  19.961  0.00  0.00    +0.000 A 
ATOM     28  C   UNL     1      -4.311  13.417  20.963  0.00  0.00    +0.000 A 
ATOM     29  C   UNL     1      -5.452  12.932  21.554  0.00  0.00    +0.000 A 
ATOM     30  C   UNL     1      -5.546  13.005  22.944  0.00  0.00    +0.000 A 
ATOM     31  C   UNL     1      -6.725  12.647  23.565  0.00  0.00    +0.000 A 
ATOM     32  C   UNL     1      -7.821  12.341  22.768  0.00  0.00    +0.000 A 
ATOM     33  C   UNL     1      -7.667  12.187  21.369  0.00  0.00    +0.000 A 
ATOM     34  C   UNL     1      -6.413  12.329  20.739  0.00  0.00    +0.000 A 
ATOM     35  N   UNL     1      -6.035  11.876  19.485  0.00  0.00    +0.000 NA
ENDBRANCH  25  26
ENDBRANCH  22  23
ENDBRANCH  21  22
ENDBRANCH   6  21
TORSDOF 6
ENDMDL
