MODEL 1
REMARK VINA RESULT:      -7.6      0.000      0.000
REMARK  Name = 
REMARK  6 active torsions:
REMARK  status: ('A' for Active; 'I' for Inactive)
REMARK    1  A    between atoms: C_1  and  C_2
REMARK    2  A    between atoms: C_4  and  O_5
REMARK    3  A    between atoms: C_13  and  O_14
REMARK    4  A    between atoms: C_15  and  C_16
REMARK    5  A    between atoms: C_16  and  N_17
REMARK    6  A    between atoms: C_23  and  O_24
REMARK                            x       y       z     vdW  Elec       q    Type
REMARK                         _______ _______ _______ _____ _____    ______ ____
ROOT
ATOM      1  C   UNL     1      -2.500  13.629  21.674  0.00  0.00    +0.000 C 
ATOM      2  C   UNL     1      -1.532  12.763  20.923  0.00  0.00    +0.000 A 
ATOM      3  C   UNL     1      -0.936  13.211  19.743  0.00  0.00    +0.000 A 
ATOM      4  C   UNL     1      -0.042  12.392  19.048  0.00  0.00    +0.000 A 
ATOM      5  C   UNL     1       0.279  11.107  19.522  0.00  0.00    +0.000 A 
ATOM      6  C   UNL     1      -0.313  10.662  20.707  0.00  0.00    +0.000 A 
ATOM      7  C   UNL     1      -1.217  11.486  21.401  0.00  0.00    +0.000 A 
ATOM      8  C   UNL     1       0.011   9.332  21.265  0.00  0.00    +0.000 C 
ATOM      9  O   UNL     1      -0.488   8.965  22.326  0.00  0.00    +0.000 OA
ATOM     10  C   UNL     1       0.939   8.449  20.541  0.00  0.00    +0.000 A 
ATOM     11  C   UNL     1       1.275   7.201  21.090  0.00  0.00    +0.000 A 
ATOM     12  C   UNL     1       2.198   6.376  20.448  0.00  0.00    +0.000 A 
ATOM     13  C   UNL     1       2.778   6.756  19.236  0.00  0.00    +0.000 A 
ATOM     14  C   UNL     1       2.311   7.949  18.639  0.00  0.00    +0.000 A 
ATOM     15  C   UNL     1       1.473   8.845  19.320  0.00  0.00    +0.000 A 
ATOM     16  C   UNL     1       1.256  10.233  18.829  0.00  0.00    +0.000 C 
ATOM     17  O   UNL     1       1.949  10.682  17.925  0.00  0.00    +0.000 OA
ENDROOT
BRANCH   4  18
ATOM     18  O   UNL     1       0.498  12.872  17.889  0.00  0.00    +0.000 OA
ATOM     19  H   UNL     1       1.449  12.693  17.847  0.00  0.00    +0.000 HD
ENDBRANCH   4  18
BRANCH  12  20
ATOM     20  O   UNL     1       2.540   5.174  20.997  0.00  0.00    +0.000 OA
ATOM     21  H   UNL     1       3.307   4.809  20.524  0.00  0.00    +0.000 HD
ENDBRANCH  12  20
BRANCH  14  22
ATOM     22  O   UNL     1       2.660   8.239  17.344  0.00  0.00    +0.000 OA
ATOM     23  H   UNL     1       1.882   8.038  16.782  0.00  0.00    +0.000 HD
ENDBRANCH  14  22
BRANCH  13  24
ATOM     24  C   UNL     1       3.869   5.902  18.590  0.00  0.00    +0.000 C 
BRANCH  24  25
ATOM     25  N   UNL     1       3.518   4.476  18.647  0.00  0.00    +0.000 NA
ATOM     26  C   UNL     1       2.821   3.965  17.443  0.00  0.00    +0.000 C 
ATOM     27  C   UNL     1       2.232   2.582  17.776  0.00  0.00    +0.000 C 
ATOM     28  O   UNL     1       3.257   1.668  18.200  0.00  0.00    +0.000 OA
ATOM     29  C   UNL     1       3.991   2.202  19.314  0.00  0.00    +0.000 C 
ATOM     30  C   UNL     1       4.623   3.561  18.959  0.00  0.00    +0.000 C 
ENDBRANCH  24  25
ENDBRANCH  13  24
TORSDOF 5
ENDMDL
MODEL 2
REMARK VINA RESULT:      -7.6      1.881      3.612
REMARK  Name = 
REMARK  6 active torsions:
REMARK  status: ('A' for Active; 'I' for Inactive)
REMARK    1  A    between atoms: C_1  and  C_2
REMARK    2  A    between atoms: C_4  and  O_5
REMARK    3  A    between atoms: C_13  and  O_14
REMARK    4  A    between atoms: C_15  and  C_16
REMARK    5  A    between atoms: C_16  and  N_17
REMARK    6  A    between atoms: C_23  and  O_24
REMARK                            x       y       z     vdW  Elec       q    Type
REMARK                         _______ _______ _______ _____ _____    ______ ____
ROOT
ATOM      1  C   UNL     1      -1.365  13.441  21.603  0.00  0.00    +0.000 C 
ATOM      2  C   UNL     1      -0.759  12.077  21.453  0.00  0.00    +0.000 A 
ATOM      3  C   UNL     1      -0.987  11.083  22.407  0.00  0.00    +0.000 A 
ATOM      4  C   UNL     1      -0.410   9.819  22.261  0.00  0.00    +0.000 A 
ATOM      5  C   UNL     1       0.404   9.519  21.154  0.00  0.00    +0.000 A 
ATOM      6  C   UNL     1       0.627  10.512  20.196  0.00  0.00    +0.000 A 
ATOM      7  C   UNL     1       0.050  11.786  20.349  0.00  0.00    +0.000 A 
ATOM      8  C   UNL     1       1.451  10.243  18.999  0.00  0.00    +0.000 C 
ATOM      9  O   UNL     1       1.610  11.112  18.146  0.00  0.00    +0.000 OA
ATOM     10  C   UNL     1       2.079   8.922  18.835  0.00  0.00    +0.000 A 
ATOM     11  C   UNL     1       2.830   8.654  17.679  0.00  0.00    +0.000 A 
ATOM     12  C   UNL     1       3.383   7.390  17.478  0.00  0.00    +0.000 A 
ATOM     13  C   UNL     1       3.230   6.380  18.430  0.00  0.00    +0.000 A 
ATOM     14  C   UNL     1       2.593   6.724  19.644  0.00  0.00    +0.000 A 
ATOM     15  C   UNL     1       1.933   7.950  19.818  0.00  0.00    +0.000 A 
ATOM     16  C   UNL     1       0.994   8.174  20.951  0.00  0.00    +0.000 C 
ATOM     17  O   UNL     1       0.635   7.233  21.648  0.00  0.00    +0.000 OA
ENDROOT
BRANCH   4  18
ATOM     18  O   UNL     1      -0.651   8.889  23.232  0.00  0.00    +0.000 OA
ATOM     19  H   UNL     1      -0.992   8.066  22.851  0.00  0.00    +0.000 HD
ENDBRANCH   4  18
BRANCH  12  20
ATOM     20  O   UNL     1       4.093   7.126  16.342  0.00  0.00    +0.000 OA
ATOM     21  H   UNL     1       3.755   7.675  15.615  0.00  0.00    +0.000 HD
ENDBRANCH  12  20
BRANCH  14  22
ATOM     22  O   UNL     1       2.636   5.851  20.702  0.00  0.00    +0.000 OA
ATOM     23  H   UNL     1       2.090   5.074  20.460  0.00  0.00    +0.000 HD
ENDBRANCH  14  22
BRANCH  13  24
ATOM     24  C   UNL     1       3.742   4.965  18.159  0.00  0.00    +0.000 C 
BRANCH  24  25
ATOM     25  N   UNL     1       5.144   4.992  17.719  0.00  0.00    +0.000 NA
ATOM     26  C   UNL     1       6.135   4.904  18.817  0.00  0.00    +0.000 C 
ATOM     27  C   UNL     1       7.518   5.276  18.252  0.00  0.00    +0.000 C 
ATOM     28  O   UNL     1       7.884   4.413  17.161  0.00  0.00    +0.000 OA
ATOM     29  C   UNL     1       6.879   4.432  16.133  0.00  0.00    +0.000 C 
ATOM     30  C   UNL     1       5.508   4.008  16.692  0.00  0.00    +0.000 C 
ENDBRANCH  24  25
ENDBRANCH  13  24
TORSDOF 5
ENDMDL
MODEL 3
REMARK VINA RESULT:      -7.5      1.713      3.410
REMARK  Name = 
REMARK  6 active torsions:
REMARK  status: ('A' for Active; 'I' for Inactive)
REMARK    1  A    between atoms: C_1  and  C_2
REMARK    2  A    between atoms: C_4  and  O_5
REMARK    3  A    between atoms: C_13  and  O_14
REMARK    4  A    between atoms: C_15  and  C_16
REMARK    5  A    between atoms: C_16  and  N_17
REMARK    6  A    between atoms: C_23  and  O_24
REMARK                            x       y       z     vdW  Elec       q    Type
REMARK                         _______ _______ _______ _____ _____    ______ ____
ROOT
ATOM      1  C   UNL     1      -1.545  14.617  21.839  0.00  0.00    +0.000 C 
ATOM      2  C   UNL     1      -1.056  13.206  21.703  0.00  0.00    +0.000 A 
ATOM      3  C   UNL     1      -1.350  12.248  22.675  0.00  0.00    +0.000 A 
ATOM      4  C   UNL     1      -0.881  10.939  22.541  0.00  0.00    +0.000 A 
ATOM      5  C   UNL     1      -0.111  10.557  21.428  0.00  0.00    +0.000 A 
ATOM      6  C   UNL     1       0.178  11.515  20.452  0.00  0.00    +0.000 A 
ATOM      7  C   UNL     1      -0.290  12.833  20.593  0.00  0.00    +0.000 A 
ATOM      8  C   UNL     1       0.959  11.161  19.248  0.00  0.00    +0.000 C 
ATOM      9  O   UNL     1       1.177  12.002  18.379  0.00  0.00    +0.000 OA
ATOM     10  C   UNL     1       1.475   9.791  19.095  0.00  0.00    +0.000 A 
ATOM     11  C   UNL     1       2.184   9.445  17.934  0.00  0.00    +0.000 A 
ATOM     12  C   UNL     1       2.628   8.137  17.745  0.00  0.00    +0.000 A 
ATOM     13  C   UNL     1       2.408   7.157  18.716  0.00  0.00    +0.000 A 
ATOM     14  C   UNL     1       1.819   7.571  19.932  0.00  0.00    +0.000 A 
ATOM     15  C   UNL     1       1.264   8.849  20.096  0.00  0.00    +0.000 A 
ATOM     16  C   UNL     1       0.364   9.165  21.238  0.00  0.00    +0.000 C 
ATOM     17  O   UNL     1      -0.060   8.268  21.954  0.00  0.00    +0.000 OA
ENDROOT
BRANCH   4  18
ATOM     18  O   UNL     1      -1.183  10.047  23.530  0.00  0.00    +0.000 OA
ATOM     19  H   UNL     1      -1.392   9.175  23.162  0.00  0.00    +0.000 HD
ENDBRANCH   4  18
BRANCH  12  20
ATOM     20  O   UNL     1       3.297   7.799  16.604  0.00  0.00    +0.000 OA
ATOM     21  H   UNL     1       2.688   7.350  15.993  0.00  0.00    +0.000 HD
ENDBRANCH  12  20
BRANCH  14  22
ATOM     22  O   UNL     1       1.807   6.712  21.003  0.00  0.00    +0.000 OA
ATOM     23  H   UNL     1       2.557   6.092  20.887  0.00  0.00    +0.000 HD
ENDBRANCH  14  22
BRANCH  13  24
ATOM     24  C   UNL     1       2.797   5.702  18.459  0.00  0.00    +0.000 C 
BRANCH  24  25
ATOM     25  N   UNL     1       4.236   5.588  18.179  0.00  0.00    +0.000 NA
ATOM     26  C   UNL     1       5.074   5.305  19.368  0.00  0.00    +0.000 C 
ATOM     27  C   UNL     1       6.547   5.543  18.990  0.00  0.00    +0.000 C 
ATOM     28  O   UNL     1       6.939   4.718  17.879  0.00  0.00    +0.000 OA
ATOM     29  C   UNL     1       6.072   4.929  16.752  0.00  0.00    +0.000 C 
ATOM     30  C   UNL     1       4.605   4.638  17.122  0.00  0.00    +0.000 C 
ENDBRANCH  24  25
ENDBRANCH  13  24
TORSDOF 5
ENDMDL
MODEL 4
REMARK VINA RESULT:      -7.4      1.743      2.399
REMARK  Name = 
REMARK  6 active torsions:
REMARK  status: ('A' for Active; 'I' for Inactive)
REMARK    1  A    between atoms: C_1  and  C_2
REMARK    2  A    between atoms: C_4  and  O_5
REMARK    3  A    between atoms: C_13  and  O_14
REMARK    4  A    between atoms: C_15  and  C_16
REMARK    5  A    between atoms: C_16  and  N_17
REMARK    6  A    between atoms: C_23  and  O_24
REMARK                            x       y       z     vdW  Elec       q    Type
REMARK                         _______ _______ _______ _____ _____    ______ ____
ROOT
ATOM      1  C   UNL     1      -1.480  13.702  22.845  0.00  0.00    +0.000 C 
ATOM      2  C   UNL     1      -0.738  12.869  21.842  0.00  0.00    +0.000 A 
ATOM      3  C   UNL     1      -0.315  13.415  20.629  0.00  0.00    +0.000 A 
ATOM      4  C   UNL     1       0.367  12.627  19.699  0.00  0.00    +0.000 A 
ATOM      5  C   UNL     1       0.646  11.275  19.965  0.00  0.00    +0.000 A 
ATOM      6  C   UNL     1       0.229  10.729  21.182  0.00  0.00    +0.000 A 
ATOM      7  C   UNL     1      -0.463  11.524  22.113  0.00  0.00    +0.000 A 
ATOM      8  C   UNL     1       0.521   9.321  21.525  0.00  0.00    +0.000 C 
ATOM      9  O   UNL     1       0.181   8.863  22.612  0.00  0.00    +0.000 OA
ATOM     10  C   UNL     1       1.226   8.471  20.553  0.00  0.00    +0.000 A 
ATOM     11  C   UNL     1       1.537   7.145  20.894  0.00  0.00    +0.000 A 
ATOM     12  C   UNL     1       2.257   6.342  20.009  0.00  0.00    +0.000 A 
ATOM     13  C   UNL     1       2.652   6.826  18.760  0.00  0.00    +0.000 A 
ATOM     14  C   UNL     1       2.200   8.114  18.391  0.00  0.00    +0.000 A 
ATOM     15  C   UNL     1       1.577   8.975  19.306  0.00  0.00    +0.000 A 
ATOM     16  C   UNL     1       1.407  10.426  19.016  0.00  0.00    +0.000 C 
ATOM     17  O   UNL     1       1.972  10.932  18.055  0.00  0.00    +0.000 OA
ENDROOT
BRANCH   4  18
ATOM     18  O   UNL     1       0.742  13.207  18.521  0.00  0.00    +0.000 OA
ATOM     19  H   UNL     1       1.694  13.106  18.369  0.00  0.00    +0.000 HD
ENDBRANCH   4  18
BRANCH  12  20
ATOM     20  O   UNL     1       2.577   5.060  20.353  0.00  0.00    +0.000 OA
ATOM     21  H   UNL     1       2.830   4.565  19.555  0.00  0.00    +0.000 HD
ENDBRANCH  12  20
BRANCH  14  22
ATOM     22  O   UNL     1       2.347   8.535  17.093  0.00  0.00    +0.000 OA
ATOM     23  H   UNL     1       3.141   8.089  16.731  0.00  0.00    +0.000 HD
ENDBRANCH  14  22
BRANCH  13  24
ATOM     24  C   UNL     1       3.534   5.984  17.839  0.00  0.00    +0.000 C 
BRANCH  24  25
ATOM     25  N   UNL     1       4.957   6.224  18.115  0.00  0.00    +0.000 NA
ATOM     26  C   UNL     1       5.652   5.100  18.787  0.00  0.00    +0.000 C 
ATOM     27  C   UNL     1       7.010   5.610  19.304  0.00  0.00    +0.000 C 
ATOM     28  O   UNL     1       7.809   6.140  18.232  0.00  0.00    +0.000 OA
ATOM     29  C   UNL     1       7.101   7.172  17.525  0.00  0.00    +0.000 C 
ATOM     30  C   UNL     1       5.768   6.642  16.964  0.00  0.00    +0.000 C 
ENDBRANCH  24  25
ENDBRANCH  13  24
TORSDOF 5
ENDMDL
MODEL 5
REMARK VINA RESULT:      -7.4      1.289      1.857
REMARK  Name = 
REMARK  6 active torsions:
REMARK  status: ('A' for Active; 'I' for Inactive)
REMARK    1  A    between atoms: C_1  and  C_2
REMARK    2  A    between atoms: C_4  and  O_5
REMARK    3  A    between atoms: C_13  and  O_14
REMARK    4  A    between atoms: C_15  and  C_16
REMARK    5  A    between atoms: C_16  and  N_17
REMARK    6  A    between atoms: C_23  and  O_24
REMARK                            x       y       z     vdW  Elec       q    Type
REMARK                         _______ _______ _______ _____ _____    ______ ____
ROOT
ATOM      1  C   UNL     1      -2.928  14.100  23.969  0.00  0.00    +0.000 C 
ATOM      2  C   UNL     1      -2.209  13.404  22.852  0.00  0.00    +0.000 A 
ATOM      3  C   UNL     1      -2.140  13.974  21.579  0.00  0.00    +0.000 A 
ATOM      4  C   UNL     1      -1.475  13.312  20.544  0.00  0.00    +0.000 A 
ATOM      5  C   UNL     1      -0.858  12.067  20.762  0.00  0.00    +0.000 A 
ATOM      6  C   UNL     1      -0.921  11.500  22.038  0.00  0.00    +0.000 A 
ATOM      7  C   UNL     1      -1.597  12.166  23.076  0.00  0.00    +0.000 A 
ATOM      8  C   UNL     1      -0.265  10.208  22.329  0.00  0.00    +0.000 C 
ATOM      9  O   UNL     1      -0.296   9.737  23.463  0.00  0.00    +0.000 OA
ATOM     10  C   UNL     1       0.429   9.488  21.249  0.00  0.00    +0.000 A 
ATOM     11  C   UNL     1       1.083   8.279  21.534  0.00  0.00    +0.000 A 
ATOM     12  C   UNL     1       1.796   7.614  20.537  0.00  0.00    +0.000 A 
ATOM     13  C   UNL     1       1.845   8.115  19.234  0.00  0.00    +0.000 A 
ATOM     14  C   UNL     1       1.059   9.254  18.947  0.00  0.00    +0.000 A 
ATOM     15  C   UNL     1       0.431  10.000  19.956  0.00  0.00    +0.000 A 
ATOM     16  C   UNL     1      -0.108  11.362  19.694  0.00  0.00    +0.000 C 
ATOM     17  O   UNL     1       0.151  11.935  18.644  0.00  0.00    +0.000 OA
ENDROOT
BRANCH   4  18
ATOM     18  O   UNL     1      -1.454  13.905  19.314  0.00  0.00    +0.000 OA
ATOM     19  H   UNL     1      -0.556  13.926  18.952  0.00  0.00    +0.000 HD
ENDBRANCH   4  18
BRANCH  12  20
ATOM     20  O   UNL     1       2.451   6.451  20.823  0.00  0.00    +0.000 OA
ATOM     21  H   UNL     1       3.190   6.335  20.203  0.00  0.00    +0.000 HD
ENDBRANCH  12  20
BRANCH  14  22
ATOM     22  O   UNL     1       0.875   9.637  17.642  0.00  0.00    +0.000 OA
ATOM     23  H   UNL     1       1.026   8.846  17.084  0.00  0.00    +0.000 HD
ENDBRANCH  14  22
BRANCH  13  24
ATOM     24  C   UNL     1       2.716   7.444  18.171  0.00  0.00    +0.000 C 
BRANCH  24  25
ATOM     25  N   UNL     1       2.867   6.009  18.449  0.00  0.00    +0.000 NA
ATOM     26  C   UNL     1       1.834   5.149  17.825  0.00  0.00    +0.000 C 
ATOM     27  C   UNL     1       1.919   3.750  18.462  0.00  0.00    +0.000 C 
ATOM     28  O   UNL     1       3.229   3.181  18.296  0.00  0.00    +0.000 OA
ATOM     29  C   UNL     1       4.239   4.055  18.825  0.00  0.00    +0.000 C 
ATOM     30  C   UNL     1       4.184   5.437  18.146  0.00  0.00    +0.000 C 
ENDBRANCH  24  25
ENDBRANCH  13  24
TORSDOF 5
ENDMDL
MODEL 6
REMARK VINA RESULT:      -7.3      1.321      3.067
REMARK  Name = 
REMARK  6 active torsions:
REMARK  status: ('A' for Active; 'I' for Inactive)
REMARK    1  A    between atoms: C_1  and  C_2
REMARK    2  A    between atoms: C_4  and  O_5
REMARK    3  A    between atoms: C_13  and  O_14
REMARK    4  A    between atoms: C_15  and  C_16
REMARK    5  A    between atoms: C_16  and  N_17
REMARK    6  A    between atoms: C_23  and  O_24
REMARK                            x       y       z     vdW  Elec       q    Type
REMARK                         _______ _______ _______ _____ _____    ______ ____
ROOT
ATOM      1  C   UNL     1      -1.825  13.809  22.158  0.00  0.00    +0.000 C 
ATOM      2  C   UNL     1      -1.175  12.476  21.930  0.00  0.00    +0.000 A 
ATOM      3  C   UNL     1      -1.274  11.459  22.881  0.00  0.00    +0.000 A 
ATOM      4  C   UNL     1      -0.656  10.225  22.661  0.00  0.00    +0.000 A 
ATOM      5  C   UNL     1       0.069   9.979  21.482  0.00  0.00    +0.000 A 
ATOM      6  C   UNL     1       0.161  10.996  20.527  0.00  0.00    +0.000 A 
ATOM      7  C   UNL     1      -0.455  12.239  20.754  0.00  0.00    +0.000 A 
ATOM      8  C   UNL     1       0.887  10.782  19.257  0.00  0.00    +0.000 C 
ATOM      9  O   UNL     1       0.932  11.671  18.410  0.00  0.00    +0.000 OA
ATOM     10  C   UNL     1       1.556   9.494  19.012  0.00  0.00    +0.000 A 
ATOM     11  C   UNL     1       2.213   9.278  17.790  0.00  0.00    +0.000 A 
ATOM     12  C   UNL     1       2.801   8.044  17.517  0.00  0.00    +0.000 A 
ATOM     13  C   UNL     1       2.779   7.014  18.460  0.00  0.00    +0.000 A 
ATOM     14  C   UNL     1       2.236   7.311  19.732  0.00  0.00    +0.000 A 
ATOM     15  C   UNL     1       1.541   8.502  19.986  0.00  0.00    +0.000 A 
ATOM     16  C   UNL     1       0.697   8.666  21.202  0.00  0.00    +0.000 C 
ATOM     17  O   UNL     1       0.444   7.700  21.909  0.00  0.00    +0.000 OA
ENDROOT
BRANCH   4  18
ATOM     18  O   UNL     1      -0.769   9.271  23.632  0.00  0.00    +0.000 OA
ATOM     19  H   UNL     1      -1.365   8.559  23.354  0.00  0.00    +0.000 HD
ENDBRANCH   4  18
BRANCH  12  20
ATOM     20  O   UNL     1       3.419   7.830  16.319  0.00  0.00    +0.000 OA
ATOM     21  H   UNL     1       4.017   7.067  16.396  0.00  0.00    +0.000 HD
ENDBRANCH  12  20
BRANCH  14  22
ATOM     22  O   UNL     1       2.412   6.425  20.765  0.00  0.00    +0.000 OA
ATOM     23  H   UNL     1       1.817   6.704  21.492  0.00  0.00    +0.000 HD
ENDBRANCH  14  22
BRANCH  13  24
ATOM     24  C   UNL     1       3.326   5.628  18.118  0.00  0.00    +0.000 C 
BRANCH  24  25
ATOM     25  N   UNL     1       2.688   4.596  18.948  0.00  0.00    +0.000 NA
ATOM     26  C   UNL     1       1.503   3.956  18.330  0.00  0.00    +0.000 C 
ATOM     27  C   UNL     1       0.760   3.160  19.419  0.00  0.00    +0.000 C 
ATOM     28  O   UNL     1       1.617   2.176  20.021  0.00  0.00    +0.000 OA
ATOM     29  C   UNL     1       2.809   2.786  20.545  0.00  0.00    +0.000 C 
ATOM     30  C   UNL     1       3.577   3.536  19.440  0.00  0.00    +0.000 C 
ENDBRANCH  24  25
ENDBRANCH  13  24
TORSDOF 5
ENDMDL
MODEL 7
REMARK VINA RESULT:      -7.2      1.994      2.774
REMARK  Name = 
REMARK  6 active torsions:
REMARK  status: ('A' for Active; 'I' for Inactive)
REMARK    1  A    between atoms: C_1  and  C_2
REMARK    2  A    between atoms: C_4  and  O_5
REMARK    3  A    between atoms: C_13  and  O_14
REMARK    4  A    between atoms: C_15  and  C_16
REMARK    5  A    between atoms: C_16  and  N_17
REMARK    6  A    between atoms: C_23  and  O_24
REMARK                            x       y       z     vdW  Elec       q    Type
REMARK                         _______ _______ _______ _____ _____    ______ ____
ROOT
ATOM      1  C   UNL     1      -0.839  12.609  21.039  0.00  0.00    +0.000 C 
ATOM      2  C   UNL     1      -0.012  11.565  20.349  0.00  0.00    +0.000 A 
ATOM      3  C   UNL     1       0.668  11.856  19.166  0.00  0.00    +0.000 A 
ATOM      4  C   UNL     1       1.428  10.872  18.528  0.00  0.00    +0.000 A 
ATOM      5  C   UNL     1       1.528   9.576  19.064  0.00  0.00    +0.000 A 
ATOM      6  C   UNL     1       0.852   9.287  20.252  0.00  0.00    +0.000 A 
ATOM      7  C   UNL     1       0.083  10.277  20.888  0.00  0.00    +0.000 A 
ATOM      8  C   UNL     1       0.947   7.949  20.874  0.00  0.00    +0.000 C 
ATOM      9  O   UNL     1       0.377   7.717  21.938  0.00  0.00    +0.000 OA
ATOM     10  C   UNL     1       1.731   6.895  20.210  0.00  0.00    +0.000 A 
ATOM     11  C   UNL     1       1.851   5.637  20.821  0.00  0.00    +0.000 A 
ATOM     12  C   UNL     1       2.638   4.645  20.237  0.00  0.00    +0.000 A 
ATOM     13  C   UNL     1       3.292   4.870  19.023  0.00  0.00    +0.000 A 
ATOM     14  C   UNL     1       3.035   6.094  18.365  0.00  0.00    +0.000 A 
ATOM     15  C   UNL     1       2.342   7.144  18.987  0.00  0.00    +0.000 A 
ATOM     16  C   UNL     1       2.362   8.525  18.432  0.00  0.00    +0.000 C 
ATOM     17  O   UNL     1       3.134   8.813  17.527  0.00  0.00    +0.000 OA
ENDROOT
BRANCH   4  18
ATOM     18  O   UNL     1       2.058  11.206  17.363  0.00  0.00    +0.000 OA
ATOM     19  H   UNL     1       3.020  11.228  17.481  0.00  0.00    +0.000 HD
ENDBRANCH   4  18
BRANCH  12  20
ATOM     20  O   UNL     1       2.771   3.430  20.844  0.00  0.00    +0.000 OA
ATOM     21  H   UNL     1       3.713   3.188  20.879  0.00  0.00    +0.000 HD
ENDBRANCH  12  20
BRANCH  14  22
ATOM     22  O   UNL     1       3.448   6.264  17.067  0.00  0.00    +0.000 OA
ATOM     23  H   UNL     1       2.934   5.638  16.515  0.00  0.00    +0.000 HD
ENDBRANCH  14  22
BRANCH  13  24
ATOM     24  C   UNL     1       4.241   3.823  18.440  0.00  0.00    +0.000 C 
BRANCH  24  25
ATOM     25  N   UNL     1       5.279   4.459  17.617  0.00  0.00    +0.000 NA
ATOM     26  C   UNL     1       6.532   4.774  18.343  0.00  0.00    +0.000 C 
ATOM     27  C   UNL     1       7.376   5.717  17.465  0.00  0.00    +0.000 C 
ATOM     28  O   UNL     1       7.659   5.124  16.187  0.00  0.00    +0.000 OA
ATOM     29  C   UNL     1       6.446   4.739  15.519  0.00  0.00    +0.000 C 
ATOM     30  C   UNL     1       5.631   3.754  16.379  0.00  0.00    +0.000 C 
ENDBRANCH  24  25
ENDBRANCH  13  24
TORSDOF 5
ENDMDL
MODEL 8
REMARK VINA RESULT:      -7.0      1.583      3.283
REMARK  Name = 
REMARK  6 active torsions:
REMARK  status: ('A' for Active; 'I' for Inactive)
REMARK    1  A    between atoms: C_1  and  C_2
REMARK    2  A    between atoms: C_4  and  O_5
REMARK    3  A    between atoms: C_13  and  O_14
REMARK    4  A    between atoms: C_15  and  C_16
REMARK    5  A    between atoms: C_16  and  N_17
REMARK    6  A    between atoms: C_23  and  O_24
REMARK                            x       y       z     vdW  Elec       q    Type
REMARK                         _______ _______ _______ _____ _____    ______ ____
ROOT
ATOM      1  C   UNL     1      -3.879  14.578  20.882  0.00  0.00    +0.000 C 
ATOM      2  C   UNL     1      -2.956  13.411  21.075  0.00  0.00    +0.000 A 
ATOM      3  C   UNL     1      -2.846  12.782  22.317  0.00  0.00    +0.000 A 
ATOM      4  C   UNL     1      -1.976  11.703  22.487  0.00  0.00    +0.000 A 
ATOM      5  C   UNL     1      -1.201  11.224  21.417  0.00  0.00    +0.000 A 
ATOM      6  C   UNL     1      -1.316  11.849  20.172  0.00  0.00    +0.000 A 
ATOM      7  C   UNL     1      -2.187  12.940  20.006  0.00  0.00    +0.000 A 
ATOM      8  C   UNL     1      -0.545  11.369  19.006  0.00  0.00    +0.000 C 
ATOM      9  O   UNL     1      -0.681  11.903  17.908  0.00  0.00    +0.000 OA
ATOM     10  C   UNL     1       0.387  10.241  19.168  0.00  0.00    +0.000 A 
ATOM     11  C   UNL     1       1.091   9.761  18.052  0.00  0.00    +0.000 A 
ATOM     12  C   UNL     1       1.933   8.656  18.174  0.00  0.00    +0.000 A 
ATOM     13  C   UNL     1       2.120   8.029  19.408  0.00  0.00    +0.000 A 
ATOM     14  C   UNL     1       1.510   8.624  20.536  0.00  0.00    +0.000 A 
ATOM     15  C   UNL     1       0.573   9.661  20.417  0.00  0.00    +0.000 A 
ATOM     16  C   UNL     1      -0.302  10.052  21.557  0.00  0.00    +0.000 C 
ATOM     17  O   UNL     1      -0.352   9.356  22.562  0.00  0.00    +0.000 OA
ENDROOT
BRANCH   4  18
ATOM     18  O   UNL     1      -1.895  11.136  23.727  0.00  0.00    +0.000 OA
ATOM     19  H   UNL     1      -1.204  10.457  23.756  0.00  0.00    +0.000 HD
ENDBRANCH   4  18
BRANCH  12  20
ATOM     20  O   UNL     1       2.598   8.178  17.082  0.00  0.00    +0.000 OA
ATOM     21  H   UNL     1       2.999   8.920  16.598  0.00  0.00    +0.000 HD
ENDBRANCH  12  20
BRANCH  14  22
ATOM     22  O   UNL     1       1.859   8.201  21.794  0.00  0.00    +0.000 OA
ATOM     23  H   UNL     1       2.789   7.897  21.751  0.00  0.00    +0.000 HD
ENDBRANCH  14  22
BRANCH  13  24
ATOM     24  C   UNL     1       2.955   6.754  19.518  0.00  0.00    +0.000 C 
BRANCH  24  25
ATOM     25  N   UNL     1       2.118   5.563  19.320  0.00  0.00    +0.000 NA
ATOM     26  C   UNL     1       2.502   4.727  18.158  0.00  0.00    +0.000 C 
ATOM     27  C   UNL     1       1.363   3.729  17.881  0.00  0.00    +0.000 C 
ATOM     28  O   UNL     1       1.095   2.912  19.034  0.00  0.00    +0.000 OA
ATOM     29  C   UNL     1       0.807   3.725  20.183  0.00  0.00    +0.000 C 
ATOM     30  C   UNL     1       1.972   4.685  20.488  0.00  0.00    +0.000 C 
ENDBRANCH  24  25
ENDBRANCH  13  24
TORSDOF 5
ENDMDL
MODEL 9
REMARK VINA RESULT:      -7.0      3.584      8.787
REMARK  Name = 
REMARK  6 active torsions:
REMARK  status: ('A' for Active; 'I' for Inactive)
REMARK    1  A    between atoms: C_1  and  C_2
REMARK    2  A    between atoms: C_4  and  O_5
REMARK    3  A    between atoms: C_13  and  O_14
REMARK    4  A    between atoms: C_15  and  C_16
REMARK    5  A    between atoms: C_16  and  N_17
REMARK    6  A    between atoms: C_23  and  O_24
REMARK                            x       y       z     vdW  Elec       q    Type
REMARK                         _______ _______ _______ _____ _____    ______ ____
ROOT
ATOM      1  C   UNL     1       2.936   6.063  19.826  0.00  0.00    +0.000 C 
ATOM      2  C   UNL     1       2.186   7.360  19.756  0.00  0.00    +0.000 A 
ATOM      3  C   UNL     1       2.208   8.140  18.598  0.00  0.00    +0.000 A 
ATOM      4  C   UNL     1       1.513   9.350  18.549  0.00  0.00    +0.000 A 
ATOM      5  C   UNL     1       0.774   9.805  19.655  0.00  0.00    +0.000 A 
ATOM      6  C   UNL     1       0.746   9.021  20.812  0.00  0.00    +0.000 A 
ATOM      7  C   UNL     1       1.453   7.806  20.861  0.00  0.00    +0.000 A 
ATOM      8  C   UNL     1      -0.038   9.438  21.994  0.00  0.00    +0.000 C 
ATOM      9  O   UNL     1      -0.084   8.723  22.992  0.00  0.00    +0.000 OA
ATOM     10  C   UNL     1      -0.766  10.716  21.966  0.00  0.00    +0.000 A 
ATOM     11  C   UNL     1      -1.541  11.093  23.075  0.00  0.00    +0.000 A 
ATOM     12  C   UNL     1      -2.286  12.272  23.043  0.00  0.00    +0.000 A 
ATOM     13  C   UNL     1      -2.250  13.114  21.930  0.00  0.00    +0.000 A 
ATOM     14  C   UNL     1      -1.350  12.778  20.892  0.00  0.00    +0.000 A 
ATOM     15  C   UNL     1      -0.683  11.545  20.853  0.00  0.00    +0.000 A 
ATOM     16  C   UNL     1      -0.010  11.064  19.616  0.00  0.00    +0.000 C 
ATOM     17  O   UNL     1      -0.183  11.647  18.554  0.00  0.00    +0.000 OA
ENDROOT
BRANCH   4  18
ATOM     18  O   UNL     1       1.583  10.082  17.397  0.00  0.00    +0.000 OA
ATOM     19  H   UNL     1       1.245  10.980  17.533  0.00  0.00    +0.000 HD
ENDBRANCH   4  18
BRANCH  12  20
ATOM     20  O   UNL     1      -3.056  12.624  24.114  0.00  0.00    +0.000 OA
ATOM     21  H   UNL     1      -3.821  12.028  24.171  0.00  0.00    +0.000 HD
ENDBRANCH  12  20
BRANCH  14  22
ATOM     22  O   UNL     1      -1.094  13.690  19.899  0.00  0.00    +0.000 OA
ATOM     23  H   UNL     1      -1.933  13.834  19.413  0.00  0.00    +0.000 HD
ENDBRANCH  14  22
BRANCH  13  24
ATOM     24  C   UNL     1      -3.149  14.347  21.852  0.00  0.00    +0.000 C 
BRANCH  24  25
ATOM     25  N   UNL     1      -4.540  14.000  22.176  0.00  0.00    +0.000 NA
ATOM     26  C   UNL     1      -5.320  15.097  22.796  0.00  0.00    +0.000 C 
ATOM     27  C   UNL     1      -6.617  14.502  23.374  0.00  0.00    +0.000 C 
ATOM     28  O   UNL     1      -7.386  13.839  22.355  0.00  0.00    +0.000 OA
ATOM     29  C   UNL     1      -6.601  12.833  21.694  0.00  0.00    +0.000 C 
ATOM     30  C   UNL     1      -5.331  13.442  21.071  0.00  0.00    +0.000 C 
ENDBRANCH  24  25
ENDBRANCH  13  24
TORSDOF 5
ENDMDL
