MODEL 1
REMARK VINA RESULT:      -7.6      0.000      0.000
REMARK  Name = 
REMARK  7 active torsions:
REMARK  status: ('A' for Active; 'I' for Inactive)
REMARK    1  A    between atoms: C_1  and  N_2
REMARK    2  A    between atoms: C_3  and  S_4
REMARK    3  A    between atoms: S_4  and  C_5
REMARK    4  A    between atoms: C_5  and  C_6
REMARK    5  A    between atoms: C_11  and  C_12
REMARK    6  A    between atoms: N_18  and  C_19
REMARK    7  A    between atoms: C_19  and  C_20
REMARK                            x       y       z     vdW  Elec       q    Type
REMARK                         _______ _______ _______ _____ _____    ______ ____
ROOT
ATOM      1  C   UNL     1       1.498   8.161  19.440  0.00  0.00    +0.000 C 
ATOM      2  C   UNL     1       1.829   8.207  20.931  0.00  0.00    +0.000 C 
ATOM      3  C   UNL     1       0.536   8.516  21.673  0.00  0.00    +0.000 C 
ATOM      4  N   UNL     1      -0.034   9.784  21.216  0.00  0.00    +0.000 N 
ATOM      5  C   UNL     1      -0.489  10.649  22.194  0.00  0.00    +0.000 C 
ATOM      6  O   UNL     1      -0.355  10.420  23.399  0.00  0.00    +0.000 OA
ATOM      7  N   UNL     1      -1.058  11.805  21.751  0.00  0.00    +0.000 N 
ATOM      8  C   UNL     1      -0.176   9.960  19.757  0.00  0.00    +0.000 C 
ATOM      9  C   UNL     1       1.101   9.565  18.990  0.00  0.00    +0.000 C 
ATOM     10  H   UNL     1      -1.598  11.751  20.905  0.00  0.00    +0.000 HD
ENDROOT
BRANCH   1  16
ATOM     11  C   UNL     1       2.310   5.334  19.972  0.00  0.00    +0.000 C 
ATOM     12  N   UNL     1       2.922   6.150  18.953  0.00  0.00    +0.000 N 
ATOM     13  C   UNL     1       3.950   5.843  18.110  0.00  0.00    +0.000 A 
ATOM     14  N   UNL     1       4.193   6.872  17.331  0.00  0.00    +0.000 NA
ATOM     15  N   UNL     1       3.315   7.889  17.677  0.00  0.00    +0.000 NA
ATOM     16  C   UNL     1       2.555   7.451  18.659  0.00  0.00    +0.000 A 
BRANCH  13  17
ATOM     17  S   UNL     1       4.760   4.314  18.130  0.00  0.00    +0.000 S 
BRANCH  17  18
ATOM     18  C   UNL     1       5.650   4.344  16.551  0.00  0.00    +0.000 C 
BRANCH  18  19
ATOM     19  C   UNL     1       7.066   4.900  16.656  0.00  0.00    +0.000 C 
ATOM     20  N   UNL     1       7.316   6.177  16.257  0.00  0.00    +0.000 N 
ATOM     21  O   UNL     1       7.999   4.219  17.086  0.00  0.00    +0.000 OA
ATOM     22  H   UNL     1       6.584   6.790  15.922  0.00  0.00    +0.000 HD
ATOM     23  H   UNL     1       8.258   6.529  16.345  0.00  0.00    +0.000 HD
ENDBRANCH  18  19
ENDBRANCH  17  18
ENDBRANCH  13  17
ENDBRANCH   1  16
BRANCH   7  24
ATOM     24  C   UNL     1      -1.490  12.801  22.705  0.00  0.00    +0.000 C 
BRANCH  24  25
ATOM     25  C   UNL     1      -2.988  12.809  22.829  0.00  0.00    +0.000 A 
ATOM     26  C   UNL     1      -3.605  12.707  24.082  0.00  0.00    +0.000 A 
ATOM     27  C   UNL     1      -4.997  12.731  24.187  0.00  0.00    +0.000 A 
ATOM     28  C   UNL     1      -5.783  12.858  23.042  0.00  0.00    +0.000 A 
ATOM     29  C   UNL     1      -5.179  12.969  21.792  0.00  0.00    +0.000 A 
ATOM     30  C   UNL     1      -3.789  12.947  21.685  0.00  0.00    +0.000 A 
ENDBRANCH  24  25
ENDBRANCH   7  24
TORSDOF 6
ENDMDL
MODEL 2
REMARK VINA RESULT:      -7.5      0.610      1.112
REMARK  Name = 
REMARK  7 active torsions:
REMARK  status: ('A' for Active; 'I' for Inactive)
REMARK    1  A    between atoms: C_1  and  N_2
REMARK    2  A    between atoms: C_3  and  S_4
REMARK    3  A    between atoms: S_4  and  C_5
REMARK    4  A    between atoms: C_5  and  C_6
REMARK    5  A    between atoms: C_11  and  C_12
REMARK    6  A    between atoms: N_18  and  C_19
REMARK    7  A    between atoms: C_19  and  C_20
REMARK                            x       y       z     vdW  Elec       q    Type
REMARK                         _______ _______ _______ _____ _____    ______ ____
ROOT
ATOM      1  C   UNL     1       1.453   8.218  19.408  0.00  0.00    +0.000 C 
ATOM      2  C   UNL     1       1.813   8.242  20.893  0.00  0.00    +0.000 C 
ATOM      3  C   UNL     1       0.533   8.525  21.666  0.00  0.00    +0.000 C 
ATOM      4  N   UNL     1      -0.060   9.794  21.242  0.00  0.00    +0.000 N 
ATOM      5  C   UNL     1      -0.504  10.637  22.244  0.00  0.00    +0.000 C 
ATOM      6  O   UNL     1      -0.342  10.389  23.442  0.00  0.00    +0.000 OA
ATOM      7  N   UNL     1      -1.093  11.795  21.832  0.00  0.00    +0.000 N 
ATOM      8  C   UNL     1      -0.233   9.993  19.790  0.00  0.00    +0.000 C 
ATOM      9  C   UNL     1       1.033   9.625  18.990  0.00  0.00    +0.000 C 
ATOM     10  H   UNL     1      -1.650  11.749  20.997  0.00  0.00    +0.000 HD
ENDROOT
BRANCH   1  16
ATOM     11  C   UNL     1       2.162   5.333  19.740  0.00  0.00    +0.000 C 
ATOM     12  N   UNL     1       2.820   6.202  18.795  0.00  0.00    +0.000 N 
ATOM     13  C   UNL     1       3.853   5.924  17.949  0.00  0.00    +0.000 A 
ATOM     14  N   UNL     1       4.145   6.999  17.254  0.00  0.00    +0.000 NA
ATOM     15  N   UNL     1       3.294   8.016  17.660  0.00  0.00    +0.000 NA
ATOM     16  C   UNL     1       2.501   7.533  18.594  0.00  0.00    +0.000 A 
BRANCH  13  17
ATOM     17  S   UNL     1       4.613   4.371  17.868  0.00  0.00    +0.000 S 
BRANCH  17  18
ATOM     18  C   UNL     1       5.520   4.481  16.303  0.00  0.00    +0.000 C 
BRANCH  18  19
ATOM     19  C   UNL     1       6.964   4.947  16.462  0.00  0.00    +0.000 C 
ATOM     20  N   UNL     1       7.756   4.366  17.404  0.00  0.00    +0.000 N 
ATOM     21  O   UNL     1       7.433   5.847  15.762  0.00  0.00    +0.000 OA
ATOM     22  H   UNL     1       7.431   3.606  17.986  0.00  0.00    +0.000 HD
ATOM     23  H   UNL     1       8.712   4.683  17.485  0.00  0.00    +0.000 HD
ENDBRANCH  18  19
ENDBRANCH  17  18
ENDBRANCH  13  17
ENDBRANCH   1  16
BRANCH   7  24
ATOM     24  C   UNL     1      -1.516  12.770  22.812  0.00  0.00    +0.000 C 
BRANCH  24  25
ATOM     25  C   UNL     1      -3.016  12.820  22.904  0.00  0.00    +0.000 A 
ATOM     26  C   UNL     1      -3.801  12.973  21.755  0.00  0.00    +0.000 A 
ATOM     27  C   UNL     1      -5.193  13.002  21.850  0.00  0.00    +0.000 A 
ATOM     28  C   UNL     1      -5.812  12.878  23.094  0.00  0.00    +0.000 A 
ATOM     29  C   UNL     1      -5.041  12.717  24.243  0.00  0.00    +0.000 A 
ATOM     30  C   UNL     1      -3.650  12.685  24.149  0.00  0.00    +0.000 A 
ENDBRANCH  24  25
ENDBRANCH   7  24
TORSDOF 6
ENDMDL
MODEL 3
REMARK VINA RESULT:      -7.5      3.933     10.301
REMARK  Name = 
REMARK  7 active torsions:
REMARK  status: ('A' for Active; 'I' for Inactive)
REMARK    1  A    between atoms: C_1  and  N_2
REMARK    2  A    between atoms: C_3  and  S_4
REMARK    3  A    between atoms: S_4  and  C_5
REMARK    4  A    between atoms: C_5  and  C_6
REMARK    5  A    between atoms: C_11  and  C_12
REMARK    6  A    between atoms: N_18  and  C_19
REMARK    7  A    between atoms: C_19  and  C_20
REMARK                            x       y       z     vdW  Elec       q    Type
REMARK                         _______ _______ _______ _____ _____    ______ ____
ROOT
ATOM      1  C   UNL     1      -0.490  11.095  21.537  0.00  0.00    +0.000 C 
ATOM      2  C   UNL     1       0.531  11.360  20.430  0.00  0.00    +0.000 C 
ATOM      3  C   UNL     1       0.530  10.145  19.514  0.00  0.00    +0.000 C 
ATOM      4  N   UNL     1       0.859   8.930  20.260  0.00  0.00    +0.000 N 
ATOM      5  C   UNL     1       1.770   8.070  19.676  0.00  0.00    +0.000 C 
ATOM      6  O   UNL     1       2.351   8.333  18.620  0.00  0.00    +0.000 OA
ATOM      7  N   UNL     1       2.032   6.922  20.363  0.00  0.00    +0.000 N 
ATOM      8  C   UNL     1       0.098   8.688  21.502  0.00  0.00    +0.000 C 
ATOM      9  C   UNL     1       0.019   9.941  22.397  0.00  0.00    +0.000 C 
ATOM     10  H   UNL     1       1.265   6.503  20.858  0.00  0.00    +0.000 HD
ENDROOT
BRANCH   1  16
ATOM     11  C   UNL     1      -2.883  12.703  20.747  0.00  0.00    +0.000 C 
ATOM     12  N   UNL     1      -1.996  13.086  21.818  0.00  0.00    +0.000 N 
ATOM     13  C   UNL     1      -2.033  14.198  22.607  0.00  0.00    +0.000 A 
ATOM     14  N   UNL     1      -1.039  14.154  23.465  0.00  0.00    +0.000 NA
ATOM     15  N   UNL     1      -0.320  12.992  23.228  0.00  0.00    +0.000 NA
ATOM     16  C   UNL     1      -0.896  12.354  22.230  0.00  0.00    +0.000 A 
BRANCH  13  17
ATOM     17  S   UNL     1      -3.232  15.434  22.437  0.00  0.00    +0.000 S 
BRANCH  17  18
ATOM     18  C   UNL     1      -4.693  14.636  23.157  0.00  0.00    +0.000 C 
BRANCH  18  19
ATOM     19  C   UNL     1      -4.361  13.591  24.216  0.00  0.00    +0.000 C 
ATOM     20  N   UNL     1      -3.769  13.977  25.379  0.00  0.00    +0.000 N 
ATOM     21  O   UNL     1      -4.609  12.395  24.044  0.00  0.00    +0.000 OA
ATOM     22  H   UNL     1      -3.569  14.947  25.584  0.00  0.00    +0.000 HD
ATOM     23  H   UNL     1      -3.568  13.270  26.071  0.00  0.00    +0.000 HD
ENDBRANCH  18  19
ENDBRANCH  17  18
ENDBRANCH  13  17
ENDBRANCH   1  16
BRANCH   7  24
ATOM     24  C   UNL     1       3.029   6.002  19.865  0.00  0.00    +0.000 C 
BRANCH  24  25
ATOM     25  C   UNL     1       2.398   4.704  19.444  0.00  0.00    +0.000 A 
ATOM     26  C   UNL     1       1.442   4.076  20.252  0.00  0.00    +0.000 A 
ATOM     27  C   UNL     1       0.851   2.880  19.845  0.00  0.00    +0.000 A 
ATOM     28  C   UNL     1       1.208   2.301  18.627  0.00  0.00    +0.000 A 
ATOM     29  C   UNL     1       2.150   2.923  17.811  0.00  0.00    +0.000 A 
ATOM     30  C   UNL     1       2.741   4.119  18.216  0.00  0.00    +0.000 A 
ENDBRANCH  24  25
ENDBRANCH   7  24
TORSDOF 6
ENDMDL
MODEL 4
REMARK VINA RESULT:      -7.4      3.585     10.668
REMARK  Name = 
REMARK  7 active torsions:
REMARK  status: ('A' for Active; 'I' for Inactive)
REMARK    1  A    between atoms: C_1  and  N_2
REMARK    2  A    between atoms: C_3  and  S_4
REMARK    3  A    between atoms: S_4  and  C_5
REMARK    4  A    between atoms: C_5  and  C_6
REMARK    5  A    between atoms: C_11  and  C_12
REMARK    6  A    between atoms: N_18  and  C_19
REMARK    7  A    between atoms: C_19  and  C_20
REMARK                            x       y       z     vdW  Elec       q    Type
REMARK                         _______ _______ _______ _____ _____    ______ ____
ROOT
ATOM      1  C   UNL     1      -0.263  10.639  19.494  0.00  0.00    +0.000 C 
ATOM      2  C   UNL     1      -0.283   9.423  20.420  0.00  0.00    +0.000 C 
ATOM      3  C   UNL     1       1.151   8.931  20.553  0.00  0.00    +0.000 C 
ATOM      4  N   UNL     1       1.707   8.591  19.242  0.00  0.00    +0.000 N 
ATOM      5  C   UNL     1       2.410   7.404  19.154  0.00  0.00    +0.000 C 
ATOM      6  O   UNL     1       2.504   6.615  20.099  0.00  0.00    +0.000 OA
ATOM      7  N   UNL     1       2.958   7.124  17.939  0.00  0.00    +0.000 N 
ATOM      8  C   UNL     1       1.565   9.605  18.179  0.00  0.00    +0.000 C 
ATOM      9  C   UNL     1       0.134  10.174  18.095  0.00  0.00    +0.000 C 
ATOM     10  H   UNL     1       3.313   7.901  17.410  0.00  0.00    +0.000 HD
ENDROOT
BRANCH   1  16
ATOM     11  C   UNL     1      -0.762  12.489  21.788  0.00  0.00    +0.000 C 
ATOM     12  N   UNL     1      -1.710  12.286  20.720  0.00  0.00    +0.000 N 
ATOM     13  C   UNL     1      -2.956  12.819  20.565  0.00  0.00    +0.000 A 
ATOM     14  N   UNL     1      -3.481  12.375  19.446  0.00  0.00    +0.000 NA
ATOM     15  N   UNL     1      -2.567  11.516  18.855  0.00  0.00    +0.000 NA
ATOM     16  C   UNL     1      -1.503  11.460  19.630  0.00  0.00    +0.000 A 
BRANCH  13  17
ATOM     17  S   UNL     1      -3.666  13.902  21.713  0.00  0.00    +0.000 S 
BRANCH  17  18
ATOM     18  C   UNL     1      -5.122  12.968  22.254  0.00  0.00    +0.000 C 
BRANCH  18  19
ATOM     19  C   UNL     1      -5.410  13.092  23.747  0.00  0.00    +0.000 C 
ATOM     20  N   UNL     1      -5.342  14.312  24.345  0.00  0.00    +0.000 N 
ATOM     21  O   UNL     1      -5.696  12.109  24.433  0.00  0.00    +0.000 OA
ATOM     22  H   UNL     1      -5.138  15.156  23.825  0.00  0.00    +0.000 HD
ATOM     23  H   UNL     1      -5.546  14.373  25.332  0.00  0.00    +0.000 HD
ENDBRANCH  18  19
ENDBRANCH  17  18
ENDBRANCH  13  17
ENDBRANCH   1  16
BRANCH   7  24
ATOM     24  C   UNL     1       3.643   5.867  17.736  0.00  0.00    +0.000 C 
BRANCH  24  25
ATOM     25  C   UNL     1       5.118   6.014  17.992  0.00  0.00    +0.000 A 
ATOM     26  C   UNL     1       5.911   6.829  17.175  0.00  0.00    +0.000 A 
ATOM     27  C   UNL     1       7.275   6.970  17.431  0.00  0.00    +0.000 A 
ATOM     28  C   UNL     1       7.858   6.300  18.506  0.00  0.00    +0.000 A 
ATOM     29  C   UNL     1       7.077   5.494  19.331  0.00  0.00    +0.000 A 
ATOM     30  C   UNL     1       5.713   5.353  19.077  0.00  0.00    +0.000 A 
ENDBRANCH  24  25
ENDBRANCH   7  24
TORSDOF 6
ENDMDL
MODEL 5
REMARK VINA RESULT:      -7.4      4.160     10.721
REMARK  Name = 
REMARK  7 active torsions:
REMARK  status: ('A' for Active; 'I' for Inactive)
REMARK    1  A    between atoms: C_1  and  N_2
REMARK    2  A    between atoms: C_3  and  S_4
REMARK    3  A    between atoms: S_4  and  C_5
REMARK    4  A    between atoms: C_5  and  C_6
REMARK    5  A    between atoms: C_11  and  C_12
REMARK    6  A    between atoms: N_18  and  C_19
REMARK    7  A    between atoms: C_19  and  C_20
REMARK                            x       y       z     vdW  Elec       q    Type
REMARK                         _______ _______ _______ _____ _____    ______ ____
ROOT
ATOM      1  C   UNL     1      -0.228  11.692  21.550  0.00  0.00    +0.000 C 
ATOM      2  C   UNL     1       0.744  11.997  20.411  0.00  0.00    +0.000 C 
ATOM      3  C   UNL     1       0.583  10.898  19.371  0.00  0.00    +0.000 C 
ATOM      4  N   UNL     1       0.848   9.584  19.958  0.00  0.00    +0.000 N 
ATOM      5  C   UNL     1       1.643   8.724  19.223  0.00  0.00    +0.000 C 
ATOM      6  O   UNL     1       2.181   9.058  18.164  0.00  0.00    +0.000 OA
ATOM      7  N   UNL     1       1.845   7.489  19.763  0.00  0.00    +0.000 N 
ATOM      8  C   UNL     1       0.144   9.265  21.216  0.00  0.00    +0.000 C 
ATOM      9  C   UNL     1       0.229  10.411  22.244  0.00  0.00    +0.000 C 
ATOM     10  H   UNL     1       1.075   7.080  20.262  0.00  0.00    +0.000 HD
ENDROOT
BRANCH   1  16
ATOM     11  C   UNL     1      -2.644  11.997  23.285  0.00  0.00    +0.000 C 
ATOM     12  N   UNL     1      -1.624  13.010  23.170  0.00  0.00    +0.000 N 
ATOM     13  C   UNL     1      -1.570  14.244  23.750  0.00  0.00    +0.000 A 
ATOM     14  N   UNL     1      -0.462  14.847  23.385  0.00  0.00    +0.000 NA
ATOM     15  N   UNL     1       0.227  13.997  22.532  0.00  0.00    +0.000 NA
ATOM     16  C   UNL     1      -0.480  12.894  22.401  0.00  0.00    +0.000 A 
BRANCH  13  17
ATOM     17  S   UNL     1      -2.814  14.851  24.789  0.00  0.00    +0.000 S 
BRANCH  17  18
ATOM     18  C   UNL     1      -4.015  15.497  23.594  0.00  0.00    +0.000 C 
BRANCH  18  19
ATOM     19  C   UNL     1      -5.320  15.966  24.228  0.00  0.00    +0.000 C 
ATOM     20  N   UNL     1      -6.420  15.167  24.168  0.00  0.00    +0.000 N 
ATOM     21  O   UNL     1      -5.409  17.059  24.790  0.00  0.00    +0.000 OA
ATOM     22  H   UNL     1      -6.396  14.249  23.743  0.00  0.00    +0.000 HD
ATOM     23  H   UNL     1      -7.271  15.492  24.604  0.00  0.00    +0.000 HD
ENDBRANCH  18  19
ENDBRANCH  17  18
ENDBRANCH  13  17
ENDBRANCH   1  16
BRANCH   7  24
ATOM     24  C   UNL     1       2.726   6.555  19.101  0.00  0.00    +0.000 C 
BRANCH  24  25
ATOM     25  C   UNL     1       2.165   5.160  19.153  0.00  0.00    +0.000 A 
ATOM     26  C   UNL     1       1.569   4.670  20.322  0.00  0.00    +0.000 A 
ATOM     27  C   UNL     1       1.037   3.380  20.354  0.00  0.00    +0.000 A 
ATOM     28  C   UNL     1       1.095   2.571  19.221  0.00  0.00    +0.000 A 
ATOM     29  C   UNL     1       1.677   3.052  18.050  0.00  0.00    +0.000 A 
ATOM     30  C   UNL     1       2.208   4.341  18.015  0.00  0.00    +0.000 A 
ENDBRANCH  24  25
ENDBRANCH   7  24
TORSDOF 6
ENDMDL
MODEL 6
REMARK VINA RESULT:      -7.3      3.788     10.531
REMARK  Name = 
REMARK  7 active torsions:
REMARK  status: ('A' for Active; 'I' for Inactive)
REMARK    1  A    between atoms: C_1  and  N_2
REMARK    2  A    between atoms: C_3  and  S_4
REMARK    3  A    between atoms: S_4  and  C_5
REMARK    4  A    between atoms: C_5  and  C_6
REMARK    5  A    between atoms: C_11  and  C_12
REMARK    6  A    between atoms: N_18  and  C_19
REMARK    7  A    between atoms: C_19  and  C_20
REMARK                            x       y       z     vdW  Elec       q    Type
REMARK                         _______ _______ _______ _____ _____    ______ ____
ROOT
ATOM      1  C   UNL     1      -0.590  11.107  20.986  0.00  0.00    +0.000 C 
ATOM      2  C   UNL     1       0.148  11.724  19.797  0.00  0.00    +0.000 C 
ATOM      3  C   UNL     1       0.217  10.664  18.707  0.00  0.00    +0.000 C 
ATOM      4  N   UNL     1       0.900   9.464  19.192  0.00  0.00    +0.000 N 
ATOM      5  C   UNL     1       1.839   8.900  18.349  0.00  0.00    +0.000 C 
ATOM      6  O   UNL     1       2.162   9.415  17.275  0.00  0.00    +0.000 OA
ATOM      7  N   UNL     1       2.434   7.759  18.796  0.00  0.00    +0.000 N 
ATOM      8  C   UNL     1       0.431   8.908  20.477  0.00  0.00    +0.000 C 
ATOM      9  C   UNL     1       0.275   9.990  21.564  0.00  0.00    +0.000 C 
ATOM     10  H   UNL     1       1.861   7.125  19.326  0.00  0.00    +0.000 HD
ENDROOT
BRANCH   1  16
ATOM     11  C   UNL     1      -3.088  12.676  20.494  0.00  0.00    +0.000 C 
ATOM     12  N   UNL     1      -2.246  12.875  21.649  0.00  0.00    +0.000 N 
ATOM     13  C   UNL     1      -2.378  13.781  22.660  0.00  0.00    +0.000 A 
ATOM     14  N   UNL     1      -1.396  13.621  23.517  0.00  0.00    +0.000 NA
ATOM     15  N   UNL     1      -0.587  12.593  23.054  0.00  0.00    +0.000 NA
ATOM     16  C   UNL     1      -1.100  12.152  21.924  0.00  0.00    +0.000 A 
BRANCH  13  17
ATOM     17  S   UNL     1      -3.666  14.936  22.729  0.00  0.00    +0.000 S 
BRANCH  17  18
ATOM     18  C   UNL     1      -5.110  13.868  22.975  0.00  0.00    +0.000 C 
BRANCH  18  19
ATOM     19  C   UNL     1      -5.020  12.992  24.219  0.00  0.00    +0.000 C 
ATOM     20  N   UNL     1      -4.159  13.330  25.218  0.00  0.00    +0.000 N 
ATOM     21  O   UNL     1      -5.704  11.974  24.344  0.00  0.00    +0.000 OA
ATOM     22  H   UNL     1      -3.594  14.168  25.180  0.00  0.00    +0.000 HD
ATOM     23  H   UNL     1      -4.123  12.741  26.037  0.00  0.00    +0.000 HD
ENDBRANCH  18  19
ENDBRANCH  17  18
ENDBRANCH  13  17
ENDBRANCH   1  16
BRANCH   7  24
ATOM     24  C   UNL     1       3.484   7.146  18.015  0.00  0.00    +0.000 C 
BRANCH  24  25
ATOM     25  C   UNL     1       3.222   5.678  17.823  0.00  0.00    +0.000 A 
ATOM     26  C   UNL     1       1.958   5.135  18.084  0.00  0.00    +0.000 A 
ATOM     27  C   UNL     1       1.721   3.773  17.888  0.00  0.00    +0.000 A 
ATOM     28  C   UNL     1       2.744   2.944  17.430  0.00  0.00    +0.000 A 
ATOM     29  C   UNL     1       4.003   3.475  17.159  0.00  0.00    +0.000 A 
ATOM     30  C   UNL     1       4.241   4.836  17.352  0.00  0.00    +0.000 A 
ENDBRANCH  24  25
ENDBRANCH   7  24
TORSDOF 6
ENDMDL
MODEL 7
REMARK VINA RESULT:      -7.3      3.529     10.541
REMARK  Name = 
REMARK  7 active torsions:
REMARK  status: ('A' for Active; 'I' for Inactive)
REMARK    1  A    between atoms: C_1  and  N_2
REMARK    2  A    between atoms: C_3  and  S_4
REMARK    3  A    between atoms: S_4  and  C_5
REMARK    4  A    between atoms: C_5  and  C_6
REMARK    5  A    between atoms: C_11  and  C_12
REMARK    6  A    between atoms: N_18  and  C_19
REMARK    7  A    between atoms: C_19  and  C_20
REMARK                            x       y       z     vdW  Elec       q    Type
REMARK                         _______ _______ _______ _____ _____    ______ ____
ROOT
ATOM      1  C   UNL     1      -0.260  10.696  19.671  0.00  0.00    +0.000 C 
ATOM      2  C   UNL     1      -0.322   9.436  20.534  0.00  0.00    +0.000 C 
ATOM      3  C   UNL     1       1.098   8.904  20.661  0.00  0.00    +0.000 C 
ATOM      4  N   UNL     1       1.666   8.618  19.344  0.00  0.00    +0.000 N 
ATOM      5  C   UNL     1       2.343   7.421  19.205  0.00  0.00    +0.000 C 
ATOM      6  O   UNL     1       2.404   6.583  20.110  0.00  0.00    +0.000 OA
ATOM      7  N   UNL     1       2.903   7.189  17.985  0.00  0.00    +0.000 N 
ATOM      8  C   UNL     1       1.563   9.688  18.331  0.00  0.00    +0.000 C 
ATOM      9  C   UNL     1       0.147  10.293  18.256  0.00  0.00    +0.000 C 
ATOM     10  H   UNL     1       3.283   7.984  17.501  0.00  0.00    +0.000 HD
ENDROOT
BRANCH   1  16
ATOM     11  C   UNL     1      -0.570  12.748  21.824  0.00  0.00    +0.000 C 
ATOM     12  N   UNL     1      -1.600  12.459  20.856  0.00  0.00    +0.000 N 
ATOM     13  C   UNL     1      -2.853  12.990  20.753  0.00  0.00    +0.000 A 
ATOM     14  N   UNL     1      -3.467  12.453  19.724  0.00  0.00    +0.000 NA
ATOM     15  N   UNL     1      -2.605  11.536  19.141  0.00  0.00    +0.000 NA
ATOM     16  C   UNL     1      -1.484  11.539  19.831  0.00  0.00    +0.000 A 
BRANCH  13  17
ATOM     17  S   UNL     1      -3.466  14.177  21.852  0.00  0.00    +0.000 S 
BRANCH  17  18
ATOM     18  C   UNL     1      -5.129  13.542  22.198  0.00  0.00    +0.000 C 
BRANCH  18  19
ATOM     19  C   UNL     1      -5.211  12.693  23.462  0.00  0.00    +0.000 C 
ATOM     20  N   UNL     1      -4.066  12.330  24.102  0.00  0.00    +0.000 N 
ATOM     21  O   UNL     1      -6.292  12.317  23.919  0.00  0.00    +0.000 OA
ATOM     22  H   UNL     1      -3.154  12.633  23.786  0.00  0.00    +0.000 HD
ATOM     23  H   UNL     1      -4.144  11.777  24.943  0.00  0.00    +0.000 HD
ENDBRANCH  18  19
ENDBRANCH  17  18
ENDBRANCH  13  17
ENDBRANCH   1  16
BRANCH   7  24
ATOM     24  C   UNL     1       3.562   5.929  17.728  0.00  0.00    +0.000 C 
BRANCH  24  25
ATOM     25  C   UNL     1       5.036   6.028  18.012  0.00  0.00    +0.000 A 
ATOM     26  C   UNL     1       5.605   5.351  19.097  0.00  0.00    +0.000 A 
ATOM     27  C   UNL     1       6.976   5.437  19.342  0.00  0.00    +0.000 A 
ATOM     28  C   UNL     1       7.790   6.199  18.504  0.00  0.00    +0.000 A 
ATOM     29  C   UNL     1       7.236   6.869  17.415  0.00  0.00    +0.000 A 
ATOM     30  C   UNL     1       5.866   6.782  17.169  0.00  0.00    +0.000 A 
ENDBRANCH  24  25
ENDBRANCH   7  24
TORSDOF 6
ENDMDL
MODEL 8
REMARK VINA RESULT:      -7.3      3.890     10.422
REMARK  Name = 
REMARK  7 active torsions:
REMARK  status: ('A' for Active; 'I' for Inactive)
REMARK    1  A    between atoms: C_1  and  N_2
REMARK    2  A    between atoms: C_3  and  S_4
REMARK    3  A    between atoms: S_4  and  C_5
REMARK    4  A    between atoms: C_5  and  C_6
REMARK    5  A    between atoms: C_11  and  C_12
REMARK    6  A    between atoms: N_18  and  C_19
REMARK    7  A    between atoms: C_19  and  C_20
REMARK                            x       y       z     vdW  Elec       q    Type
REMARK                         _______ _______ _______ _____ _____    ______ ____
ROOT
ATOM      1  C   UNL     1      -0.321  10.471  19.344  0.00  0.00    +0.000 C 
ATOM      2  C   UNL     1      -0.304   9.268  20.287  0.00  0.00    +0.000 C 
ATOM      3  C   UNL     1       1.146   8.834  20.442  0.00  0.00    +0.000 C 
ATOM      4  N   UNL     1       1.731   8.500  19.143  0.00  0.00    +0.000 N 
ATOM      5  C   UNL     1       2.481   7.341  19.079  0.00  0.00    +0.000 C 
ATOM      6  O   UNL     1       2.595   6.569  20.035  0.00  0.00    +0.000 OA
ATOM      7  N   UNL     1       3.054   7.066  17.874  0.00  0.00    +0.000 N 
ATOM      8  C   UNL     1       1.561   9.494  18.064  0.00  0.00    +0.000 C 
ATOM      9  C   UNL     1       0.110  10.004  17.957  0.00  0.00    +0.000 C 
ATOM     10  H   UNL     1       3.384   7.850  17.338  0.00  0.00    +0.000 HD
ENDROOT
BRANCH   1  16
ATOM     11  C   UNL     1      -2.738   9.902  17.678  0.00  0.00    +0.000 C 
ATOM     12  N   UNL     1      -2.683  10.968  18.648  0.00  0.00    +0.000 N 
ATOM     13  C   UNL     1      -3.633  11.897  18.956  0.00  0.00    +0.000 A 
ATOM     14  N   UNL     1      -3.178  12.685  19.904  0.00  0.00    +0.000 NA
ATOM     15  N   UNL     1      -1.891  12.275  20.219  0.00  0.00    +0.000 NA
ATOM     16  C   UNL     1      -1.594  11.244  19.455  0.00  0.00    +0.000 A 
BRANCH  13  17
ATOM     17  S   UNL     1      -5.173  11.966  18.170  0.00  0.00    +0.000 S 
BRANCH  17  18
ATOM     18  C   UNL     1      -6.302  12.139  19.578  0.00  0.00    +0.000 C 
BRANCH  18  19
ATOM     19  C   UNL     1      -6.953  10.828  20.007  0.00  0.00    +0.000 C 
ATOM     20  N   UNL     1      -7.248   9.887  19.070  0.00  0.00    +0.000 N 
ATOM     21  O   UNL     1      -7.228  10.599  21.187  0.00  0.00    +0.000 OA
ATOM     22  H   UNL     1      -7.020  10.011  18.092  0.00  0.00    +0.000 HD
ATOM     23  H   UNL     1      -7.669   9.022  19.377  0.00  0.00    +0.000 HD
ENDBRANCH  18  19
ENDBRANCH  17  18
ENDBRANCH  13  17
ENDBRANCH   1  16
BRANCH   7  24
ATOM     24  C   UNL     1       3.791   5.835  17.695  0.00  0.00    +0.000 C 
BRANCH  24  25
ATOM     25  C   UNL     1       5.251   6.037  17.995  0.00  0.00    +0.000 A 
ATOM     26  C   UNL     1       6.032   6.894  17.212  0.00  0.00    +0.000 A 
ATOM     27  C   UNL     1       7.382   7.086  17.509  0.00  0.00    +0.000 A 
ATOM     28  C   UNL     1       7.962   6.423  18.590  0.00  0.00    +0.000 A 
ATOM     29  C   UNL     1       7.191   5.575  19.382  0.00  0.00    +0.000 A 
ATOM     30  C   UNL     1       5.842   5.384  19.088  0.00  0.00    +0.000 A 
ENDBRANCH  24  25
ENDBRANCH   7  24
TORSDOF 6
ENDMDL
MODEL 9
REMARK VINA RESULT:      -7.3      3.364     10.431
REMARK  Name = 
REMARK  7 active torsions:
REMARK  status: ('A' for Active; 'I' for Inactive)
REMARK    1  A    between atoms: C_1  and  N_2
REMARK    2  A    between atoms: C_3  and  S_4
REMARK    3  A    between atoms: S_4  and  C_5
REMARK    4  A    between atoms: C_5  and  C_6
REMARK    5  A    between atoms: C_11  and  C_12
REMARK    6  A    between atoms: N_18  and  C_19
REMARK    7  A    between atoms: C_19  and  C_20
REMARK                            x       y       z     vdW  Elec       q    Type
REMARK                         _______ _______ _______ _____ _____    ______ ____
ROOT
ATOM      1  C   UNL     1       0.040  10.526  19.639  0.00  0.00    +0.000 C 
ATOM      2  C   UNL     1      -0.092   9.371  20.632  0.00  0.00    +0.000 C 
ATOM      3  C   UNL     1       1.273   8.706  20.737  0.00  0.00    +0.000 C 
ATOM      4  N   UNL     1       1.722   8.233  19.427  0.00  0.00    +0.000 N 
ATOM      5  C   UNL     1       2.265   6.962  19.378  0.00  0.00    +0.000 C 
ATOM      6  O   UNL     1       2.301   6.216  20.360  0.00  0.00    +0.000 OA
ATOM      7  N   UNL     1       2.719   6.554  18.160  0.00  0.00    +0.000 N 
ATOM      8  C   UNL     1       1.663   9.203  18.315  0.00  0.00    +0.000 C 
ATOM      9  C   UNL     1       0.313   9.945  18.255  0.00  0.00    +0.000 C 
ATOM     10  H   UNL     1       3.145   7.252  17.576  0.00  0.00    +0.000 HD
ENDROOT
BRANCH   1  16
ATOM     11  C   UNL     1       0.182  12.946  21.391  0.00  0.00    +0.000 C 
ATOM     12  N   UNL     1      -0.986  12.600  20.618  0.00  0.00    +0.000 N 
ATOM     13  C   UNL     1      -2.194  13.231  20.561  0.00  0.00    +0.000 A 
ATOM     14  N   UNL     1      -2.979  12.588  19.727  0.00  0.00    +0.000 NA
ATOM     15  N   UNL     1      -2.278  11.498  19.232  0.00  0.00    +0.000 NA
ATOM     16  C   UNL     1      -1.079  11.506  19.777  0.00  0.00    +0.000 A 
BRANCH  13  17
ATOM     17  S   UNL     1      -2.560  14.650  21.481  0.00  0.00    +0.000 S 
BRANCH  17  18
ATOM     18  C   UNL     1      -2.814  13.964  23.139  0.00  0.00    +0.000 C 
BRANCH  18  19
ATOM     19  C   UNL     1      -3.681  12.710  23.159  0.00  0.00    +0.000 C 
ATOM     20  N   UNL     1      -4.843  12.687  22.450  0.00  0.00    +0.000 N 
ATOM     21  O   UNL     1      -3.362  11.713  23.809  0.00  0.00    +0.000 OA
ATOM     22  H   UNL     1      -5.140  13.467  21.878  0.00  0.00    +0.000 HD
ATOM     23  H   UNL     1      -5.397  11.843  22.469  0.00  0.00    +0.000 HD
ENDBRANCH  18  19
ENDBRANCH  17  18
ENDBRANCH  13  17
ENDBRANCH   1  16
BRANCH   7  24
ATOM     24  C   UNL     1       3.231   5.211  18.000  0.00  0.00    +0.000 C 
BRANCH  24  25
ATOM     25  C   UNL     1       4.535   5.220  17.253  0.00  0.00    +0.000 A 
ATOM     26  C   UNL     1       5.485   6.224  17.479  0.00  0.00    +0.000 A 
ATOM     27  C   UNL     1       6.699   6.214  16.792  0.00  0.00    +0.000 A 
ATOM     28  C   UNL     1       6.975   5.201  15.873  0.00  0.00    +0.000 A 
ATOM     29  C   UNL     1       6.041   4.193  15.647  0.00  0.00    +0.000 A 
ATOM     30  C   UNL     1       4.828   4.200  16.334  0.00  0.00    +0.000 A 
ENDBRANCH  24  25
ENDBRANCH   7  24
TORSDOF 6
ENDMDL
