MODEL 1
REMARK VINA RESULT:      -6.4      0.000      0.000
REMARK  Name = 
REMARK  12 active torsions:
REMARK  status: ('A' for Active; 'I' for Inactive)
REMARK    1  A    between atoms: C_1  and  C_2
REMARK    2  A    between atoms: C_2  and  C_3
REMARK    3  A    between atoms: C_2  and  C_4
REMARK    4  A    between atoms: C_4  and  C_5
REMARK    5  A    between atoms: C_5  and  C_6
REMARK    6  A    between atoms: C_7  and  C_8
REMARK    7  A    between atoms: C_8  and  O_10
REMARK    8  A    between atoms: C_11  and  C_12
REMARK    9  A    between atoms: C_25  and  O_26
REMARK   10  A    between atoms: O_26  and  C_27
REMARK   11  A    between atoms: C_27  and  C_28
REMARK   12  A    between atoms: C_27  and  C_29
REMARK                            x       y       z     vdW  Elec       q    Type
REMARK                         _______ _______ _______ _____ _____    ______ ____
ROOT
ATOM      1  C   UNL     1      -1.884  12.938  20.078  0.00  0.00    +0.000 C 
ATOM      2  C   UNL     1      -0.528  12.860  20.024  0.00  0.00    +0.000 C 
ATOM      3  C   UNL     1       0.149  12.029  18.940  0.00  0.00    +0.000 C 
ATOM      4  O   UNL     1      -0.597  11.939  17.711  0.00  0.00    +0.000 OA
ATOM      5  C   UNL     1      -1.943  11.779  17.865  0.00  0.00    +0.000 A 
ATOM      6  C   UNL     1      -2.599  11.151  16.804  0.00  0.00    +0.000 A 
ATOM      7  C   UNL     1      -3.946  10.817  16.914  0.00  0.00    +0.000 A 
ATOM      8  C   UNL     1      -4.620  11.094  18.097  0.00  0.00    +0.000 A 
ATOM      9  C   UNL     1      -3.970  11.797  19.123  0.00  0.00    +0.000 A 
ATOM     10  C   UNL     1      -2.622  12.175  19.024  0.00  0.00    +0.000 A 
ENDROOT
BRANCH   3  11
ATOM     11  C   UNL     1       0.553  10.633  19.438  0.00  0.00    +0.000 A 
ATOM     12  C   UNL     1       0.134  10.145  20.707  0.00  0.00    +0.000 A 
ATOM     13  C   UNL     1       0.517   8.883  21.169  0.00  0.00    +0.000 A 
ATOM     14  C   UNL     1       1.313   8.124  20.349  0.00  0.00    +0.000 A 
ATOM     15  C   UNL     1       1.732   8.578  19.122  0.00  0.00    +0.000 A 
ATOM     16  C   UNL     1       1.368   9.820  18.636  0.00  0.00    +0.000 A 
ATOM     17  O   UNL     1       2.520   7.677  18.478  0.00  0.00    +0.000 OA
ATOM     18  C   UNL     1       2.575   6.620  19.459  0.00  0.00    +0.000 C 
ATOM     19  O   UNL     1       1.786   6.882  20.637  0.00  0.00    +0.000 OA
ENDBRANCH   3  11
BRANCH   2  20
ATOM     20  C   UNL     1       0.501  13.555  20.858  0.00  0.00    +0.000 C 
ATOM     21  O   UNL     1       0.643  13.321  22.052  0.00  0.00    +0.000 OA
BRANCH  20  22
ATOM     22  O   UNL     1       1.255  14.490  20.259  0.00  0.00    +0.000 OA
ATOM     23  H   UNL     1       0.833  15.344  20.095  0.00  0.00    +0.000 HD
ENDBRANCH  20  22
ENDBRANCH   2  20
BRANCH   1  24
ATOM     24  C   UNL     1      -2.714  13.752  21.046  0.00  0.00    +0.000 C 
BRANCH  24  25
ATOM     25  C   UNL     1      -2.829  13.095  22.420  0.00  0.00    +0.000 C 
BRANCH  25  27
ATOM     26  C   UNL     1      -4.422  12.733  24.302  0.00  0.00    +0.000 C 
ATOM     27  C   UNL     1      -4.273  12.711  22.782  0.00  0.00    +0.000 C 
ATOM     28  C   UNL     1      -5.298  13.643  22.134  0.00  0.00    +0.000 C 
ENDBRANCH  25  27
ENDBRANCH  24  25
ENDBRANCH   1  24
BRANCH   8  29
ATOM     29  O   UNL     1      -5.908  10.738  18.382  0.00  0.00    +0.000 OA
BRANCH  29  30
ATOM     30  C   UNL     1      -6.538  11.332  19.526  0.00  0.00    +0.000 C 
ATOM     31  C   UNL     1      -7.518  12.437  19.125  0.00  0.00    +0.000 C 
ATOM     32  C   UNL     1      -7.311  10.209  20.216  0.00  0.00    +0.000 C 
ENDBRANCH  29  30
ENDBRANCH   8  29
TORSDOF 8
ENDMDL
MODEL 2
REMARK VINA RESULT:      -6.3      2.665      6.036
REMARK  Name = 
REMARK  12 active torsions:
REMARK  status: ('A' for Active; 'I' for Inactive)
REMARK    1  A    between atoms: C_1  and  C_2
REMARK    2  A    between atoms: C_2  and  C_3
REMARK    3  A    between atoms: C_2  and  C_4
REMARK    4  A    between atoms: C_4  and  C_5
REMARK    5  A    between atoms: C_5  and  C_6
REMARK    6  A    between atoms: C_7  and  C_8
REMARK    7  A    between atoms: C_8  and  O_10
REMARK    8  A    between atoms: C_11  and  C_12
REMARK    9  A    between atoms: C_25  and  O_26
REMARK   10  A    between atoms: O_26  and  C_27
REMARK   11  A    between atoms: C_27  and  C_28
REMARK   12  A    between atoms: C_27  and  C_29
REMARK                            x       y       z     vdW  Elec       q    Type
REMARK                         _______ _______ _______ _____ _____    ______ ____
ROOT
ATOM      1  C   UNL     1       0.212  13.516  21.411  0.00  0.00    +0.000 C 
ATOM      2  C   UNL     1      -0.194  12.220  21.476  0.00  0.00    +0.000 C 
ATOM      3  C   UNL     1       0.199  11.238  20.378  0.00  0.00    +0.000 C 
ATOM      4  O   UNL     1       1.456  11.537  19.740  0.00  0.00    +0.000 OA
ATOM      5  C   UNL     1       1.677  12.861  19.496  0.00  0.00    +0.000 A 
ATOM      6  C   UNL     1       2.546  13.141  18.439  0.00  0.00    +0.000 A 
ATOM      7  C   UNL     1       2.736  14.455  18.019  0.00  0.00    +0.000 A 
ATOM      8  C   UNL     1       2.035  15.476  18.647  0.00  0.00    +0.000 A 
ATOM      9  C   UNL     1       1.229  15.190  19.758  0.00  0.00    +0.000 A 
ATOM     10  C   UNL     1       1.045  13.878  20.223  0.00  0.00    +0.000 A 
ENDROOT
BRANCH   3  11
ATOM     11  C   UNL     1      -0.912  11.049  19.335  0.00  0.00    +0.000 A 
ATOM     12  C   UNL     1      -0.749  10.178  18.223  0.00  0.00    +0.000 A 
ATOM     13  C   UNL     1      -1.752  10.020  17.263  0.00  0.00    +0.000 A 
ATOM     14  C   UNL     1      -2.909  10.736  17.434  0.00  0.00    +0.000 A 
ATOM     15  C   UNL     1      -3.086  11.585  18.499  0.00  0.00    +0.000 A 
ATOM     16  C   UNL     1      -2.114  11.761  19.466  0.00  0.00    +0.000 A 
ATOM     17  O   UNL     1      -4.297  12.203  18.473  0.00  0.00    +0.000 OA
ATOM     18  C   UNL     1      -4.844  11.669  17.248  0.00  0.00    +0.000 C 
ATOM     19  O   UNL     1      -3.982  10.713  16.598  0.00  0.00    +0.000 OA
ENDBRANCH   3  11
BRANCH   2  20
ATOM     20  C   UNL     1      -0.956  11.512  22.551  0.00  0.00    +0.000 C 
ATOM     21  O   UNL     1      -2.135  11.749  22.782  0.00  0.00    +0.000 OA
BRANCH  20  22
ATOM     22  O   UNL     1      -0.288  10.618  23.298  0.00  0.00    +0.000 OA
ATOM     23  H   UNL     1      -0.679  10.393  24.152  0.00  0.00    +0.000 HD
ENDBRANCH  20  22
ENDBRANCH   2  20
BRANCH   1  24
ATOM     24  C   UNL     1      -0.041  14.603  22.432  0.00  0.00    +0.000 C 
BRANCH  24  25
ATOM     25  C   UNL     1      -1.505  15.037  22.480  0.00  0.00    +0.000 C 
BRANCH  25  27
ATOM     26  C   UNL     1      -3.578  14.625  21.160  0.00  0.00    +0.000 C 
ATOM     27  C   UNL     1      -2.144  15.147  21.086  0.00  0.00    +0.000 C 
ATOM     28  C   UNL     1      -2.127  16.579  20.553  0.00  0.00    +0.000 C 
ENDBRANCH  25  27
ENDBRANCH  24  25
ENDBRANCH   1  24
BRANCH   8  29
ATOM     29  O   UNL     1       2.047  16.793  18.281  0.00  0.00    +0.000 OA
BRANCH  29  30
ATOM     30  C   UNL     1       0.810  17.517  18.314  0.00  0.00    +0.000 C 
ATOM     31  C   UNL     1       0.829  18.626  19.368  0.00  0.00    +0.000 C 
ATOM     32  C   UNL     1       0.649  18.149  16.932  0.00  0.00    +0.000 C 
ENDBRANCH  29  30
ENDBRANCH   8  29
TORSDOF 8
ENDMDL
MODEL 3
REMARK VINA RESULT:      -6.2      2.190      5.458
REMARK  Name = 
REMARK  12 active torsions:
REMARK  status: ('A' for Active; 'I' for Inactive)
REMARK    1  A    between atoms: C_1  and  C_2
REMARK    2  A    between atoms: C_2  and  C_3
REMARK    3  A    between atoms: C_2  and  C_4
REMARK    4  A    between atoms: C_4  and  C_5
REMARK    5  A    between atoms: C_5  and  C_6
REMARK    6  A    between atoms: C_7  and  C_8
REMARK    7  A    between atoms: C_8  and  O_10
REMARK    8  A    between atoms: C_11  and  C_12
REMARK    9  A    between atoms: C_25  and  O_26
REMARK   10  A    between atoms: O_26  and  C_27
REMARK   11  A    between atoms: C_27  and  C_28
REMARK   12  A    between atoms: C_27  and  C_29
REMARK                            x       y       z     vdW  Elec       q    Type
REMARK                         _______ _______ _______ _____ _____    ______ ____
ROOT
ATOM      1  C   UNL     1      -1.039  10.757  19.392  0.00  0.00    +0.000 C 
ATOM      2  C   UNL     1       0.297  10.573  19.565  0.00  0.00    +0.000 C 
ATOM      3  C   UNL     1       1.061  11.412  20.583  0.00  0.00    +0.000 C 
ATOM      4  O   UNL     1       0.271  11.837  21.711  0.00  0.00    +0.000 OA
ATOM      5  C   UNL     1      -0.999  12.234  21.407  0.00  0.00    +0.000 A 
ATOM      6  C   UNL     1      -1.577  13.137  22.303  0.00  0.00    +0.000 A 
ATOM      7  C   UNL     1      -2.814  13.709  22.018  0.00  0.00    +0.000 A 
ATOM      8  C   UNL     1      -3.451  13.390  20.826  0.00  0.00    +0.000 A 
ATOM      9  C   UNL     1      -2.898  12.422  19.975  0.00  0.00    +0.000 A 
ATOM     10  C   UNL     1      -1.667  11.805  20.254  0.00  0.00    +0.000 A 
ENDROOT
BRANCH   3  11
ATOM     11  C   UNL     1       1.780  12.606  19.938  0.00  0.00    +0.000 A 
ATOM     12  C   UNL     1       1.655  12.889  18.550  0.00  0.00    +0.000 A 
ATOM     13  C   UNL     1       2.324  13.964  17.958  0.00  0.00    +0.000 A 
ATOM     14  C   UNL     1       3.108  14.744  18.769  0.00  0.00    +0.000 A 
ATOM     15  C   UNL     1       3.246  14.485  20.111  0.00  0.00    +0.000 A 
ATOM     16  C   UNL     1       2.595  13.432  20.726  0.00  0.00    +0.000 A 
ATOM     17  O   UNL     1       4.075  15.370  20.726  0.00  0.00    +0.000 OA
ATOM     18  C   UNL     1       4.469  16.191  19.606  0.00  0.00    +0.000 C 
ATOM     19  O   UNL     1       3.836  15.820  18.365  0.00  0.00    +0.000 OA
ENDBRANCH   3  11
BRANCH   2  20
ATOM     20  C   UNL     1       1.210   9.568  18.938  0.00  0.00    +0.000 C 
ATOM     21  O   UNL     1       1.543   9.630  17.761  0.00  0.00    +0.000 OA
BRANCH  20  22
ATOM     22  O   UNL     1       1.633   8.551  19.707  0.00  0.00    +0.000 OA
ATOM     23  H   UNL     1       2.006   7.788  19.245  0.00  0.00    +0.000 HD
ENDBRANCH  20  22
ENDBRANCH   2  20
BRANCH   1  24
ATOM     24  C   UNL     1      -1.955   9.982  18.471  0.00  0.00    +0.000 C 
BRANCH  24  25
ATOM     25  C   UNL     1      -1.903  10.485  17.029  0.00  0.00    +0.000 C 
BRANCH  25  27
ATOM     26  C   UNL     1      -4.230  11.283  16.629  0.00  0.00    +0.000 C 
ATOM     27  C   UNL     1      -3.203  10.216  16.253  0.00  0.00    +0.000 C 
ATOM     28  C   UNL     1      -2.981  10.202  14.741  0.00  0.00    +0.000 C 
ENDBRANCH  25  27
ENDBRANCH  24  25
ENDBRANCH   1  24
BRANCH   8  29
ATOM     29  O   UNL     1      -4.615  13.944  20.372  0.00  0.00    +0.000 OA
BRANCH  29  30
ATOM     30  C   UNL     1      -5.606  13.073  19.811  0.00  0.00    +0.000 C 
ATOM     31  C   UNL     1      -6.487  12.443  20.892  0.00  0.00    +0.000 C 
ATOM     32  C   UNL     1      -6.478  13.946  18.908  0.00  0.00    +0.000 C 
ENDBRANCH  29  30
ENDBRANCH   8  29
TORSDOF 8
ENDMDL
MODEL 4
REMARK VINA RESULT:      -6.2      2.617      5.212
REMARK  Name = 
REMARK  12 active torsions:
REMARK  status: ('A' for Active; 'I' for Inactive)
REMARK    1  A    between atoms: C_1  and  C_2
REMARK    2  A    between atoms: C_2  and  C_3
REMARK    3  A    between atoms: C_2  and  C_4
REMARK    4  A    between atoms: C_4  and  C_5
REMARK    5  A    between atoms: C_5  and  C_6
REMARK    6  A    between atoms: C_7  and  C_8
REMARK    7  A    between atoms: C_8  and  O_10
REMARK    8  A    between atoms: C_11  and  C_12
REMARK    9  A    between atoms: C_25  and  O_26
REMARK   10  A    between atoms: O_26  and  C_27
REMARK   11  A    between atoms: C_27  and  C_28
REMARK   12  A    between atoms: C_27  and  C_29
REMARK                            x       y       z     vdW  Elec       q    Type
REMARK                         _______ _______ _______ _____ _____    ______ ____
ROOT
ATOM      1  C   UNL     1      -3.296  12.053  19.213  0.00  0.00    +0.000 C 
ATOM      2  C   UNL     1      -2.169  11.580  18.619  0.00  0.00    +0.000 C 
ATOM      3  C   UNL     1      -0.862  11.510  19.400  0.00  0.00    +0.000 C 
ATOM      4  O   UNL     1      -1.030  11.313  20.818  0.00  0.00    +0.000 OA
ATOM      5  C   UNL     1      -2.053  12.020  21.380  0.00  0.00    +0.000 A 
ATOM      6  C   UNL     1      -1.913  12.300  22.741  0.00  0.00    +0.000 A 
ATOM      7  C   UNL     1      -2.830  13.129  23.382  0.00  0.00    +0.000 A 
ATOM      8  C   UNL     1      -3.867  13.690  22.648  0.00  0.00    +0.000 A 
ATOM      9  C   UNL     1      -4.042  13.336  21.302  0.00  0.00    +0.000 A 
ATOM     10  C   UNL     1      -3.150  12.477  20.639  0.00  0.00    +0.000 A 
ENDROOT
BRANCH   3  11
ATOM     11  C   UNL     1       0.053  12.712  19.121  0.00  0.00    +0.000 A 
ATOM     12  C   UNL     1      -0.442  14.045  19.137  0.00  0.00    +0.000 A 
ATOM     13  C   UNL     1       0.386  15.137  18.864  0.00  0.00    +0.000 A 
ATOM     14  C   UNL     1       1.702  14.878  18.581  0.00  0.00    +0.000 A 
ATOM     15  C   UNL     1       2.200  13.598  18.556  0.00  0.00    +0.000 A 
ATOM     16  C   UNL     1       1.407  12.497  18.824  0.00  0.00    +0.000 A 
ATOM     17  O   UNL     1       3.523  13.563  18.244  0.00  0.00    +0.000 OA
ATOM     18  C   UNL     1       3.788  14.967  18.042  0.00  0.00    +0.000 C 
ATOM     19  O   UNL     1       2.645  15.812  18.284  0.00  0.00    +0.000 OA
ENDBRANCH   3  11
BRANCH   2  20
ATOM     20  C   UNL     1      -1.981  11.003  17.251  0.00  0.00    +0.000 C 
ATOM     21  O   UNL     1      -1.611   9.849  17.073  0.00  0.00    +0.000 OA
BRANCH  20  22
ATOM     22  O   UNL     1      -2.197  11.813  16.202  0.00  0.00    +0.000 OA
ATOM     23  H   UNL     1      -2.669  12.636  16.384  0.00  0.00    +0.000 HD
ENDBRANCH  20  22
ENDBRANCH   2  20
BRANCH   1  24
ATOM     24  C   UNL     1      -4.679  12.142  18.606  0.00  0.00    +0.000 C 
BRANCH  24  25
ATOM     25  C   UNL     1      -5.389  10.789  18.558  0.00  0.00    +0.000 C 
BRANCH  25  27
ATOM     26  C   UNL     1      -7.228  10.464  20.207  0.00  0.00    +0.000 C 
ATOM     27  C   UNL     1      -6.906  10.901  18.779  0.00  0.00    +0.000 C 
ATOM     28  C   UNL     1      -7.425  12.317  18.526  0.00  0.00    +0.000 C 
ENDBRANCH  25  27
ENDBRANCH  24  25
ENDBRANCH   1  24
BRANCH   8  29
ATOM     29  O   UNL     1      -4.778  14.592  23.119  0.00  0.00    +0.000 OA
BRANCH  29  30
ATOM     30  C   UNL     1      -6.170  14.255  23.037  0.00  0.00    +0.000 C 
ATOM     31  C   UNL     1      -6.515  13.048  23.912  0.00  0.00    +0.000 C 
ATOM     32  C   UNL     1      -6.935  15.474  23.552  0.00  0.00    +0.000 C 
ENDBRANCH  29  30
ENDBRANCH   8  29
TORSDOF 8
ENDMDL
MODEL 5
REMARK VINA RESULT:      -6.2      2.114      5.573
REMARK  Name = 
REMARK  12 active torsions:
REMARK  status: ('A' for Active; 'I' for Inactive)
REMARK    1  A    between atoms: C_1  and  C_2
REMARK    2  A    between atoms: C_2  and  C_3
REMARK    3  A    between atoms: C_2  and  C_4
REMARK    4  A    between atoms: C_4  and  C_5
REMARK    5  A    between atoms: C_5  and  C_6
REMARK    6  A    between atoms: C_7  and  C_8
REMARK    7  A    between atoms: C_8  and  O_10
REMARK    8  A    between atoms: C_11  and  C_12
REMARK    9  A    between atoms: C_25  and  O_26
REMARK   10  A    between atoms: O_26  and  C_27
REMARK   11  A    between atoms: C_27  and  C_28
REMARK   12  A    between atoms: C_27  and  C_29
REMARK                            x       y       z     vdW  Elec       q    Type
REMARK                         _______ _______ _______ _____ _____    ______ ____
ROOT
ATOM      1  C   UNL     1      -0.856  11.144  19.300  0.00  0.00    +0.000 C 
ATOM      2  C   UNL     1       0.501  11.102  19.376  0.00  0.00    +0.000 C 
ATOM      3  C   UNL     1       1.221  11.725  20.566  0.00  0.00    +0.000 C 
ATOM      4  O   UNL     1       0.461  11.715  21.790  0.00  0.00    +0.000 OA
ATOM      5  C   UNL     1      -0.865  12.005  21.645  0.00  0.00    +0.000 A 
ATOM      6  C   UNL     1      -1.489  12.541  22.774  0.00  0.00    +0.000 A 
ATOM      7  C   UNL     1      -2.802  12.997  22.696  0.00  0.00    +0.000 A 
ATOM      8  C   UNL     1      -3.472  12.934  21.481  0.00  0.00    +0.000 A 
ATOM      9  C   UNL     1      -2.861  12.320  20.378  0.00  0.00    +0.000 A 
ATOM     10  C   UNL     1      -1.550  11.822  20.438  0.00  0.00    +0.000 A 
ENDROOT
BRANCH   3  11
ATOM     11  C   UNL     1       1.747  13.135  20.260  0.00  0.00    +0.000 A 
ATOM     12  C   UNL     1       2.972  13.608  20.806  0.00  0.00    +0.000 A 
ATOM     13  C   UNL     1       3.441  14.898  20.544  0.00  0.00    +0.000 A 
ATOM     14  C   UNL     1       2.675  15.697  19.735  0.00  0.00    +0.000 A 
ATOM     15  C   UNL     1       1.486  15.262  19.201  0.00  0.00    +0.000 A 
ATOM     16  C   UNL     1       0.997  13.991  19.439  0.00  0.00    +0.000 A 
ATOM     17  O   UNL     1       0.882  16.212  18.439  0.00  0.00    +0.000 OA
ATOM     18  C   UNL     1       1.813  17.306  18.587  0.00  0.00    +0.000 C 
ATOM     19  O   UNL     1       2.970  16.977  19.382  0.00  0.00    +0.000 OA
ENDBRANCH   3  11
BRANCH   2  20
ATOM     20  C   UNL     1       1.486  10.439  18.467  0.00  0.00    +0.000 C 
ATOM     21  O   UNL     1       1.767   9.250  18.561  0.00  0.00    +0.000 OA
BRANCH  20  22
ATOM     22  O   UNL     1       2.097  11.206  17.550  0.00  0.00    +0.000 OA
ATOM     23  H   UNL     1       2.135  12.153  17.737  0.00  0.00    +0.000 HD
ENDBRANCH  20  22
ENDBRANCH   2  20
BRANCH   1  24
ATOM     24  C   UNL     1      -1.729  10.535  18.225  0.00  0.00    +0.000 C 
BRANCH  24  25
ATOM     25  C   UNL     1      -1.976  11.489  17.056  0.00  0.00    +0.000 C 
BRANCH  25  27
ATOM     26  C   UNL     1      -2.967   9.674  15.665  0.00  0.00    +0.000 C 
ATOM     27  C   UNL     1      -3.189  11.087  16.202  0.00  0.00    +0.000 C 
ATOM     28  C   UNL     1      -4.499  11.158  16.987  0.00  0.00    +0.000 C 
ENDBRANCH  25  27
ENDBRANCH  24  25
ENDBRANCH   1  24
BRANCH   8  29
ATOM     29  O   UNL     1      -4.721  13.430  21.234  0.00  0.00    +0.000 OA
BRANCH  29  30
ATOM     30  C   UNL     1      -5.523  12.779  20.239  0.00  0.00    +0.000 C 
ATOM     31  C   UNL     1      -6.654  11.962  20.867  0.00  0.00    +0.000 C 
ATOM     32  C   UNL     1      -6.131  13.893  19.387  0.00  0.00    +0.000 C 
ENDBRANCH  29  30
ENDBRANCH   8  29
TORSDOF 8
ENDMDL
MODEL 6
REMARK VINA RESULT:      -6.1      2.318      7.183
REMARK  Name = 
REMARK  12 active torsions:
REMARK  status: ('A' for Active; 'I' for Inactive)
REMARK    1  A    between atoms: C_1  and  C_2
REMARK    2  A    between atoms: C_2  and  C_3
REMARK    3  A    between atoms: C_2  and  C_4
REMARK    4  A    between atoms: C_4  and  C_5
REMARK    5  A    between atoms: C_5  and  C_6
REMARK    6  A    between atoms: C_7  and  C_8
REMARK    7  A    between atoms: C_8  and  O_10
REMARK    8  A    between atoms: C_11  and  C_12
REMARK    9  A    between atoms: C_25  and  O_26
REMARK   10  A    between atoms: O_26  and  C_27
REMARK   11  A    between atoms: C_27  and  C_28
REMARK   12  A    between atoms: C_27  and  C_29
REMARK                            x       y       z     vdW  Elec       q    Type
REMARK                         _______ _______ _______ _____ _____    ______ ____
ROOT
ATOM      1  C   UNL     1       0.413  12.841  21.489  0.00  0.00    +0.000 C 
ATOM      2  C   UNL     1      -0.438  13.482  22.332  0.00  0.00    +0.000 C 
ATOM      3  C   UNL     1      -1.469  12.691  23.129  0.00  0.00    +0.000 C 
ATOM      4  O   UNL     1      -1.063  11.345  23.449  0.00  0.00    +0.000 OA
ATOM      5  C   UNL     1      -0.415  10.687  22.445  0.00  0.00    +0.000 A 
ATOM      6  C   UNL     1      -0.504   9.293  22.485  0.00  0.00    +0.000 A 
ATOM      7  C   UNL     1       0.005   8.530  21.438  0.00  0.00    +0.000 A 
ATOM      8  C   UNL     1       0.580   9.170  20.348  0.00  0.00    +0.000 A 
ATOM      9  C   UNL     1       0.736  10.564  20.359  0.00  0.00    +0.000 A 
ATOM     10  C   UNL     1       0.260  11.355  21.417  0.00  0.00    +0.000 A 
ENDROOT
BRANCH   3  11
ATOM     11  C   UNL     1      -2.855  12.701  22.468  0.00  0.00    +0.000 A 
ATOM     12  C   UNL     1      -3.008  12.831  21.060  0.00  0.00    +0.000 A 
ATOM     13  C   UNL     1      -4.270  12.860  20.460  0.00  0.00    +0.000 A 
ATOM     14  C   UNL     1      -5.363  12.755  21.281  0.00  0.00    +0.000 A 
ATOM     15  C   UNL     1      -5.238  12.633  22.643  0.00  0.00    +0.000 A 
ATOM     16  C   UNL     1      -4.004  12.598  23.266  0.00  0.00    +0.000 A 
ATOM     17  O   UNL     1      -6.443  12.554  23.269  0.00  0.00    +0.000 OA
ATOM     18  C   UNL     1      -7.338  12.676  22.143  0.00  0.00    +0.000 C 
ATOM     19  O   UNL     1      -6.661  12.773  20.874  0.00  0.00    +0.000 OA
ENDBRANCH   3  11
BRANCH   2  20
ATOM     20  C   UNL     1      -0.503  14.930  22.703  0.00  0.00    +0.000 C 
ATOM     21  O   UNL     1      -0.210  15.333  23.822  0.00  0.00    +0.000 OA
BRANCH  20  22
ATOM     22  O   UNL     1      -0.939  15.790  21.768  0.00  0.00    +0.000 OA
ATOM     23  H   UNL     1      -1.827  15.635  21.420  0.00  0.00    +0.000 HD
ENDBRANCH  20  22
ENDBRANCH   2  20
BRANCH   1  24
ATOM     24  C   UNL     1       1.523  13.460  20.668  0.00  0.00    +0.000 C 
BRANCH  24  25
ATOM     25  C   UNL     1       1.004  14.185  19.427  0.00  0.00    +0.000 C 
BRANCH  25  27
ATOM     26  C   UNL     1       2.955  15.107  18.181  0.00  0.00    +0.000 C 
ATOM     27  C   UNL     1       1.908  13.994  18.199  0.00  0.00    +0.000 C 
ATOM     28  C   UNL     1       2.588  12.625  18.189  0.00  0.00    +0.000 C 
ENDBRANCH  25  27
ENDBRANCH  24  25
ENDBRANCH   1  24
BRANCH   8  29
ATOM     29  O   UNL     1       1.032   8.559  19.212  0.00  0.00    +0.000 OA
BRANCH  29  30
ATOM     30  C   UNL     1       2.315   7.919  19.252  0.00  0.00    +0.000 C 
ATOM     31  C   UNL     1       2.207   6.456  19.687  0.00  0.00    +0.000 C 
ATOM     32  C   UNL     1       2.862   7.973  17.826  0.00  0.00    +0.000 C 
ENDBRANCH  29  30
ENDBRANCH   8  29
TORSDOF 8
ENDMDL
MODEL 7
REMARK VINA RESULT:      -6.1      2.231      5.674
REMARK  Name = 
REMARK  12 active torsions:
REMARK  status: ('A' for Active; 'I' for Inactive)
REMARK    1  A    between atoms: C_1  and  C_2
REMARK    2  A    between atoms: C_2  and  C_3
REMARK    3  A    between atoms: C_2  and  C_4
REMARK    4  A    between atoms: C_4  and  C_5
REMARK    5  A    between atoms: C_5  and  C_6
REMARK    6  A    between atoms: C_7  and  C_8
REMARK    7  A    between atoms: C_8  and  O_10
REMARK    8  A    between atoms: C_11  and  C_12
REMARK    9  A    between atoms: C_25  and  O_26
REMARK   10  A    between atoms: O_26  and  C_27
REMARK   11  A    between atoms: C_27  and  C_28
REMARK   12  A    between atoms: C_27  and  C_29
REMARK                            x       y       z     vdW  Elec       q    Type
REMARK                         _______ _______ _______ _____ _____    ______ ____
ROOT
ATOM      1  C   UNL     1      -0.976  10.966  19.250  0.00  0.00    +0.000 C 
ATOM      2  C   UNL     1       0.382  10.980  19.308  0.00  0.00    +0.000 C 
ATOM      3  C   UNL     1       1.097  11.911  20.280  0.00  0.00    +0.000 C 
ATOM      4  O   UNL     1       0.352  12.202  21.478  0.00  0.00    +0.000 OA
ATOM      5  C   UNL     1      -0.983  12.410  21.289  0.00  0.00    +0.000 A 
ATOM      6  C   UNL     1      -1.610  13.207  22.250  0.00  0.00    +0.000 A 
ATOM      7  C   UNL     1      -2.936  13.593  22.081  0.00  0.00    +0.000 A 
ATOM      8  C   UNL     1      -3.618  13.197  20.938  0.00  0.00    +0.000 A 
ATOM      9  C   UNL     1      -3.003  12.331  20.021  0.00  0.00    +0.000 A 
ATOM     10  C   UNL     1      -1.677  11.900  20.184  0.00  0.00    +0.000 A 
ENDROOT
BRANCH   3  11
ATOM     11  C   UNL     1       1.577  13.206  19.606  0.00  0.00    +0.000 A 
ATOM     12  C   UNL     1       2.930  13.379  19.204  0.00  0.00    +0.000 A 
ATOM     13  C   UNL     1       3.371  14.564  18.609  0.00  0.00    +0.000 A 
ATOM     14  C   UNL     1       2.447  15.560  18.422  0.00  0.00    +0.000 A 
ATOM     15  C   UNL     1       1.136  15.415  18.808  0.00  0.00    +0.000 A 
ATOM     16  C   UNL     1       0.669  14.254  19.396  0.00  0.00    +0.000 A 
ATOM     17  O   UNL     1       0.393  16.522  18.543  0.00  0.00    +0.000 OA
ATOM     18  C   UNL     1       1.399  17.391  17.979  0.00  0.00    +0.000 C 
ATOM     19  O   UNL     1       2.699  16.777  17.870  0.00  0.00    +0.000 OA
ENDBRANCH   3  11
BRANCH   2  20
ATOM     20  C   UNL     1       1.376  10.128  18.585  0.00  0.00    +0.000 C 
ATOM     21  O   UNL     1       1.725   9.031  19.004  0.00  0.00    +0.000 OA
BRANCH  20  22
ATOM     22  O   UNL     1       1.916  10.624  17.460  0.00  0.00    +0.000 OA
ATOM     23  H   UNL     1       2.659  11.233  17.571  0.00  0.00    +0.000 HD
ENDBRANCH  20  22
ENDBRANCH   2  20
BRANCH   1  24
ATOM     24  C   UNL     1      -1.844  10.075  18.388  0.00  0.00    +0.000 C 
BRANCH  24  25
ATOM     25  C   UNL     1      -1.892  10.531  16.931  0.00  0.00    +0.000 C 
BRANCH  25  27
ATOM     26  C   UNL     1      -4.252  11.270  16.627  0.00  0.00    +0.000 C 
ATOM     27  C   UNL     1      -3.228  10.204  16.244  0.00  0.00    +0.000 C 
ATOM     28  C   UNL     1      -3.091  10.120  14.723  0.00  0.00    +0.000 C 
ENDBRANCH  25  27
ENDBRANCH  24  25
ENDBRANCH   1  24
BRANCH   8  29
ATOM     29  O   UNL     1      -4.885  13.579  20.594  0.00  0.00    +0.000 OA
BRANCH  29  30
ATOM     30  C   UNL     1      -5.859  13.710  21.638  0.00  0.00    +0.000 C 
ATOM     31  C   UNL     1      -6.694  14.982  21.480  0.00  0.00    +0.000 C 
ATOM     32  C   UNL     1      -6.779  12.495  21.516  0.00  0.00    +0.000 C 
ENDBRANCH  29  30
ENDBRANCH   8  29
TORSDOF 8
ENDMDL
MODEL 8
REMARK VINA RESULT:      -6.1      2.270      5.702
REMARK  Name = 
REMARK  12 active torsions:
REMARK  status: ('A' for Active; 'I' for Inactive)
REMARK    1  A    between atoms: C_1  and  C_2
REMARK    2  A    between atoms: C_2  and  C_3
REMARK    3  A    between atoms: C_2  and  C_4
REMARK    4  A    between atoms: C_4  and  C_5
REMARK    5  A    between atoms: C_5  and  C_6
REMARK    6  A    between atoms: C_7  and  C_8
REMARK    7  A    between atoms: C_8  and  O_10
REMARK    8  A    between atoms: C_11  and  C_12
REMARK    9  A    between atoms: C_25  and  O_26
REMARK   10  A    between atoms: O_26  and  C_27
REMARK   11  A    between atoms: C_27  and  C_28
REMARK   12  A    between atoms: C_27  and  C_29
REMARK                            x       y       z     vdW  Elec       q    Type
REMARK                         _______ _______ _______ _____ _____    ______ ____
ROOT
ATOM      1  C   UNL     1      -0.759  11.032  19.348  0.00  0.00    +0.000 C 
ATOM      2  C   UNL     1       0.598  11.086  19.299  0.00  0.00    +0.000 C 
ATOM      3  C   UNL     1       1.375  11.837  20.374  0.00  0.00    +0.000 C 
ATOM      4  O   UNL     1       0.728  11.861  21.662  0.00  0.00    +0.000 OA
ATOM      5  C   UNL     1      -0.622  12.052  21.625  0.00  0.00    +0.000 A 
ATOM      6  C   UNL     1      -1.181  12.622  22.771  0.00  0.00    +0.000 A 
ATOM      7  C   UNL     1      -2.525  12.983  22.788  0.00  0.00    +0.000 A 
ATOM      8  C   UNL     1      -3.294  12.791  21.647  0.00  0.00    +0.000 A 
ATOM      9  C   UNL     1      -2.741  12.143  20.532  0.00  0.00    +0.000 A 
ATOM     10  C   UNL     1      -1.397  11.740  20.501  0.00  0.00    +0.000 A 
ENDROOT
BRANCH   3  11
ATOM     11  C   UNL     1       1.766  13.255  19.933  0.00  0.00    +0.000 A 
ATOM     12  C   UNL     1       0.902  14.051  19.131  0.00  0.00    +0.000 A 
ATOM     13  C   UNL     1       1.266  15.334  18.713  0.00  0.00    +0.000 A 
ATOM     14  C   UNL     1       2.492  15.803  19.107  0.00  0.00    +0.000 A 
ATOM     15  C   UNL     1       3.344  15.050  19.878  0.00  0.00    +0.000 A 
ATOM     16  C   UNL     1       3.012  13.779  20.309  0.00  0.00    +0.000 A 
ATOM     17  O   UNL     1       4.509  15.697  20.145  0.00  0.00    +0.000 OA
ATOM     18  C   UNL     1       4.303  16.930  19.424  0.00  0.00    +0.000 C 
ATOM     19  O   UNL     1       3.013  17.019  18.787  0.00  0.00    +0.000 OA
ENDBRANCH   3  11
BRANCH   2  20
ATOM     20  C   UNL     1       1.545  10.429  18.345  0.00  0.00    +0.000 C 
ATOM     21  O   UNL     1       1.742   9.220  18.347  0.00  0.00    +0.000 OA
BRANCH  20  22
ATOM     22  O   UNL     1       2.217  11.221  17.494  0.00  0.00    +0.000 OA
ATOM     23  H   UNL     1       3.175  11.265  17.612  0.00  0.00    +0.000 HD
ENDBRANCH  20  22
ENDBRANCH   2  20
BRANCH   1  24
ATOM     24  C   UNL     1      -1.677  10.293  18.400  0.00  0.00    +0.000 C 
BRANCH  24  25
ATOM     25  C   UNL     1      -2.056  11.126  17.176  0.00  0.00    +0.000 C 
BRANCH  25  27
ATOM     26  C   UNL     1      -4.477  11.465  16.696  0.00  0.00    +0.000 C 
ATOM     27  C   UNL     1      -3.273  10.566  16.422  0.00  0.00    +0.000 C 
ATOM     28  C   UNL     1      -3.021  10.458  14.918  0.00  0.00    +0.000 C 
ENDBRANCH  25  27
ENDBRANCH  24  25
ENDBRANCH   1  24
BRANCH   8  29
ATOM     29  O   UNL     1      -4.593  13.183  21.487  0.00  0.00    +0.000 OA
BRANCH  29  30
ATOM     30  C   UNL     1      -5.295  13.685  22.633  0.00  0.00    +0.000 C 
ATOM     31  C   UNL     1      -5.596  15.180  22.506  0.00  0.00    +0.000 C 
ATOM     32  C   UNL     1      -6.615  12.917  22.693  0.00  0.00    +0.000 C 
ENDBRANCH  29  30
ENDBRANCH   8  29
TORSDOF 8
ENDMDL
MODEL 9
REMARK VINA RESULT:      -6.1      2.245      7.300
REMARK  Name = 
REMARK  12 active torsions:
REMARK  status: ('A' for Active; 'I' for Inactive)
REMARK    1  A    between atoms: C_1  and  C_2
REMARK    2  A    between atoms: C_2  and  C_3
REMARK    3  A    between atoms: C_2  and  C_4
REMARK    4  A    between atoms: C_4  and  C_5
REMARK    5  A    between atoms: C_5  and  C_6
REMARK    6  A    between atoms: C_7  and  C_8
REMARK    7  A    between atoms: C_8  and  O_10
REMARK    8  A    between atoms: C_11  and  C_12
REMARK    9  A    between atoms: C_25  and  O_26
REMARK   10  A    between atoms: O_26  and  C_27
REMARK   11  A    between atoms: C_27  and  C_28
REMARK   12  A    between atoms: C_27  and  C_29
REMARK                            x       y       z     vdW  Elec       q    Type
REMARK                         _______ _______ _______ _____ _____    ______ ____
ROOT
ATOM      1  C   UNL     1       1.223  12.590  18.813  0.00  0.00    +0.000 C 
ATOM      2  C   UNL     1       0.257  13.318  19.433  0.00  0.00    +0.000 C 
ATOM      3  C   UNL     1      -0.735  12.637  20.367  0.00  0.00    +0.000 C 
ATOM      4  O   UNL     1      -0.215  11.471  21.035  0.00  0.00    +0.000 OA
ATOM      5  C   UNL     1       0.561  10.662  20.258  0.00  0.00    +0.000 A 
ATOM      6  C   UNL     1       0.613   9.322  20.650  0.00  0.00    +0.000 A 
ATOM      7  C   UNL     1       1.265   8.385  19.852  0.00  0.00    +0.000 A 
ATOM      8  C   UNL     1       1.841   8.795  18.656  0.00  0.00    +0.000 A 
ATOM      9  C   UNL     1       1.851  10.156  18.315  0.00  0.00    +0.000 A 
ATOM     10  C   UNL     1       1.229  11.126  19.118  0.00  0.00    +0.000 A 
ENDROOT
BRANCH   3  11
ATOM     11  C   UNL     1      -2.070  12.321  19.676  0.00  0.00    +0.000 A 
ATOM     12  C   UNL     1      -2.117  11.721  18.387  0.00  0.00    +0.000 A 
ATOM     13  C   UNL     1      -3.331  11.450  17.749  0.00  0.00    +0.000 A 
ATOM     14  C   UNL     1      -4.482  11.783  18.414  0.00  0.00    +0.000 A 
ATOM     15  C   UNL     1      -4.460  12.368  19.657  0.00  0.00    +0.000 A 
ATOM     16  C   UNL     1      -3.276  12.645  20.315  0.00  0.00    +0.000 A 
ATOM     17  O   UNL     1      -5.707  12.626  20.131  0.00  0.00    +0.000 OA
ATOM     18  C   UNL     1      -6.514  12.167  19.025  0.00  0.00    +0.000 C 
ATOM     19  O   UNL     1      -5.746  11.603  17.944  0.00  0.00    +0.000 OA
ENDBRANCH   3  11
BRANCH   2  20
ATOM     20  C   UNL     1       0.020  14.795  19.418  0.00  0.00    +0.000 C 
ATOM     21  O   UNL     1       0.459  15.537  20.288  0.00  0.00    +0.000 OA
BRANCH  20  22
ATOM     22  O   UNL     1      -0.736  15.291  18.425  0.00  0.00    +0.000 OA
ATOM     23  H   UNL     1      -1.067  14.655  17.777  0.00  0.00    +0.000 HD
ENDBRANCH  20  22
ENDBRANCH   2  20
BRANCH   1  24
ATOM     24  C   UNL     1       2.314  13.108  17.902  0.00  0.00    +0.000 C 
BRANCH  24  25
ATOM     25  C   UNL     1       3.359  13.938  18.647  0.00  0.00    +0.000 C 
BRANCH  25  27
ATOM     26  C   UNL     1       3.270  16.334  17.966  0.00  0.00    +0.000 C 
ATOM     27  C   UNL     1       4.012  15.013  17.763  0.00  0.00    +0.000 C 
ATOM     28  C   UNL     1       5.500  15.187  18.068  0.00  0.00    +0.000 C 
ENDBRANCH  25  27
ENDBRANCH  24  25
ENDBRANCH   1  24
BRANCH   8  29
ATOM     29  O   UNL     1       2.425   7.975  17.732  0.00  0.00    +0.000 OA
BRANCH  29  30
ATOM     30  C   UNL     1       3.154   6.834  18.204  0.00  0.00    +0.000 C 
ATOM     31  C   UNL     1       2.387   5.531  17.966  0.00  0.00    +0.000 C 
ATOM     32  C   UNL     1       4.454   6.798  17.402  0.00  0.00    +0.000 C 
ENDBRANCH  29  30
ENDBRANCH   8  29
TORSDOF 8
ENDMDL
