MODEL 1
REMARK VINA RESULT:      -7.9      0.000      0.000
REMARK  Name = 
REMARK  9 active torsions:
REMARK  status: ('A' for Active; 'I' for Inactive)
REMARK    1  A    between atoms: C_1  and  C_2
REMARK    2  A    between atoms: C_2  and  O_3
REMARK    3  A    between atoms: O_3  and  C_4
REMARK    4  A    between atoms: C_7  and  N_8
REMARK    5  A    between atoms: C_9  and  C_11
REMARK    6  A    between atoms: C_13  and  C_14
REMARK    7  A    between atoms: C_15  and  C_16
REMARK    8  A    between atoms: C_18  and  C_19
REMARK    9  A    between atoms: C_19  and  O_21
REMARK                            x       y       z     vdW  Elec       q    Type
REMARK                         _______ _______ _______ _____ _____    ______ ____
ROOT
ATOM      1  N   UNL     1       1.367   7.707  21.128  0.00  0.00    +0.000 N 
ATOM      2  C   UNL     1       2.006   7.491  19.927  0.00  0.00    +0.000 C 
ATOM      3  O   UNL     1       2.034   8.269  18.966  0.00  0.00    +0.000 OA
ATOM      4  H   UNL     1       1.451   7.000  21.853  0.00  0.00    +0.000 HD
ENDROOT
BRANCH   2   5
ATOM      5  C   UNL     1       2.641   6.125  19.693  0.00  0.00    +0.000 C 
ATOM      6  C   UNL     1       2.314   5.111  20.779  0.00  0.00    +0.000 C 
ATOM      7  C   UNL     1       1.641   3.841  20.363  0.00  0.00    +0.000 C 
ATOM      8  C   UNL     1       1.312   2.921  21.512  0.00  0.00    +0.000 C 
ATOM      9  C   UNL     1       1.396   3.527  19.078  0.00  0.00    +0.000 C 
ATOM     10  C   UNL     1       0.771   2.220  18.645  0.00  0.00    +0.000 C 
ATOM     11  C   UNL     1       1.755   4.423  17.919  0.00  0.00    +0.000 C 
ATOM     12  C   UNL     1       2.456   5.759  18.213  0.00  0.00    +0.000 C 
BRANCH  12  13
ATOM     13  C   UNL     1       3.805   5.853  17.494  0.00  0.00    +0.000 C 
ATOM     14  O   UNL     1       4.507   4.904  17.180  0.00  0.00    +0.000 OA
BRANCH  13  15
ATOM     15  O   UNL     1       4.162   7.123  17.174  0.00  0.00    +0.000 OA
ATOM     16  H   UNL     1       4.959   7.486  17.622  0.00  0.00    +0.000 HD
ENDBRANCH  13  15
ENDBRANCH  12  13
ENDBRANCH   2   5
BRANCH   1  20
ATOM     17  C   UNL     1      -0.583  11.284  22.350  0.00  0.00    +0.000 A 
ATOM     18  C   UNL     1       0.126  11.245  21.154  0.00  0.00    +0.000 A 
ATOM     19  C   UNL     1       0.753  10.072  20.732  0.00  0.00    +0.000 A 
ATOM     20  C   UNL     1       0.702   8.909  21.503  0.00  0.00    +0.000 A 
ATOM     21  C   UNL     1      -0.021   8.944  22.704  0.00  0.00    +0.000 A 
ATOM     22  C   UNL     1      -0.643  10.132  23.132  0.00  0.00    +0.000 A 
BRANCH  17  23
ATOM     23  O   UNL     1      -1.144  12.491  22.639  0.00  0.00    +0.000 OA
BRANCH  23  25
ATOM     24  C   UNL     1      -3.464  12.539  23.157  0.00  0.00    +0.000 C 
ATOM     25  C   UNL     1      -2.425  12.755  22.071  0.00  0.00    +0.000 C 
ENDBRANCH  23  25
ENDBRANCH  17  23
ENDBRANCH   1  20
TORSDOF 6
ENDMDL
MODEL 2
REMARK VINA RESULT:      -7.9      0.355      1.062
REMARK  Name = 
REMARK  9 active torsions:
REMARK  status: ('A' for Active; 'I' for Inactive)
REMARK    1  A    between atoms: C_1  and  C_2
REMARK    2  A    between atoms: C_2  and  O_3
REMARK    3  A    between atoms: O_3  and  C_4
REMARK    4  A    between atoms: C_7  and  N_8
REMARK    5  A    between atoms: C_9  and  C_11
REMARK    6  A    between atoms: C_13  and  C_14
REMARK    7  A    between atoms: C_15  and  C_16
REMARK    8  A    between atoms: C_18  and  C_19
REMARK    9  A    between atoms: C_19  and  O_21
REMARK                            x       y       z     vdW  Elec       q    Type
REMARK                         _______ _______ _______ _____ _____    ______ ____
ROOT
ATOM      1  N   UNL     1       1.415   7.821  21.244  0.00  0.00    +0.000 N 
ATOM      2  C   UNL     1       1.936   7.581  19.992  0.00  0.00    +0.000 C 
ATOM      3  O   UNL     1       1.832   8.320  19.005  0.00  0.00    +0.000 OA
ATOM      4  H   UNL     1       1.604   7.148  21.982  0.00  0.00    +0.000 HD
ENDROOT
BRANCH   2   5
ATOM      5  C   UNL     1       2.602   6.233  19.743  0.00  0.00    +0.000 C 
ATOM      6  C   UNL     1       2.290   5.197  20.813  0.00  0.00    +0.000 C 
ATOM      7  C   UNL     1       1.648   3.919  20.375  0.00  0.00    +0.000 C 
ATOM      8  C   UNL     1       1.331   2.975  21.510  0.00  0.00    +0.000 C 
ATOM      9  C   UNL     1       1.418   3.617  19.084  0.00  0.00    +0.000 C 
ATOM     10  C   UNL     1       0.824   2.303  18.630  0.00  0.00    +0.000 C 
ATOM     11  C   UNL     1       1.764   4.537  17.940  0.00  0.00    +0.000 C 
ATOM     12  C   UNL     1       2.435   5.883  18.258  0.00  0.00    +0.000 C 
BRANCH  12  13
ATOM     13  C   UNL     1       3.785   6.016  17.549  0.00  0.00    +0.000 C 
ATOM     14  O   UNL     1       4.504   5.087  17.213  0.00  0.00    +0.000 OA
BRANCH  13  15
ATOM     15  O   UNL     1       4.125   7.299  17.265  0.00  0.00    +0.000 OA
ATOM     16  H   UNL     1       4.132   7.934  18.017  0.00  0.00    +0.000 HD
ENDBRANCH  13  15
ENDBRANCH  12  13
ENDBRANCH   2   5
BRANCH   1  20
ATOM     17  C   UNL     1      -0.621  11.395  22.327  0.00  0.00    +0.000 A 
ATOM     18  C   UNL     1      -0.820  10.227  23.055  0.00  0.00    +0.000 A 
ATOM     19  C   UNL     1      -0.142   9.053  22.723  0.00  0.00    +0.000 A 
ATOM     20  C   UNL     1       0.741   9.011  21.642  0.00  0.00    +0.000 A 
ATOM     21  C   UNL     1       0.949  10.190  20.913  0.00  0.00    +0.000 A 
ATOM     22  C   UNL     1       0.256  11.370  21.244  0.00  0.00    +0.000 A 
BRANCH  17  23
ATOM     23  O   UNL     1      -1.345  12.465  22.759  0.00  0.00    +0.000 OA
BRANCH  23  25
ATOM     24  C   UNL     1      -3.687  12.779  22.498  0.00  0.00    +0.000 C 
ATOM     25  C   UNL     1      -2.600  12.183  23.375  0.00  0.00    +0.000 C 
ENDBRANCH  23  25
ENDBRANCH  17  23
ENDBRANCH   1  20
TORSDOF 6
ENDMDL
MODEL 3
REMARK VINA RESULT:      -7.6      2.791      4.467
REMARK  Name = 
REMARK  9 active torsions:
REMARK  status: ('A' for Active; 'I' for Inactive)
REMARK    1  A    between atoms: C_1  and  C_2
REMARK    2  A    between atoms: C_2  and  O_3
REMARK    3  A    between atoms: O_3  and  C_4
REMARK    4  A    between atoms: C_7  and  N_8
REMARK    5  A    between atoms: C_9  and  C_11
REMARK    6  A    between atoms: C_13  and  C_14
REMARK    7  A    between atoms: C_15  and  C_16
REMARK    8  A    between atoms: C_18  and  C_19
REMARK    9  A    between atoms: C_19  and  O_21
REMARK                            x       y       z     vdW  Elec       q    Type
REMARK                         _______ _______ _______ _____ _____    ______ ____
ROOT
ATOM      1  N   UNL     1       2.997   6.622  18.613  0.00  0.00    +0.000 N 
ATOM      2  C   UNL     1       2.564   5.434  18.065  0.00  0.00    +0.000 C 
ATOM      3  O   UNL     1       1.392   5.137  17.803  0.00  0.00    +0.000 OA
ATOM      4  H   UNL     1       3.996   6.755  18.746  0.00  0.00    +0.000 HD
ENDROOT
BRANCH   2   5
ATOM      5  C   UNL     1       3.589   4.325  17.867  0.00  0.00    +0.000 C 
ATOM      6  C   UNL     1       4.291   4.383  16.518  0.00  0.00    +0.000 C 
ATOM      7  C   UNL     1       5.783   4.497  16.517  0.00  0.00    +0.000 C 
ATOM      8  C   UNL     1       6.385   4.598  15.137  0.00  0.00    +0.000 C 
ATOM      9  C   UNL     1       6.523   4.462  17.640  0.00  0.00    +0.000 C 
ATOM     10  C   UNL     1       8.034   4.516  17.642  0.00  0.00    +0.000 C 
ATOM     11  C   UNL     1       5.934   4.323  19.021  0.00  0.00    +0.000 C 
ATOM     12  C   UNL     1       4.408   4.193  19.159  0.00  0.00    +0.000 C 
BRANCH  12  13
ATOM     13  C   UNL     1       4.020   2.898  19.877  0.00  0.00    +0.000 C 
ATOM     14  O   UNL     1       2.946   2.684  20.420  0.00  0.00    +0.000 OA
BRANCH  13  15
ATOM     15  O   UNL     1       4.981   1.942  19.829  0.00  0.00    +0.000 OA
ATOM     16  H   UNL     1       4.748   1.058  20.195  0.00  0.00    +0.000 HD
ENDBRANCH  13  15
ENDBRANCH  12  13
ENDBRANCH   2   5
BRANCH   1  20
ATOM     17  C   UNL     1       0.595  10.010  19.529  0.00  0.00    +0.000 A 
ATOM     18  C   UNL     1       1.059   9.809  18.233  0.00  0.00    +0.000 A 
ATOM     19  C   UNL     1       1.831   8.690  17.915  0.00  0.00    +0.000 A 
ATOM     20  C   UNL     1       2.174   7.751  18.889  0.00  0.00    +0.000 A 
ATOM     21  C   UNL     1       1.699   7.948  20.193  0.00  0.00    +0.000 A 
ATOM     22  C   UNL     1       0.930   9.083  20.513  0.00  0.00    +0.000 A 
BRANCH  17  23
ATOM     23  O   UNL     1      -0.145  11.141  19.698  0.00  0.00    +0.000 OA
BRANCH  23  25
ATOM     24  C   UNL     1      -2.228  11.302  18.562  0.00  0.00    +0.000 C 
ATOM     25  C   UNL     1      -0.758  11.687  18.532  0.00  0.00    +0.000 C 
ENDBRANCH  23  25
ENDBRANCH  17  23
ENDBRANCH   1  20
TORSDOF 6
ENDMDL
MODEL 4
REMARK VINA RESULT:      -7.6      2.788      4.545
REMARK  Name = 
REMARK  9 active torsions:
REMARK  status: ('A' for Active; 'I' for Inactive)
REMARK    1  A    between atoms: C_1  and  C_2
REMARK    2  A    between atoms: C_2  and  O_3
REMARK    3  A    between atoms: O_3  and  C_4
REMARK    4  A    between atoms: C_7  and  N_8
REMARK    5  A    between atoms: C_9  and  C_11
REMARK    6  A    between atoms: C_13  and  C_14
REMARK    7  A    between atoms: C_15  and  C_16
REMARK    8  A    between atoms: C_18  and  C_19
REMARK    9  A    between atoms: C_19  and  O_21
REMARK                            x       y       z     vdW  Elec       q    Type
REMARK                         _______ _______ _______ _____ _____    ______ ____
ROOT
ATOM      1  N   UNL     1       2.977   6.629  18.674  0.00  0.00    +0.000 N 
ATOM      2  C   UNL     1       2.544   5.456  18.095  0.00  0.00    +0.000 C 
ATOM      3  O   UNL     1       1.376   5.177  17.799  0.00  0.00    +0.000 OA
ATOM      4  H   UNL     1       3.974   6.749  18.832  0.00  0.00    +0.000 HD
ENDROOT
BRANCH   2   5
ATOM      5  C   UNL     1       3.561   4.338  17.902  0.00  0.00    +0.000 C 
ATOM      6  C   UNL     1       4.240   4.365  16.540  0.00  0.00    +0.000 C 
ATOM      7  C   UNL     1       5.732   4.473  16.510  0.00  0.00    +0.000 C 
ATOM      8  C   UNL     1       6.310   4.542  15.117  0.00  0.00    +0.000 C 
ATOM      9  C   UNL     1       6.492   4.458  17.620  0.00  0.00    +0.000 C 
ATOM     10  C   UNL     1       8.002   4.507  17.594  0.00  0.00    +0.000 C 
ATOM     11  C   UNL     1       5.927   4.352  19.014  0.00  0.00    +0.000 C 
ATOM     12  C   UNL     1       4.403   4.231  19.182  0.00  0.00    +0.000 C 
BRANCH  12  13
ATOM     13  C   UNL     1       4.023   2.953  19.935  0.00  0.00    +0.000 C 
ATOM     14  O   UNL     1       2.958   2.754  20.499  0.00  0.00    +0.000 OA
BRANCH  13  15
ATOM     15  O   UNL     1       4.980   1.993  19.891  0.00  0.00    +0.000 OA
ATOM     16  H   UNL     1       5.901   2.273  20.097  0.00  0.00    +0.000 HD
ENDBRANCH  13  15
ENDBRANCH  12  13
ENDBRANCH   2   5
BRANCH   1  20
ATOM     17  C   UNL     1       0.480   9.993  19.407  0.00  0.00    +0.000 A 
ATOM     18  C   UNL     1       0.841   9.148  20.451  0.00  0.00    +0.000 A 
ATOM     19  C   UNL     1       1.677   8.052  20.227  0.00  0.00    +0.000 A 
ATOM     20  C   UNL     1       2.161   7.763  18.949  0.00  0.00    +0.000 A 
ATOM     21  C   UNL     1       1.805   8.620  17.899  0.00  0.00    +0.000 A 
ATOM     22  C   UNL     1       0.953   9.717  18.125  0.00  0.00    +0.000 A 
BRANCH  17  23
ATOM     23  O   UNL     1      -0.339  11.020  19.766  0.00  0.00    +0.000 OA
BRANCH  23  25
ATOM     24  C   UNL     1      -2.357  11.255  18.531  0.00  0.00    +0.000 C 
ATOM     25  C   UNL     1      -0.936  11.764  18.706  0.00  0.00    +0.000 C 
ENDBRANCH  23  25
ENDBRANCH  17  23
ENDBRANCH   1  20
TORSDOF 6
ENDMDL
MODEL 5
REMARK VINA RESULT:      -7.5      3.176      5.325
REMARK  Name = 
REMARK  9 active torsions:
REMARK  status: ('A' for Active; 'I' for Inactive)
REMARK    1  A    between atoms: C_1  and  C_2
REMARK    2  A    between atoms: C_2  and  O_3
REMARK    3  A    between atoms: O_3  and  C_4
REMARK    4  A    between atoms: C_7  and  N_8
REMARK    5  A    between atoms: C_9  and  C_11
REMARK    6  A    between atoms: C_13  and  C_14
REMARK    7  A    between atoms: C_15  and  C_16
REMARK    8  A    between atoms: C_18  and  C_19
REMARK    9  A    between atoms: C_19  and  O_21
REMARK                            x       y       z     vdW  Elec       q    Type
REMARK                         _______ _______ _______ _____ _____    ______ ____
ROOT
ATOM      1  N   UNL     1       4.122   6.495  17.794  0.00  0.00    +0.000 N 
ATOM      2  C   UNL     1       3.956   5.203  17.345  0.00  0.00    +0.000 C 
ATOM      3  O   UNL     1       2.916   4.536  17.411  0.00  0.00    +0.000 OA
ATOM      4  H   UNL     1       5.021   6.944  17.645  0.00  0.00    +0.000 HD
ENDROOT
BRANCH   2   5
ATOM      5  C   UNL     1       5.184   4.465  16.825  0.00  0.00    +0.000 C 
ATOM      6  C   UNL     1       4.957   3.782  15.485  0.00  0.00    +0.000 C 
ATOM      7  C   UNL     1       5.851   4.168  14.348  0.00  0.00    +0.000 C 
ATOM      8  C   UNL     1       5.519   3.475  13.049  0.00  0.00    +0.000 C 
ATOM      9  C   UNL     1       6.886   5.016  14.483  0.00  0.00    +0.000 C 
ATOM     10  C   UNL     1       7.829   5.365  13.355  0.00  0.00    +0.000 C 
ATOM     11  C   UNL     1       7.249   5.685  15.786  0.00  0.00    +0.000 C 
ATOM     12  C   UNL     1       6.408   5.368  17.034  0.00  0.00    +0.000 C 
BRANCH  12  13
ATOM     13  C   UNL     1       7.273   4.798  18.161  0.00  0.00    +0.000 C 
ATOM     14  O   UNL     1       7.072   4.954  19.356  0.00  0.00    +0.000 OA
BRANCH  13  15
ATOM     15  O   UNL     1       8.304   4.034  17.720  0.00  0.00    +0.000 OA
ATOM     16  H   UNL     1       9.029   4.497  17.242  0.00  0.00    +0.000 HD
ENDBRANCH  13  15
ENDBRANCH  12  13
ENDBRANCH   2   5
BRANCH   1  20
ATOM     17  C   UNL     1       1.102   8.959  19.495  0.00  0.00    +0.000 A 
ATOM     18  C   UNL     1       1.554   9.197  18.202  0.00  0.00    +0.000 A 
ATOM     19  C   UNL     1       2.530   8.382  17.625  0.00  0.00    +0.000 A 
ATOM     20  C   UNL     1       3.092   7.318  18.332  0.00  0.00    +0.000 A 
ATOM     21  C   UNL     1       2.630   7.072  19.632  0.00  0.00    +0.000 A 
ATOM     22  C   UNL     1       1.654   7.902  20.216  0.00  0.00    +0.000 A 
BRANCH  17  23
ATOM     23  O   UNL     1       0.150   9.829  19.933  0.00  0.00    +0.000 OA
BRANCH  23  25
ATOM     24  C   UNL     1      -1.108  11.844  19.815  0.00  0.00    +0.000 C 
ATOM     25  C   UNL     1      -0.199  10.895  19.052  0.00  0.00    +0.000 C 
ENDBRANCH  23  25
ENDBRANCH  17  23
ENDBRANCH   1  20
TORSDOF 6
ENDMDL
MODEL 6
REMARK VINA RESULT:      -7.4      2.548      4.327
REMARK  Name = 
REMARK  9 active torsions:
REMARK  status: ('A' for Active; 'I' for Inactive)
REMARK    1  A    between atoms: C_1  and  C_2
REMARK    2  A    between atoms: C_2  and  O_3
REMARK    3  A    between atoms: O_3  and  C_4
REMARK    4  A    between atoms: C_7  and  N_8
REMARK    5  A    between atoms: C_9  and  C_11
REMARK    6  A    between atoms: C_13  and  C_14
REMARK    7  A    between atoms: C_15  and  C_16
REMARK    8  A    between atoms: C_18  and  C_19
REMARK    9  A    between atoms: C_19  and  O_21
REMARK                            x       y       z     vdW  Elec       q    Type
REMARK                         _______ _______ _______ _____ _____    ______ ____
ROOT
ATOM      1  N   UNL     1       2.938   6.562  18.898  0.00  0.00    +0.000 N 
ATOM      2  C   UNL     1       2.496   5.438  18.235  0.00  0.00    +0.000 C 
ATOM      3  O   UNL     1       1.323   5.186  17.932  0.00  0.00    +0.000 OA
ATOM      4  H   UNL     1       3.937   6.667  19.055  0.00  0.00    +0.000 HD
ENDROOT
BRANCH   2   5
ATOM      5  C   UNL     1       3.507   4.336  17.946  0.00  0.00    +0.000 C 
ATOM      6  C   UNL     1       4.156   4.454  16.575  0.00  0.00    +0.000 C 
ATOM      7  C   UNL     1       5.647   4.564  16.519  0.00  0.00    +0.000 C 
ATOM      8  C   UNL     1       6.194   4.727  15.122  0.00  0.00    +0.000 C 
ATOM      9  C   UNL     1       6.431   4.476  17.608  0.00  0.00    +0.000 C 
ATOM     10  C   UNL     1       7.941   4.527  17.553  0.00  0.00    +0.000 C 
ATOM     11  C   UNL     1       5.896   4.277  19.004  0.00  0.00    +0.000 C 
ATOM     12  C   UNL     1       4.377   4.144  19.197  0.00  0.00    +0.000 C 
BRANCH  12  13
ATOM     13  C   UNL     1       4.012   2.819  19.871  0.00  0.00    +0.000 C 
ATOM     14  O   UNL     1       2.897   2.505  20.259  0.00  0.00    +0.000 OA
BRANCH  13  15
ATOM     15  O   UNL     1       5.055   1.957  19.972  0.00  0.00    +0.000 OA
ATOM     16  H   UNL     1       5.876   2.300  20.392  0.00  0.00    +0.000 HD
ENDBRANCH  13  15
ENDBRANCH  12  13
ENDBRANCH   2   5
BRANCH   1  20
ATOM     17  C   UNL     1       0.464   9.870  19.912  0.00  0.00    +0.000 A 
ATOM     18  C   UNL     1       0.760   8.899  20.862  0.00  0.00    +0.000 A 
ATOM     19  C   UNL     1       1.587   7.819  20.548  0.00  0.00    +0.000 A 
ATOM     20  C   UNL     1       2.128   7.673  19.269  0.00  0.00    +0.000 A 
ATOM     21  C   UNL     1       1.838   8.657  18.313  0.00  0.00    +0.000 A 
ATOM     22  C   UNL     1       0.995   9.738  18.629  0.00  0.00    +0.000 A 
BRANCH  17  23
ATOM     23  O   UNL     1      -0.354  10.865  20.352  0.00  0.00    +0.000 OA
BRANCH  23  25
ATOM     24  C   UNL     1      -1.602  12.004  22.025  0.00  0.00    +0.000 C 
ATOM     25  C   UNL     1      -0.480  11.013  21.765  0.00  0.00    +0.000 C 
ENDBRANCH  23  25
ENDBRANCH  17  23
ENDBRANCH   1  20
TORSDOF 6
ENDMDL
MODEL 7
REMARK VINA RESULT:      -7.4      3.132      5.387
REMARK  Name = 
REMARK  9 active torsions:
REMARK  status: ('A' for Active; 'I' for Inactive)
REMARK    1  A    between atoms: C_1  and  C_2
REMARK    2  A    between atoms: C_2  and  O_3
REMARK    3  A    between atoms: O_3  and  C_4
REMARK    4  A    between atoms: C_7  and  N_8
REMARK    5  A    between atoms: C_9  and  C_11
REMARK    6  A    between atoms: C_13  and  C_14
REMARK    7  A    between atoms: C_15  and  C_16
REMARK    8  A    between atoms: C_18  and  C_19
REMARK    9  A    between atoms: C_19  and  O_21
REMARK                            x       y       z     vdW  Elec       q    Type
REMARK                         _______ _______ _______ _____ _____    ______ ____
ROOT
ATOM      1  N   UNL     1       4.140   6.505  17.814  0.00  0.00    +0.000 N 
ATOM      2  C   UNL     1       3.953   5.219  17.354  0.00  0.00    +0.000 C 
ATOM      3  O   UNL     1       2.903   4.568  17.417  0.00  0.00    +0.000 OA
ATOM      4  H   UNL     1       5.045   6.942  17.667  0.00  0.00    +0.000 HD
ENDROOT
BRANCH   2   5
ATOM      5  C   UNL     1       5.168   4.468  16.825  0.00  0.00    +0.000 C 
ATOM      6  C   UNL     1       4.925   3.789  15.485  0.00  0.00    +0.000 C 
ATOM      7  C   UNL     1       5.816   4.167  14.344  0.00  0.00    +0.000 C 
ATOM      8  C   UNL     1       5.468   3.481  13.046  0.00  0.00    +0.000 C 
ATOM      9  C   UNL     1       6.863   5.002  14.474  0.00  0.00    +0.000 C 
ATOM     10  C   UNL     1       7.803   5.341  13.341  0.00  0.00    +0.000 C 
ATOM     11  C   UNL     1       7.242   5.664  15.776  0.00  0.00    +0.000 C 
ATOM     12  C   UNL     1       6.405   5.354  17.028  0.00  0.00    +0.000 C 
BRANCH  12  13
ATOM     13  C   UNL     1       7.270   4.772  18.149  0.00  0.00    +0.000 C 
ATOM     14  O   UNL     1       7.068   4.912  19.346  0.00  0.00    +0.000 OA
BRANCH  13  15
ATOM     15  O   UNL     1       8.302   4.014  17.699  0.00  0.00    +0.000 OA
ATOM     16  H   UNL     1       8.072   3.150  17.286  0.00  0.00    +0.000 HD
ENDBRANCH  13  15
ENDBRANCH  12  13
ENDBRANCH   2   5
BRANCH   1  20
ATOM     17  C   UNL     1       1.054   8.994  19.354  0.00  0.00    +0.000 A 
ATOM     18  C   UNL     1       1.570   7.958  20.126  0.00  0.00    +0.000 A 
ATOM     19  C   UNL     1       2.597   7.147  19.639  0.00  0.00    +0.000 A 
ATOM     20  C   UNL     1       3.124   7.339  18.361  0.00  0.00    +0.000 A 
ATOM     21  C   UNL     1       2.612   8.390  17.587  0.00  0.00    +0.000 A 
ATOM     22  C   UNL     1       1.568   9.199  18.075  0.00  0.00    +0.000 A 
BRANCH  17  23
ATOM     23  O   UNL     1       0.057   9.704  19.950  0.00  0.00    +0.000 OA
BRANCH  23  25
ATOM     24  C   UNL     1      -0.136  11.318  21.686  0.00  0.00    +0.000 C 
ATOM     25  C   UNL     1       0.340  11.066  20.265  0.00  0.00    +0.000 C 
ENDBRANCH  23  25
ENDBRANCH  17  23
ENDBRANCH   1  20
TORSDOF 6
ENDMDL
MODEL 8
REMARK VINA RESULT:      -7.3      2.507      2.739
REMARK  Name = 
REMARK  9 active torsions:
REMARK  status: ('A' for Active; 'I' for Inactive)
REMARK    1  A    between atoms: C_1  and  C_2
REMARK    2  A    between atoms: C_2  and  O_3
REMARK    3  A    between atoms: O_3  and  C_4
REMARK    4  A    between atoms: C_7  and  N_8
REMARK    5  A    between atoms: C_9  and  C_11
REMARK    6  A    between atoms: C_13  and  C_14
REMARK    7  A    between atoms: C_15  and  C_16
REMARK    8  A    between atoms: C_18  and  C_19
REMARK    9  A    between atoms: C_19  and  O_21
REMARK                            x       y       z     vdW  Elec       q    Type
REMARK                         _______ _______ _______ _____ _____    ______ ____
ROOT
ATOM      1  N   UNL     1       1.760   8.545  18.625  0.00  0.00    +0.000 N 
ATOM      2  C   UNL     1       1.898   7.758  19.747  0.00  0.00    +0.000 C 
ATOM      3  O   UNL     1       1.594   8.077  20.903  0.00  0.00    +0.000 OA
ATOM      4  H   UNL     1       2.014   8.149  17.724  0.00  0.00    +0.000 HD
ENDROOT
BRANCH   2   5
ATOM      5  C   UNL     1       2.599   6.414  19.593  0.00  0.00    +0.000 C 
ATOM      6  C   UNL     1       2.259   5.424  20.697  0.00  0.00    +0.000 C 
ATOM      7  C   UNL     1       1.658   4.114  20.295  0.00  0.00    +0.000 C 
ATOM      8  C   UNL     1       1.309   3.219  21.459  0.00  0.00    +0.000 C 
ATOM      9  C   UNL     1       1.491   3.746  19.011  0.00  0.00    +0.000 C 
ATOM     10  C   UNL     1       0.941   2.401  18.596  0.00  0.00    +0.000 C 
ATOM     11  C   UNL     1       1.871   4.617  17.840  0.00  0.00    +0.000 C 
ATOM     12  C   UNL     1       2.503   5.990  18.120  0.00  0.00    +0.000 C 
BRANCH  12  13
ATOM     13  C   UNL     1       3.881   6.116  17.465  0.00  0.00    +0.000 C 
ATOM     14  O   UNL     1       4.639   5.188  17.226  0.00  0.00    +0.000 OA
BRANCH  13  15
ATOM     15  O   UNL     1       4.199   7.386  17.109  0.00  0.00    +0.000 OA
ATOM     16  H   UNL     1       3.494   8.066  17.210  0.00  0.00    +0.000 HD
ENDBRANCH  13  15
ENDBRANCH  12  13
ENDBRANCH   2   5
BRANCH   1  20
ATOM     17  C   UNL     1      -0.118  12.361  18.598  0.00  0.00    +0.000 A 
ATOM     18  C   UNL     1       1.269  12.263  18.638  0.00  0.00    +0.000 A 
ATOM     19  C   UNL     1       1.898  11.016  18.626  0.00  0.00    +0.000 A 
ATOM     20  C   UNL     1       1.156   9.834  18.592  0.00  0.00    +0.000 A 
ATOM     21  C   UNL     1      -0.242   9.933  18.542  0.00  0.00    +0.000 A 
ATOM     22  C   UNL     1      -0.874  11.190  18.565  0.00  0.00    +0.000 A 
BRANCH  17  23
ATOM     23  O   UNL     1      -0.598  13.635  18.615  0.00  0.00    +0.000 OA
BRANCH  23  25
ATOM     24  C   UNL     1      -0.158  15.972  18.627  0.00  0.00    +0.000 C 
ATOM     25  C   UNL     1       0.236  14.627  19.212  0.00  0.00    +0.000 C 
ENDBRANCH  23  25
ENDBRANCH  17  23
ENDBRANCH   1  20
TORSDOF 6
ENDMDL
MODEL 9
REMARK VINA RESULT:      -7.3      2.761      4.298
REMARK  Name = 
REMARK  9 active torsions:
REMARK  status: ('A' for Active; 'I' for Inactive)
REMARK    1  A    between atoms: C_1  and  C_2
REMARK    2  A    between atoms: C_2  and  O_3
REMARK    3  A    between atoms: O_3  and  C_4
REMARK    4  A    between atoms: C_7  and  N_8
REMARK    5  A    between atoms: C_9  and  C_11
REMARK    6  A    between atoms: C_13  and  C_14
REMARK    7  A    between atoms: C_15  and  C_16
REMARK    8  A    between atoms: C_18  and  C_19
REMARK    9  A    between atoms: C_19  and  O_21
REMARK                            x       y       z     vdW  Elec       q    Type
REMARK                         _______ _______ _______ _____ _____    ______ ____
ROOT
ATOM      1  N   UNL     1       2.949   7.816  18.221  0.00  0.00    +0.000 N 
ATOM      2  C   UNL     1       2.902   6.472  17.920  0.00  0.00    +0.000 C 
ATOM      3  O   UNL     1       1.929   5.724  18.079  0.00  0.00    +0.000 OA
ATOM      4  H   UNL     1       3.801   8.328  18.007  0.00  0.00    +0.000 HD
ENDROOT
BRANCH   2   5
ATOM      5  C   UNL     1       4.189   5.798  17.462  0.00  0.00    +0.000 C 
ATOM      6  C   UNL     1       5.284   6.781  17.077  0.00  0.00    +0.000 C 
ATOM      7  C   UNL     1       6.586   6.691  17.807  0.00  0.00    +0.000 C 
ATOM      8  C   UNL     1       7.592   7.737  17.392  0.00  0.00    +0.000 C 
ATOM      9  C   UNL     1       6.855   5.734  18.714  0.00  0.00    +0.000 C 
ATOM     10  C   UNL     1       8.189   5.600  19.412  0.00  0.00    +0.000 C 
ATOM     11  C   UNL     1       5.870   4.661  19.108  0.00  0.00    +0.000 C 
ATOM     12  C   UNL     1       4.493   4.642  18.425  0.00  0.00    +0.000 C 
BRANCH  12  13
ATOM     13  C   UNL     1       4.239   3.309  17.717  0.00  0.00    +0.000 C 
ATOM     14  O   UNL     1       3.300   2.558  17.937  0.00  0.00    +0.000 OA
BRANCH  13  15
ATOM     15  O   UNL     1       5.147   3.027  16.749  0.00  0.00    +0.000 OA
ATOM     16  H   UNL     1       5.971   2.569  17.033  0.00  0.00    +0.000 HD
ENDBRANCH  13  15
ENDBRANCH  12  13
ENDBRANCH   2   5
BRANCH   1  20
ATOM     17  C   UNL     1      -0.269  10.176  19.691  0.00  0.00    +0.000 A 
ATOM     18  C   UNL     1       0.063  10.207  18.341  0.00  0.00    +0.000 A 
ATOM     19  C   UNL     1       1.104   9.421  17.842  0.00  0.00    +0.000 A 
ATOM     20  C   UNL     1       1.852   8.596  18.684  0.00  0.00    +0.000 A 
ATOM     21  C   UNL     1       1.511   8.557  20.043  0.00  0.00    +0.000 A 
ATOM     22  C   UNL     1       0.468   9.358  20.545  0.00  0.00    +0.000 A 
BRANCH  17  23
ATOM     23  O   UNL     1      -1.303  10.990  20.040  0.00  0.00    +0.000 OA
BRANCH  23  25
ATOM     24  C   UNL     1      -3.209  11.873  18.925  0.00  0.00    +0.000 C 
ATOM     25  C   UNL     1      -1.701  11.969  19.082  0.00  0.00    +0.000 C 
ENDBRANCH  23  25
ENDBRANCH  17  23
ENDBRANCH   1  20
TORSDOF 6
ENDMDL
