MODEL 1
REMARK VINA RESULT:      -7.7      0.000      0.000
REMARK  Name = 
REMARK  9 active torsions:
REMARK  status: ('A' for Active; 'I' for Inactive)
REMARK    1  A    between atoms: C_1  and  C_2
REMARK    2  A    between atoms: C_2  and  C_3
REMARK    3  A    between atoms: C_2  and  O_4
REMARK    4  A    between atoms: C_2  and  C_12
REMARK    5  A    between atoms: O_4  and  C_5
REMARK    6  A    between atoms: C_5  and  C_6
REMARK    7  A    between atoms: C_17  and  P_18
REMARK    8  A    between atoms: P_18  and  C_19
REMARK    9  A    between atoms: P_18  and  C_25
REMARK                            x       y       z     vdW  Elec       q    Type
REMARK                         _______ _______ _______ _____ _____    ______ ____
ROOT
ATOM      1  C   UNL     1       6.018   5.194  16.901  0.00  0.00    +0.000 A 
ATOM      2  C   UNL     1       7.333   4.844  17.319  0.00  0.00    +0.000 A 
ATOM      3  C   UNL     1       7.798   5.020  18.623  0.00  0.00    +0.000 A 
ATOM      4  C   UNL     1       6.958   5.556  19.576  0.00  0.00    +0.000 A 
ATOM      5  C   UNL     1       5.642   5.861  19.231  0.00  0.00    +0.000 A 
ATOM      6  C   UNL     1       5.126   5.655  17.925  0.00  0.00    +0.000 A 
ENDROOT
BRANCH   1   8
ATOM      7  C   UNL     1       5.135   6.271  14.724  0.00  0.00    +0.000 C 
ATOM      8  C   UNL     1       5.656   4.960  15.392  0.00  0.00    +0.000 C 
ATOM      9  C   UNL     1       4.473   3.982  15.197  0.00  0.00    +0.000 C 
BRANCH   8  10
ATOM     10  O   UNL     1       6.879   4.493  14.773  0.00  0.00    +0.000 OA
BRANCH  10  11
ATOM     11  C   UNL     1       7.118   4.824  13.401  0.00  0.00    +0.000 C 
BRANCH  11  12
ATOM     12  C   UNL     1       6.725   3.714  12.429  0.00  0.00    +0.000 A 
ATOM     13  C   UNL     1       7.676   2.864  11.845  0.00  0.00    +0.000 A 
ATOM     14  C   UNL     1       7.290   1.753  11.089  0.00  0.00    +0.000 A 
ATOM     15  C   UNL     1       5.936   1.462  10.897  0.00  0.00    +0.000 A 
ATOM     16  C   UNL     1       4.979   2.313  11.443  0.00  0.00    +0.000 A 
ATOM     17  C   UNL     1       5.367   3.432  12.197  0.00  0.00    +0.000 A 
ENDBRANCH  11  12
ENDBRANCH  10  11
ENDBRANCH   8  10
ENDBRANCH   1   8
BRANCH   6  18
ATOM     18  P   UNL     1       3.296   5.701  17.740  0.00  0.00    +0.000 P 
BRANCH  18  19
ATOM     19  C   UNL     1       2.772   4.234  18.688  0.00  0.00    +0.000 A 
ATOM     20  C   UNL     1       3.470   3.747  19.801  0.00  0.00    +0.000 A 
ATOM     21  C   UNL     1       2.979   2.669  20.547  0.00  0.00    +0.000 A 
ATOM     22  C   UNL     1       1.769   2.067  20.204  0.00  0.00    +0.000 A 
ATOM     23  C   UNL     1       1.052   2.541  19.115  0.00  0.00    +0.000 A 
ATOM     24  C   UNL     1       1.547   3.614  18.370  0.00  0.00    +0.000 A 
ENDBRANCH  18  19
BRANCH  18  25
ATOM     25  C   UNL     1       2.614   7.172  18.568  0.00  0.00    +0.000 A 
ATOM     26  C   UNL     1       2.423   8.304  17.745  0.00  0.00    +0.000 A 
ATOM     27  C   UNL     1       1.781   9.464  18.203  0.00  0.00    +0.000 A 
ATOM     28  C   UNL     1       1.327   9.527  19.518  0.00  0.00    +0.000 A 
ATOM     29  C   UNL     1       1.529   8.437  20.364  0.00  0.00    +0.000 A 
ATOM     30  C   UNL     1       2.165   7.275  19.896  0.00  0.00    +0.000 A 
ENDBRANCH  18  25
ENDBRANCH   6  18
TORSDOF 7
ENDMDL
MODEL 2
REMARK VINA RESULT:      -7.7      5.027      8.703
REMARK  Name = 
REMARK  9 active torsions:
REMARK  status: ('A' for Active; 'I' for Inactive)
REMARK    1  A    between atoms: C_1  and  C_2
REMARK    2  A    between atoms: C_2  and  C_3
REMARK    3  A    between atoms: C_2  and  O_4
REMARK    4  A    between atoms: C_2  and  C_12
REMARK    5  A    between atoms: O_4  and  C_5
REMARK    6  A    between atoms: C_5  and  C_6
REMARK    7  A    between atoms: C_17  and  P_18
REMARK    8  A    between atoms: P_18  and  C_19
REMARK    9  A    between atoms: P_18  and  C_25
REMARK                            x       y       z     vdW  Elec       q    Type
REMARK                         _______ _______ _______ _____ _____    ______ ____
ROOT
ATOM      1  C   UNL     1       0.674   9.721  20.203  0.00  0.00    +0.000 A 
ATOM      2  C   UNL     1       0.619   8.732  21.226  0.00  0.00    +0.000 A 
ATOM      3  C   UNL     1       0.018   8.942  22.468  0.00  0.00    +0.000 A 
ATOM      4  C   UNL     1      -0.563  10.162  22.742  0.00  0.00    +0.000 A 
ATOM      5  C   UNL     1      -0.587  11.144  21.752  0.00  0.00    +0.000 A 
ATOM      6  C   UNL     1      -0.022  10.947  20.465  0.00  0.00    +0.000 A 
ENDROOT
BRANCH   1   8
ATOM      7  C   UNL     1       2.223  10.546  18.306  0.00  0.00    +0.000 C 
ATOM      8  C   UNL     1       1.410   9.339  18.872  0.00  0.00    +0.000 C 
ATOM      9  C   UNL     1       0.438   9.008  17.715  0.00  0.00    +0.000 C 
BRANCH   8  10
ATOM     10  O   UNL     1       2.272   8.227  19.215  0.00  0.00    +0.000 OA
BRANCH  10  11
ATOM     11  C   UNL     1       2.456   7.184  18.253  0.00  0.00    +0.000 C 
BRANCH  11  12
ATOM     12  C   UNL     1       2.112   5.795  18.787  0.00  0.00    +0.000 A 
ATOM     13  C   UNL     1       1.894   5.554  20.151  0.00  0.00    +0.000 A 
ATOM     14  C   UNL     1       1.420   4.320  20.605  0.00  0.00    +0.000 A 
ATOM     15  C   UNL     1       1.150   3.289  19.701  0.00  0.00    +0.000 A 
ATOM     16  C   UNL     1       1.391   3.500  18.345  0.00  0.00    +0.000 A 
ATOM     17  C   UNL     1       1.872   4.738  17.891  0.00  0.00    +0.000 A 
ENDBRANCH  11  12
ENDBRANCH  10  11
ENDBRANCH   8  10
ENDBRANCH   1   8
BRANCH   6  18
ATOM     18  P   UNL     1      -0.500  12.149  19.158  0.00  0.00    +0.000 P 
BRANCH  18  19
ATOM     19  C   UNL     1      -2.316  11.977  19.116  0.00  0.00    +0.000 A 
ATOM     20  C   UNL     1      -3.173  12.647  19.998  0.00  0.00    +0.000 A 
ATOM     21  C   UNL     1      -4.564  12.549  19.868  0.00  0.00    +0.000 A 
ATOM     22  C   UNL     1      -5.125  11.789  18.843  0.00  0.00    +0.000 A 
ATOM     23  C   UNL     1      -4.296  11.127  17.948  0.00  0.00    +0.000 A 
ATOM     24  C   UNL     1      -2.909  11.224  18.082  0.00  0.00    +0.000 A 
ENDBRANCH  18  19
BRANCH  18  25
ATOM     25  C   UNL     1      -0.114  13.848  19.688  0.00  0.00    +0.000 A 
ATOM     26  C   UNL     1      -0.220  14.840  18.687  0.00  0.00    +0.000 A 
ATOM     27  C   UNL     1      -0.089  16.207  18.971  0.00  0.00    +0.000 A 
ATOM     28  C   UNL     1       0.174  16.618  20.275  0.00  0.00    +0.000 A 
ATOM     29  C   UNL     1       0.315  15.660  21.279  0.00  0.00    +0.000 A 
ATOM     30  C   UNL     1       0.174  14.293  20.989  0.00  0.00    +0.000 A 
ENDBRANCH  18  25
ENDBRANCH   6  18
TORSDOF 7
ENDMDL
MODEL 3
REMARK VINA RESULT:      -7.7      5.381     10.064
REMARK  Name = 
REMARK  9 active torsions:
REMARK  status: ('A' for Active; 'I' for Inactive)
REMARK    1  A    between atoms: C_1  and  C_2
REMARK    2  A    between atoms: C_2  and  C_3
REMARK    3  A    between atoms: C_2  and  O_4
REMARK    4  A    between atoms: C_2  and  C_12
REMARK    5  A    between atoms: O_4  and  C_5
REMARK    6  A    between atoms: C_5  and  C_6
REMARK    7  A    between atoms: C_17  and  P_18
REMARK    8  A    between atoms: P_18  and  C_19
REMARK    9  A    between atoms: P_18  and  C_25
REMARK                            x       y       z     vdW  Elec       q    Type
REMARK                         _______ _______ _______ _____ _____    ______ ____
ROOT
ATOM      1  C   UNL     1      -1.170  10.637  18.656  0.00  0.00    +0.000 A 
ATOM      2  C   UNL     1      -1.485  10.283  17.313  0.00  0.00    +0.000 A 
ATOM      3  C   UNL     1      -2.672  10.651  16.678  0.00  0.00    +0.000 A 
ATOM      4  C   UNL     1      -3.603  11.401  17.364  0.00  0.00    +0.000 A 
ATOM      5  C   UNL     1      -3.317  11.824  18.662  0.00  0.00    +0.000 A 
ATOM      6  C   UNL     1      -2.102  11.501  19.321  0.00  0.00    +0.000 A 
ENDROOT
BRANCH   1   8
ATOM      7  C   UNL     1       0.010   9.515  20.662  0.00  0.00    +0.000 C 
ATOM      8  C   UNL     1       0.193  10.122  19.235  0.00  0.00    +0.000 C 
ATOM      9  C   UNL     1       1.218  11.256  19.474  0.00  0.00    +0.000 C 
BRANCH   8  10
ATOM     10  O   UNL     1       0.663   9.132  18.288  0.00  0.00    +0.000 OA
BRANCH  10  11
ATOM     11  C   UNL     1       2.053   9.120  17.948  0.00  0.00    +0.000 C 
BRANCH  11  12
ATOM     12  C   UNL     1       2.728   7.772  18.191  0.00  0.00    +0.000 A 
ATOM     13  C   UNL     1       3.796   7.320  17.402  0.00  0.00    +0.000 A 
ATOM     14  C   UNL     1       4.509   6.165  17.738  0.00  0.00    +0.000 A 
ATOM     15  C   UNL     1       4.171   5.428  18.877  0.00  0.00    +0.000 A 
ATOM     16  C   UNL     1       3.093   5.845  19.654  0.00  0.00    +0.000 A 
ATOM     17  C   UNL     1       2.374   7.002  19.313  0.00  0.00    +0.000 A 
ENDBRANCH  11  12
ENDBRANCH  10  11
ENDBRANCH   8  10
ENDBRANCH   1   8
BRANCH   6  18
ATOM     18  P   UNL     1      -1.697  12.468  20.832  0.00  0.00    +0.000 P 
BRANCH  18  19
ATOM     19  C   UNL     1      -1.420  14.141  20.161  0.00  0.00    +0.000 A 
ATOM     20  C   UNL     1      -2.018  15.292  20.692  0.00  0.00    +0.000 A 
ATOM     21  C   UNL     1      -1.705  16.563  20.195  0.00  0.00    +0.000 A 
ATOM     22  C   UNL     1      -0.774  16.710  19.168  0.00  0.00    +0.000 A 
ATOM     23  C   UNL     1      -0.157  15.586  18.636  0.00  0.00    +0.000 A 
ATOM     24  C   UNL     1      -0.475  14.318  19.131  0.00  0.00    +0.000 A 
ENDBRANCH  18  19
BRANCH  18  25
ATOM     25  C   UNL     1      -3.140  12.544  21.940  0.00  0.00    +0.000 A 
ATOM     26  C   UNL     1      -2.873  12.327  23.310  0.00  0.00    +0.000 A 
ATOM     27  C   UNL     1      -3.853  12.489  24.300  0.00  0.00    +0.000 A 
ATOM     28  C   UNL     1      -5.146  12.856  23.936  0.00  0.00    +0.000 A 
ATOM     29  C   UNL     1      -5.449  13.045  22.588  0.00  0.00    +0.000 A 
ATOM     30  C   UNL     1      -4.461  12.890  21.603  0.00  0.00    +0.000 A 
ENDBRANCH  18  25
ENDBRANCH   6  18
TORSDOF 7
ENDMDL
MODEL 4
REMARK VINA RESULT:      -7.5      0.687      1.307
REMARK  Name = 
REMARK  9 active torsions:
REMARK  status: ('A' for Active; 'I' for Inactive)
REMARK    1  A    between atoms: C_1  and  C_2
REMARK    2  A    between atoms: C_2  and  C_3
REMARK    3  A    between atoms: C_2  and  O_4
REMARK    4  A    between atoms: C_2  and  C_12
REMARK    5  A    between atoms: O_4  and  C_5
REMARK    6  A    between atoms: C_5  and  C_6
REMARK    7  A    between atoms: C_17  and  P_18
REMARK    8  A    between atoms: P_18  and  C_19
REMARK    9  A    between atoms: P_18  and  C_25
REMARK                            x       y       z     vdW  Elec       q    Type
REMARK                         _______ _______ _______ _____ _____    ______ ____
ROOT
ATOM      1  C   UNL     1       6.093   5.058  17.032  0.00  0.00    +0.000 A 
ATOM      2  C   UNL     1       7.460   4.842  17.370  0.00  0.00    +0.000 A 
ATOM      3  C   UNL     1       7.983   5.069  18.644  0.00  0.00    +0.000 A 
ATOM      4  C   UNL     1       7.152   5.521  19.647  0.00  0.00    +0.000 A 
ATOM      5  C   UNL     1       5.793   5.692  19.383  0.00  0.00    +0.000 A 
ATOM      6  C   UNL     1       5.223   5.431  18.110  0.00  0.00    +0.000 A 
ENDROOT
BRANCH   1   8
ATOM      7  C   UNL     1       5.050   6.058  14.890  0.00  0.00    +0.000 C 
ATOM      8  C   UNL     1       5.667   4.783  15.548  0.00  0.00    +0.000 C 
ATOM      9  C   UNL     1       4.524   3.748  15.427  0.00  0.00    +0.000 C 
BRANCH   8  10
ATOM     10  O   UNL     1       6.878   4.365  14.872  0.00  0.00    +0.000 OA
BRANCH  10  11
ATOM     11  C   UNL     1       7.072   4.765  13.511  0.00  0.00    +0.000 C 
BRANCH  11  12
ATOM     12  C   UNL     1       6.668   3.695  12.499  0.00  0.00    +0.000 A 
ATOM     13  C   UNL     1       7.604   2.825  11.921  0.00  0.00    +0.000 A 
ATOM     14  C   UNL     1       7.201   1.748  11.126  0.00  0.00    +0.000 A 
ATOM     15  C   UNL     1       5.844   1.513  10.887  0.00  0.00    +0.000 A 
ATOM     16  C   UNL     1       4.902   2.385  11.426  0.00  0.00    +0.000 A 
ATOM     17  C   UNL     1       5.308   3.470  12.220  0.00  0.00    +0.000 A 
ENDBRANCH  11  12
ENDBRANCH  10  11
ENDBRANCH   8  10
ENDBRANCH   1   8
BRANCH   6  18
ATOM     18  P   UNL     1       3.390   5.293  18.035  0.00  0.00    +0.000 P 
BRANCH  18  19
ATOM     19  C   UNL     1       3.025   4.199  19.449  0.00  0.00    +0.000 A 
ATOM     20  C   UNL     1       1.822   4.243  20.165  0.00  0.00    +0.000 A 
ATOM     21  C   UNL     1       1.555   3.323  21.186  0.00  0.00    +0.000 A 
ATOM     22  C   UNL     1       2.481   2.330  21.500  0.00  0.00    +0.000 A 
ATOM     23  C   UNL     1       3.674   2.257  20.795  0.00  0.00    +0.000 A 
ATOM     24  C   UNL     1       3.939   3.178  19.779  0.00  0.00    +0.000 A 
ENDBRANCH  18  19
BRANCH  18  25
ATOM     25  C   UNL     1       2.621   6.909  18.369  0.00  0.00    +0.000 A 
ATOM     26  C   UNL     1       2.224   7.134  19.706  0.00  0.00    +0.000 A 
ATOM     27  C   UNL     1       1.744   8.376  20.146  0.00  0.00    +0.000 A 
ATOM     28  C   UNL     1       1.629   9.430  19.244  0.00  0.00    +0.000 A 
ATOM     29  C   UNL     1       1.983   9.230  17.910  0.00  0.00    +0.000 A 
ATOM     30  C   UNL     1       2.471   7.986  17.477  0.00  0.00    +0.000 A 
ENDBRANCH  18  25
ENDBRANCH   6  18
TORSDOF 7
ENDMDL
MODEL 5
REMARK VINA RESULT:      -7.5      5.342      9.934
REMARK  Name = 
REMARK  9 active torsions:
REMARK  status: ('A' for Active; 'I' for Inactive)
REMARK    1  A    between atoms: C_1  and  C_2
REMARK    2  A    between atoms: C_2  and  C_3
REMARK    3  A    between atoms: C_2  and  O_4
REMARK    4  A    between atoms: C_2  and  C_12
REMARK    5  A    between atoms: O_4  and  C_5
REMARK    6  A    between atoms: C_5  and  C_6
REMARK    7  A    between atoms: C_17  and  P_18
REMARK    8  A    between atoms: P_18  and  C_19
REMARK    9  A    between atoms: P_18  and  C_25
REMARK                            x       y       z     vdW  Elec       q    Type
REMARK                         _______ _______ _______ _____ _____    ______ ____
ROOT
ATOM      1  C   UNL     1      -1.079  10.618  18.677  0.00  0.00    +0.000 A 
ATOM      2  C   UNL     1      -1.389  10.289  17.326  0.00  0.00    +0.000 A 
ATOM      3  C   UNL     1      -2.571  10.673  16.692  0.00  0.00    +0.000 A 
ATOM      4  C   UNL     1      -3.503  11.413  17.387  0.00  0.00    +0.000 A 
ATOM      5  C   UNL     1      -3.222  11.812  18.694  0.00  0.00    +0.000 A 
ATOM      6  C   UNL     1      -2.011  11.473  19.353  0.00  0.00    +0.000 A 
ENDROOT
BRANCH   1   8
ATOM      7  C   UNL     1       0.088   9.453  20.666  0.00  0.00    +0.000 C 
ATOM      8  C   UNL     1       0.280  10.088  19.253  0.00  0.00    +0.000 C 
ATOM      9  C   UNL     1       1.306  11.215  19.520  0.00  0.00    +0.000 C 
BRANCH   8  10
ATOM     10  O   UNL     1       0.752   9.116  18.289  0.00  0.00    +0.000 OA
BRANCH  10  11
ATOM     11  C   UNL     1       2.145   9.106  17.956  0.00  0.00    +0.000 C 
BRANCH  11  12
ATOM     12  C   UNL     1       2.756   7.708  17.936  0.00  0.00    +0.000 A 
ATOM     13  C   UNL     1       2.073   6.588  18.432  0.00  0.00    +0.000 A 
ATOM     14  C   UNL     1       2.573   5.294  18.258  0.00  0.00    +0.000 A 
ATOM     15  C   UNL     1       3.777   5.086  17.578  0.00  0.00    +0.000 A 
ATOM     16  C   UNL     1       4.485   6.188  17.107  0.00  0.00    +0.000 A 
ATOM     17  C   UNL     1       3.985   7.487  17.287  0.00  0.00    +0.000 A 
ENDBRANCH  11  12
ENDBRANCH  10  11
ENDBRANCH   8  10
ENDBRANCH   1   8
BRANCH   6  18
ATOM     18  P   UNL     1      -1.610  12.411  20.883  0.00  0.00    +0.000 P 
BRANCH  18  19
ATOM     19  C   UNL     1      -1.263  14.081  20.236  0.00  0.00    +0.000 A 
ATOM     20  C   UNL     1      -0.440  14.322  19.128  0.00  0.00    +0.000 A 
ATOM     21  C   UNL     1      -0.276  15.615  18.618  0.00  0.00    +0.000 A 
ATOM     22  C   UNL     1      -0.944  16.693  19.197  0.00  0.00    +0.000 A 
ATOM     23  C   UNL     1      -1.777  16.477  20.287  0.00  0.00    +0.000 A 
ATOM     24  C   UNL     1      -1.936  15.186  20.796  0.00  0.00    +0.000 A 
ENDBRANCH  18  19
BRANCH  18  25
ATOM     25  C   UNL     1      -3.075  12.524  21.958  0.00  0.00    +0.000 A 
ATOM     26  C   UNL     1      -2.835  12.361  23.340  0.00  0.00    +0.000 A 
ATOM     27  C   UNL     1      -3.835  12.556  24.303  0.00  0.00    +0.000 A 
ATOM     28  C   UNL     1      -5.122  12.905  23.900  0.00  0.00    +0.000 A 
ATOM     29  C   UNL     1      -5.398  13.042  22.540  0.00  0.00    +0.000 A 
ATOM     30  C   UNL     1      -4.389  12.853  21.582  0.00  0.00    +0.000 A 
ENDBRANCH  18  25
ENDBRANCH   6  18
TORSDOF 7
ENDMDL
MODEL 6
REMARK VINA RESULT:      -7.5      5.062      8.897
REMARK  Name = 
REMARK  9 active torsions:
REMARK  status: ('A' for Active; 'I' for Inactive)
REMARK    1  A    between atoms: C_1  and  C_2
REMARK    2  A    between atoms: C_2  and  C_3
REMARK    3  A    between atoms: C_2  and  O_4
REMARK    4  A    between atoms: C_2  and  C_12
REMARK    5  A    between atoms: O_4  and  C_5
REMARK    6  A    between atoms: C_5  and  C_6
REMARK    7  A    between atoms: C_17  and  P_18
REMARK    8  A    between atoms: P_18  and  C_19
REMARK    9  A    between atoms: P_18  and  C_25
REMARK                            x       y       z     vdW  Elec       q    Type
REMARK                         _______ _______ _______ _____ _____    ______ ____
ROOT
ATOM      1  C   UNL     1       0.454  10.053  20.316  0.00  0.00    +0.000 A 
ATOM      2  C   UNL     1       0.460   9.116  21.389  0.00  0.00    +0.000 A 
ATOM      3  C   UNL     1      -0.160   9.351  22.618  0.00  0.00    +0.000 A 
ATOM      4  C   UNL     1      -0.822  10.542  22.827  0.00  0.00    +0.000 A 
ATOM      5  C   UNL     1      -0.907  11.467  21.787  0.00  0.00    +0.000 A 
ATOM      6  C   UNL     1      -0.324  11.242  20.513  0.00  0.00    +0.000 A 
ENDROOT
BRANCH   1   8
ATOM      7  C   UNL     1       2.038  10.853  18.438  0.00  0.00    +0.000 C 
ATOM      8  C   UNL     1       1.220   9.651  19.007  0.00  0.00    +0.000 C 
ATOM      9  C   UNL     1       0.274   9.296  17.836  0.00  0.00    +0.000 C 
BRANCH   8  10
ATOM     10  O   UNL     1       2.079   8.551  19.388  0.00  0.00    +0.000 OA
BRANCH  10  11
ATOM     11  C   UNL     1       2.396   7.560  18.404  0.00  0.00    +0.000 C 
BRANCH  11  12
ATOM     12  C   UNL     1       2.073   6.136  18.848  0.00  0.00    +0.000 A 
ATOM     13  C   UNL     1       2.026   5.065  17.943  0.00  0.00    +0.000 A 
ATOM     14  C   UNL     1       1.892   3.745  18.384  0.00  0.00    +0.000 A 
ATOM     15  C   UNL     1       1.802   3.460  19.749  0.00  0.00    +0.000 A 
ATOM     16  C   UNL     1       1.814   4.513  20.661  0.00  0.00    +0.000 A 
ATOM     17  C   UNL     1       1.943   5.838  20.217  0.00  0.00    +0.000 A 
ENDBRANCH  11  12
ENDBRANCH  10  11
ENDBRANCH   8  10
ENDBRANCH   1   8
BRANCH   6  18
ATOM     18  P   UNL     1      -0.875  12.339  19.143  0.00  0.00    +0.000 P 
BRANCH  18  19
ATOM     19  C   UNL     1      -2.644  11.916  18.995  0.00  0.00    +0.000 A 
ATOM     20  C   UNL     1      -3.642  12.492  19.790  0.00  0.00    +0.000 A 
ATOM     21  C   UNL     1      -4.995  12.198  19.578  0.00  0.00    +0.000 A 
ATOM     22  C   UNL     1      -5.376  11.334  18.553  0.00  0.00    +0.000 A 
ATOM     23  C   UNL     1      -4.406  10.762  17.741  0.00  0.00    +0.000 A 
ATOM     24  C   UNL     1      -3.057  11.054  17.959  0.00  0.00    +0.000 A 
ENDBRANCH  18  19
BRANCH  18  25
ATOM     25  C   UNL     1      -0.761  14.085  19.647  0.00  0.00    +0.000 A 
ATOM     26  C   UNL     1      -0.232  14.967  18.679  0.00  0.00    +0.000 A 
ATOM     27  C   UNL     1      -0.208  16.357  18.865  0.00  0.00    +0.000 A 
ATOM     28  C   UNL     1      -0.700  16.902  20.048  0.00  0.00    +0.000 A 
ATOM     29  C   UNL     1      -1.199  16.054  21.036  0.00  0.00    +0.000 A 
ATOM     30  C   UNL     1      -1.228  14.664  20.839  0.00  0.00    +0.000 A 
ENDBRANCH  18  25
ENDBRANCH   6  18
TORSDOF 7
ENDMDL
MODEL 7
REMARK VINA RESULT:      -7.5      4.946      9.156
REMARK  Name = 
REMARK  9 active torsions:
REMARK  status: ('A' for Active; 'I' for Inactive)
REMARK    1  A    between atoms: C_1  and  C_2
REMARK    2  A    between atoms: C_2  and  C_3
REMARK    3  A    between atoms: C_2  and  O_4
REMARK    4  A    between atoms: C_2  and  C_12
REMARK    5  A    between atoms: O_4  and  C_5
REMARK    6  A    between atoms: C_5  and  C_6
REMARK    7  A    between atoms: C_17  and  P_18
REMARK    8  A    between atoms: P_18  and  C_19
REMARK    9  A    between atoms: P_18  and  C_25
REMARK                            x       y       z     vdW  Elec       q    Type
REMARK                         _______ _______ _______ _____ _____    ______ ____
ROOT
ATOM      1  C   UNL     1       0.076  10.257  20.465  0.00  0.00    +0.000 A 
ATOM      2  C   UNL     1       0.186   9.131  21.332  0.00  0.00    +0.000 A 
ATOM      3  C   UNL     1      -0.272   9.128  22.650  0.00  0.00    +0.000 A 
ATOM      4  C   UNL     1      -0.869  10.259  23.163  0.00  0.00    +0.000 A 
ATOM      5  C   UNL     1      -1.055  11.368  22.337  0.00  0.00    +0.000 A 
ATOM      6  C   UNL     1      -0.637  11.389  20.980  0.00  0.00    +0.000 A 
ENDROOT
BRANCH   1   8
ATOM      7  C   UNL     1       1.495  11.371  18.615  0.00  0.00    +0.000 C 
ATOM      8  C   UNL     1       0.665  10.111  19.018  0.00  0.00    +0.000 C 
ATOM      9  C   UNL     1      -0.425  10.053  17.923  0.00  0.00    +0.000 C 
BRANCH   8  10
ATOM     10  O   UNL     1       1.487   8.919  19.057  0.00  0.00    +0.000 OA
BRANCH  10  11
ATOM     11  C   UNL     1       2.405   8.688  17.983  0.00  0.00    +0.000 C 
BRANCH  11  12
ATOM     12  C   UNL     1       2.914   7.251  17.915  0.00  0.00    +0.000 A 
ATOM     13  C   UNL     1       2.112   6.158  18.276  0.00  0.00    +0.000 A 
ATOM     14  C   UNL     1       2.532   4.843  18.053  0.00  0.00    +0.000 A 
ATOM     15  C   UNL     1       3.772   4.586  17.462  0.00  0.00    +0.000 A 
ATOM     16  C   UNL     1       4.596   5.658  17.128  0.00  0.00    +0.000 A 
ATOM     17  C   UNL     1       4.176   6.978  17.356  0.00  0.00    +0.000 A 
ENDBRANCH  11  12
ENDBRANCH  10  11
ENDBRANCH   8  10
ENDBRANCH   1   8
BRANCH   6  18
ATOM     18  P   UNL     1      -1.320  12.731  19.924  0.00  0.00    +0.000 P 
BRANCH  18  19
ATOM     19  C   UNL     1      -2.843  13.192  20.817  0.00  0.00    +0.000 A 
ATOM     20  C   UNL     1      -2.912  14.262  21.719  0.00  0.00    +0.000 A 
ATOM     21  C   UNL     1      -4.126  14.629  22.313  0.00  0.00    +0.000 A 
ATOM     22  C   UNL     1      -5.299  13.943  22.003  0.00  0.00    +0.000 A 
ATOM     23  C   UNL     1      -5.258  12.888  21.101  0.00  0.00    +0.000 A 
ATOM     24  C   UNL     1      -4.045  12.522  20.513  0.00  0.00    +0.000 A 
ENDBRANCH  18  19
BRANCH  18  25
ATOM     25  C   UNL     1      -0.209  14.173  19.937  0.00  0.00    +0.000 A 
ATOM     26  C   UNL     1       0.821  14.143  20.904  0.00  0.00    +0.000 A 
ATOM     27  C   UNL     1       1.835  15.111  20.949  0.00  0.00    +0.000 A 
ATOM     28  C   UNL     1       1.831  16.157  20.029  0.00  0.00    +0.000 A 
ATOM     29  C   UNL     1       0.809  16.231  19.083  0.00  0.00    +0.000 A 
ATOM     30  C   UNL     1      -0.198  15.254  19.038  0.00  0.00    +0.000 A 
ENDBRANCH  18  25
ENDBRANCH   6  18
TORSDOF 7
ENDMDL
MODEL 8
REMARK VINA RESULT:      -7.4      4.925      9.215
REMARK  Name = 
REMARK  9 active torsions:
REMARK  status: ('A' for Active; 'I' for Inactive)
REMARK    1  A    between atoms: C_1  and  C_2
REMARK    2  A    between atoms: C_2  and  C_3
REMARK    3  A    between atoms: C_2  and  O_4
REMARK    4  A    between atoms: C_2  and  C_12
REMARK    5  A    between atoms: O_4  and  C_5
REMARK    6  A    between atoms: C_5  and  C_6
REMARK    7  A    between atoms: C_17  and  P_18
REMARK    8  A    between atoms: P_18  and  C_19
REMARK    9  A    between atoms: P_18  and  C_25
REMARK                            x       y       z     vdW  Elec       q    Type
REMARK                         _______ _______ _______ _____ _____    ______ ____
ROOT
ATOM      1  C   UNL     1       0.119  10.288  20.431  0.00  0.00    +0.000 A 
ATOM      2  C   UNL     1       0.213   9.198  21.343  0.00  0.00    +0.000 A 
ATOM      3  C   UNL     1      -0.253   9.252  22.657  0.00  0.00    +0.000 A 
ATOM      4  C   UNL     1      -0.841  10.410  23.120  0.00  0.00    +0.000 A 
ATOM      5  C   UNL     1      -1.010  11.485  22.249  0.00  0.00    +0.000 A 
ATOM      6  C   UNL     1      -0.585  11.447  20.895  0.00  0.00    +0.000 A 
ENDROOT
BRANCH   1   8
ATOM      7  C   UNL     1       1.572  11.305  18.552  0.00  0.00    +0.000 C 
ATOM      8  C   UNL     1       0.715  10.077  18.995  0.00  0.00    +0.000 C 
ATOM      9  C   UNL     1      -0.369  10.001  17.894  0.00  0.00    +0.000 C 
BRANCH   8  10
ATOM     10  O   UNL     1       1.512   8.872  19.083  0.00  0.00    +0.000 OA
BRANCH  10  11
ATOM     11  C   UNL     1       2.174   8.404  17.903  0.00  0.00    +0.000 C 
BRANCH  11  12
ATOM     12  C   UNL     1       3.059   7.184  18.144  0.00  0.00    +0.000 A 
ATOM     13  C   UNL     1       4.190   6.916  17.359  0.00  0.00    +0.000 A 
ATOM     14  C   UNL     1       5.081   5.892  17.693  0.00  0.00    +0.000 A 
ATOM     15  C   UNL     1       4.863   5.105  18.827  0.00  0.00    +0.000 A 
ATOM     16  C   UNL     1       3.728   5.335  19.600  0.00  0.00    +0.000 A 
ATOM     17  C   UNL     1       2.831   6.360  19.261  0.00  0.00    +0.000 A 
ENDBRANCH  11  12
ENDBRANCH  10  11
ENDBRANCH   8  10
ENDBRANCH   1   8
BRANCH   6  18
ATOM     18  P   UNL     1      -1.248  12.752  19.782  0.00  0.00    +0.000 P 
BRANCH  18  19
ATOM     19  C   UNL     1      -2.807  13.214  20.609  0.00  0.00    +0.000 A 
ATOM     20  C   UNL     1      -2.922  14.305  21.481  0.00  0.00    +0.000 A 
ATOM     21  C   UNL     1      -4.161  14.670  22.022  0.00  0.00    +0.000 A 
ATOM     22  C   UNL     1      -5.313  13.960  21.688  0.00  0.00    +0.000 A 
ATOM     23  C   UNL     1      -5.228  12.884  20.815  0.00  0.00    +0.000 A 
ATOM     24  C   UNL     1      -3.989  12.520  20.280  0.00  0.00    +0.000 A 
ENDBRANCH  18  19
BRANCH  18  25
ATOM     25  C   UNL     1      -0.158  14.210  19.796  0.00  0.00    +0.000 A 
ATOM     26  C   UNL     1       0.926  14.155  20.701  0.00  0.00    +0.000 A 
ATOM     27  C   UNL     1       1.928  15.136  20.732  0.00  0.00    +0.000 A 
ATOM     28  C   UNL     1       1.858  16.220  19.860  0.00  0.00    +0.000 A 
ATOM     29  C   UNL     1       0.783  16.319  18.977  0.00  0.00    +0.000 A 
ATOM     30  C   UNL     1      -0.212  15.328  18.946  0.00  0.00    +0.000 A 
ENDBRANCH  18  25
ENDBRANCH   6  18
TORSDOF 7
ENDMDL
MODEL 9
REMARK VINA RESULT:      -7.4      7.394     11.344
REMARK  Name = 
REMARK  9 active torsions:
REMARK  status: ('A' for Active; 'I' for Inactive)
REMARK    1  A    between atoms: C_1  and  C_2
REMARK    2  A    between atoms: C_2  and  C_3
REMARK    3  A    between atoms: C_2  and  O_4
REMARK    4  A    between atoms: C_2  and  C_12
REMARK    5  A    between atoms: O_4  and  C_5
REMARK    6  A    between atoms: C_5  and  C_6
REMARK    7  A    between atoms: C_17  and  P_18
REMARK    8  A    between atoms: P_18  and  C_19
REMARK    9  A    between atoms: P_18  and  C_25
REMARK                            x       y       z     vdW  Elec       q    Type
REMARK                         _______ _______ _______ _____ _____    ______ ____
ROOT
ATOM      1  C   UNL     1      -0.772  10.780  18.914  0.00  0.00    +0.000 A 
ATOM      2  C   UNL     1      -1.186  10.447  17.592  0.00  0.00    +0.000 A 
ATOM      3  C   UNL     1      -2.425  10.805  17.060  0.00  0.00    +0.000 A 
ATOM      4  C   UNL     1      -3.313  11.522  17.834  0.00  0.00    +0.000 A 
ATOM      5  C   UNL     1      -2.933  11.924  19.114  0.00  0.00    +0.000 A 
ATOM      6  C   UNL     1      -1.664  11.612  19.668  0.00  0.00    +0.000 A 
ENDROOT
BRANCH   1   8
ATOM      7  C   UNL     1       1.324   9.415  18.266  0.00  0.00    +0.000 C 
ATOM      8  C   UNL     1       0.642  10.280  19.373  0.00  0.00    +0.000 C 
ATOM      9  C   UNL     1       0.581   9.311  20.577  0.00  0.00    +0.000 C 
BRANCH   8  10
ATOM     10  O   UNL     1       1.400  11.481  19.656  0.00  0.00    +0.000 OA
BRANCH  10  11
ATOM     11  C   UNL     1       2.068  12.138  18.573  0.00  0.00    +0.000 C 
BRANCH  11  12
ATOM     12  C   UNL     1       2.754  13.439  18.980  0.00  0.00    +0.000 A 
ATOM     13  C   UNL     1       3.119  14.415  18.040  0.00  0.00    +0.000 A 
ATOM     14  C   UNL     1       3.594  15.667  18.440  0.00  0.00    +0.000 A 
ATOM     15  C   UNL     1       3.716  15.979  19.797  0.00  0.00    +0.000 A 
ATOM     16  C   UNL     1       3.388  15.011  20.744  0.00  0.00    +0.000 A 
ATOM     17  C   UNL     1       2.917  13.752  20.341  0.00  0.00    +0.000 A 
ENDBRANCH  11  12
ENDBRANCH  10  11
ENDBRANCH   8  10
ENDBRANCH   1   8
BRANCH   6  18
ATOM     18  P   UNL     1      -1.159  12.555  21.164  0.00  0.00    +0.000 P 
BRANCH  18  19
ATOM     19  C   UNL     1      -0.746  14.192  20.471  0.00  0.00    +0.000 A 
ATOM     20  C   UNL     1      -0.394  15.295  21.259  0.00  0.00    +0.000 A 
ATOM     21  C   UNL     1      -0.001  16.505  20.674  0.00  0.00    +0.000 A 
ATOM     22  C   UNL     1       0.062  16.630  19.287  0.00  0.00    +0.000 A 
ATOM     23  C   UNL     1      -0.269  15.546  18.485  0.00  0.00    +0.000 A 
ATOM     24  C   UNL     1      -0.664  14.342  19.072  0.00  0.00    +0.000 A 
ENDBRANCH  18  19
BRANCH  18  25
ATOM     25  C   UNL     1      -2.576  12.768  22.287  0.00  0.00    +0.000 A 
ATOM     26  C   UNL     1      -3.598  13.627  21.826  0.00  0.00    +0.000 A 
ATOM     27  C   UNL     1      -4.811  13.785  22.512  0.00  0.00    +0.000 A 
ATOM     28  C   UNL     1      -5.026  13.092  23.701  0.00  0.00    +0.000 A 
ATOM     29  C   UNL     1      -4.023  12.260  24.198  0.00  0.00    +0.000 A 
ATOM     30  C   UNL     1      -2.814  12.101  23.502  0.00  0.00    +0.000 A 
ENDBRANCH  18  25
ENDBRANCH   6  18
TORSDOF 7
ENDMDL
