MODEL 1
REMARK VINA RESULT:      -9.5      0.000      0.000
REMARK  Name = 
REMARK  9 active torsions:
REMARK  status: ('A' for Active; 'I' for Inactive)
REMARK    1  A    between atoms: C_1  and  C_2
REMARK    2  A    between atoms: C_4  and  C_5
REMARK    3  A    between atoms: C_6  and  S_7
REMARK    4  A    between atoms: S_7  and  N_10
REMARK    5  A    between atoms: C_13  and  C_14
REMARK    6  A    between atoms: C_13  and  C_15
REMARK    7  A    between atoms: N_17  and  C_18
REMARK    8  A    between atoms: C_18  and  C_19
REMARK    9  A    between atoms: C_31  and  C_32
REMARK                            x       y       z     vdW  Elec       q    Type
REMARK                         _______ _______ _______ _____ _____    ______ ____
ROOT
ATOM      1  N   UNL     1       4.323   3.399  18.034  0.00  0.00    +0.000 NA
ATOM      2  C   UNL     1       5.077   3.802  19.203  0.00  0.00    +0.000 C 
ATOM      3  C   UNL     1       5.234   5.305  19.205  0.00  0.00    +0.000 C 
ATOM      4  C   UNL     1       5.939   5.913  17.964  0.00  0.00    +0.000 C 
ATOM      5  C   UNL     1       5.571   7.392  17.614  0.00  0.00    +0.000 C 
ATOM      6  C   UNL     1       5.598   5.109  16.666  0.00  0.00    +0.000 C 
ATOM      7  C   UNL     1       5.078   3.673  16.792  0.00  0.00    +0.000 C 
ENDROOT
BRANCH   4   8
ATOM      8  C   UNL     1       7.438   5.995  18.329  0.00  0.00    +0.000 C 
ATOM      9  O   UNL     1       8.043   5.055  18.854  0.00  0.00    +0.000 OA
ATOM     10  N   UNL     1       8.135   7.157  18.062  0.00  0.00    +0.000 N 
ATOM     11  H   UNL     1       9.107   7.102  18.316  0.00  0.00    +0.000 HD
BRANCH  10  12
ATOM     12  C   UNL     1       7.658   8.472  17.612  0.00  0.00    +0.000 C 
BRANCH  12  13
ATOM     13  C   UNL     1       8.385   9.673  18.137  0.00  0.00    +0.000 A 
ATOM     14  C   UNL     1       9.096   9.535  19.365  0.00  0.00    +0.000 A 
ATOM     15  C   UNL     1       9.733  10.620  19.960  0.00  0.00    +0.000 A 
ATOM     16  C   UNL     1       9.656  11.825  19.305  0.00  0.00    +0.000 A 
ATOM     17  C   UNL     1       8.988  11.962  18.107  0.00  0.00    +0.000 A 
ATOM     18  C   UNL     1       8.351  10.909  17.493  0.00  0.00    +0.000 A 
ATOM     19  O   UNL     1       9.016  13.235  17.640  0.00  0.00    +0.000 OA
ATOM     20  C   UNL     1       9.740  13.894  18.700  0.00  0.00    +0.000 C 
ATOM     21  O   UNL     1      10.184  12.997  19.740  0.00  0.00    +0.000 OA
ENDBRANCH  12  13
ENDBRANCH  10  12
ENDBRANCH   4   8
BRANCH   1  22
ATOM     22  S   UNL     1       2.629   3.452  18.127  0.00  0.00    +0.000 S 
ATOM     23  O   UNL     1       2.199   2.443  19.071  0.00  0.00    +0.000 OA
ATOM     24  O   UNL     1       2.099   3.493  16.783  0.00  0.00    +0.000 OA
BRANCH  22  30
ATOM     25  C   UNL     1       1.270   8.810  20.828  0.00  0.00    +0.000 C 
ATOM     26  C   UNL     1       1.557   7.534  20.081  0.00  0.00    +0.000 A 
ATOM     27  C   UNL     1       1.491   6.336  20.797  0.00  0.00    +0.000 A 
ATOM     28  C   UNL     1       1.945   5.126  20.259  0.00  0.00    +0.000 A 
ATOM     29  C   UNL     1       2.294   4.055  21.250  0.00  0.00    +0.000 C 
ATOM     30  C   UNL     1       2.280   5.062  18.899  0.00  0.00    +0.000 A 
ATOM     31  C   UNL     1       2.309   6.256  18.142  0.00  0.00    +0.000 A 
ATOM     32  C   UNL     1       2.003   7.505  18.746  0.00  0.00    +0.000 A 
ATOM     33  C   UNL     1       2.207   8.807  18.010  0.00  0.00    +0.000 C 
ENDBRANCH  22  30
ENDBRANCH   1  22
TORSDOF 5
ENDMDL
MODEL 2
REMARK VINA RESULT:      -9.4      0.575      1.226
REMARK  Name = 
REMARK  9 active torsions:
REMARK  status: ('A' for Active; 'I' for Inactive)
REMARK    1  A    between atoms: C_1  and  C_2
REMARK    2  A    between atoms: C_4  and  C_5
REMARK    3  A    between atoms: C_6  and  S_7
REMARK    4  A    between atoms: S_7  and  N_10
REMARK    5  A    between atoms: C_13  and  C_14
REMARK    6  A    between atoms: C_13  and  C_15
REMARK    7  A    between atoms: N_17  and  C_18
REMARK    8  A    between atoms: C_18  and  C_19
REMARK    9  A    between atoms: C_31  and  C_32
REMARK                            x       y       z     vdW  Elec       q    Type
REMARK                         _______ _______ _______ _____ _____    ______ ____
ROOT
ATOM      1  N   UNL     1       4.466   3.299  18.068  0.00  0.00    +0.000 NA
ATOM      2  C   UNL     1       5.192   3.756  19.234  0.00  0.00    +0.000 C 
ATOM      3  C   UNL     1       5.294   5.264  19.203  0.00  0.00    +0.000 C 
ATOM      4  C   UNL     1       5.990   5.868  17.955  0.00  0.00    +0.000 C 
ATOM      5  C   UNL     1       5.571   7.324  17.567  0.00  0.00    +0.000 C 
ATOM      6  C   UNL     1       5.692   5.022  16.673  0.00  0.00    +0.000 C 
ATOM      7  C   UNL     1       5.223   3.572  16.828  0.00  0.00    +0.000 C 
ENDROOT
BRANCH   4   8
ATOM      8  C   UNL     1       7.480   6.014  18.333  0.00  0.00    +0.000 C 
ATOM      9  O   UNL     1       8.123   5.096  18.852  0.00  0.00    +0.000 OA
ATOM     10  N   UNL     1       8.126   7.209  18.085  0.00  0.00    +0.000 N 
ATOM     11  H   UNL     1       9.098   7.196  18.346  0.00  0.00    +0.000 HD
BRANCH  10  12
ATOM     12  C   UNL     1       7.593   8.506  17.645  0.00  0.00    +0.000 C 
BRANCH  12  13
ATOM     13  C   UNL     1       8.311   9.732  18.124  0.00  0.00    +0.000 A 
ATOM     14  C   UNL     1       8.064  10.957  17.441  0.00  0.00    +0.000 A 
ATOM     15  C   UNL     1       8.746  12.124  17.773  0.00  0.00    +0.000 A 
ATOM     16  C   UNL     1       9.659  12.043  18.796  0.00  0.00    +0.000 A 
ATOM     17  C   UNL     1       9.889  10.867  19.476  0.00  0.00    +0.000 A 
ATOM     18  C   UNL     1       9.230   9.699  19.173  0.00  0.00    +0.000 A 
ATOM     19  O   UNL     1      10.840  10.999  20.434  0.00  0.00    +0.000 OA
ATOM     20  C   UNL     1      11.213  12.381  20.253  0.00  0.00    +0.000 C 
ATOM     21  O   UNL     1      10.440  13.060  19.242  0.00  0.00    +0.000 OA
ENDBRANCH  12  13
ENDBRANCH  10  12
ENDBRANCH   4   8
BRANCH   1  22
ATOM     22  S   UNL     1       2.770   3.291  18.143  0.00  0.00    +0.000 S 
ATOM     23  O   UNL     1       2.366   2.257  19.071  0.00  0.00    +0.000 OA
ATOM     24  O   UNL     1       2.253   3.330  16.794  0.00  0.00    +0.000 OA
BRANCH  22  30
ATOM     25  C   UNL     1       1.193   8.568  20.886  0.00  0.00    +0.000 C 
ATOM     26  C   UNL     1       1.536   7.313  20.128  0.00  0.00    +0.000 A 
ATOM     27  C   UNL     1       1.476   6.101  20.822  0.00  0.00    +0.000 A 
ATOM     28  C   UNL     1       1.977   4.912  20.279  0.00  0.00    +0.000 A 
ATOM     29  C   UNL     1       2.321   3.833  21.264  0.00  0.00    +0.000 C 
ATOM     30  C   UNL     1       2.357   4.879  18.929  0.00  0.00    +0.000 A 
ATOM     31  C   UNL     1       2.381   6.087  18.194  0.00  0.00    +0.000 A 
ATOM     32  C   UNL     1       2.024   7.317  18.808  0.00  0.00    +0.000 A 
ATOM     33  C   UNL     1       2.220   8.636  18.100  0.00  0.00    +0.000 C 
ENDBRANCH  22  30
ENDBRANCH   1  22
TORSDOF 5
ENDMDL
MODEL 3
REMARK VINA RESULT:      -9.1      5.600      9.668
REMARK  Name = 
REMARK  9 active torsions:
REMARK  status: ('A' for Active; 'I' for Inactive)
REMARK    1  A    between atoms: C_1  and  C_2
REMARK    2  A    between atoms: C_4  and  C_5
REMARK    3  A    between atoms: C_6  and  S_7
REMARK    4  A    between atoms: S_7  and  N_10
REMARK    5  A    between atoms: C_13  and  C_14
REMARK    6  A    between atoms: C_13  and  C_15
REMARK    7  A    between atoms: N_17  and  C_18
REMARK    8  A    between atoms: C_18  and  C_19
REMARK    9  A    between atoms: C_31  and  C_32
REMARK                            x       y       z     vdW  Elec       q    Type
REMARK                         _______ _______ _______ _____ _____    ______ ____
ROOT
ATOM      1  N   UNL     1       0.214  13.357  21.501  0.00  0.00    +0.000 NA
ATOM      2  C   UNL     1       1.409  12.583  21.239  0.00  0.00    +0.000 C 
ATOM      3  C   UNL     1       1.025  11.264  20.608  0.00  0.00    +0.000 C 
ATOM      4  C   UNL     1       0.065  10.372  21.438  0.00  0.00    +0.000 C 
ATOM      5  C   UNL     1      -0.832   9.380  20.627  0.00  0.00    +0.000 C 
ATOM      6  C   UNL     1      -0.951  11.237  22.255  0.00  0.00    +0.000 C 
ATOM      7  C   UNL     1      -0.626  12.708  22.531  0.00  0.00    +0.000 C 
ENDROOT
BRANCH   4   8
ATOM      8  C   UNL     1       0.971   9.437  22.268  0.00  0.00    +0.000 C 
ATOM      9  O   UNL     1       1.105   9.560  23.490  0.00  0.00    +0.000 OA
ATOM     10  N   UNL     1       1.660   8.424  21.632  0.00  0.00    +0.000 N 
ATOM     11  H   UNL     1       2.204   7.858  22.262  0.00  0.00    +0.000 HD
BRANCH  10  12
ATOM     12  C   UNL     1       1.831   8.142  20.200  0.00  0.00    +0.000 C 
BRANCH  12  13
ATOM     13  C   UNL     1       2.015   6.707  19.809  0.00  0.00    +0.000 A 
ATOM     14  C   UNL     1       2.595   6.434  18.536  0.00  0.00    +0.000 A 
ATOM     15  C   UNL     1       2.732   5.132  18.065  0.00  0.00    +0.000 A 
ATOM     16  C   UNL     1       2.293   4.122  18.886  0.00  0.00    +0.000 A 
ATOM     17  C   UNL     1       1.750   4.376  20.127  0.00  0.00    +0.000 A 
ATOM     18  C   UNL     1       1.605   5.651  20.621  0.00  0.00    +0.000 A 
ATOM     19  O   UNL     1       1.365   3.243  20.767  0.00  0.00    +0.000 OA
ATOM     20  C   UNL     1       1.687   2.250  19.771  0.00  0.00    +0.000 C 
ATOM     21  O   UNL     1       2.313   2.797  18.591  0.00  0.00    +0.000 OA
ENDBRANCH  12  13
ENDBRANCH  10  12
ENDBRANCH   4   8
BRANCH   1  22
ATOM     22  S   UNL     1      -0.420  14.291  20.233  0.00  0.00    +0.000 S 
ATOM     23  O   UNL     1       0.592  14.395  19.203  0.00  0.00    +0.000 OA
ATOM     24  O   UNL     1      -1.037  15.469  20.797  0.00  0.00    +0.000 OA
BRANCH  22  30
ATOM     25  C   UNL     1      -4.961  10.721  18.114  0.00  0.00    +0.000 C 
ATOM     26  C   UNL     1      -3.783  11.519  18.609  0.00  0.00    +0.000 A 
ATOM     27  C   UNL     1      -3.981  12.341  19.721  0.00  0.00    +0.000 A 
ATOM     28  C   UNL     1      -3.024  13.278  20.129  0.00  0.00    +0.000 A 
ATOM     29  C   UNL     1      -3.530  14.411  20.972  0.00  0.00    +0.000 C 
ATOM     30  C   UNL     1      -1.748  13.256  19.546  0.00  0.00    +0.000 A 
ATOM     31  C   UNL     1      -1.511  12.397  18.447  0.00  0.00    +0.000 A 
ATOM     32  C   UNL     1      -2.546  11.566  17.939  0.00  0.00    +0.000 A 
ATOM     33  C   UNL     1      -2.372  10.786  16.659  0.00  0.00    +0.000 C 
ENDBRANCH  22  30
ENDBRANCH   1  22
TORSDOF 5
ENDMDL
MODEL 4
REMARK VINA RESULT:      -8.6      5.760      9.535
REMARK  Name = 
REMARK  9 active torsions:
REMARK  status: ('A' for Active; 'I' for Inactive)
REMARK    1  A    between atoms: C_1  and  C_2
REMARK    2  A    between atoms: C_4  and  C_5
REMARK    3  A    between atoms: C_6  and  S_7
REMARK    4  A    between atoms: S_7  and  N_10
REMARK    5  A    between atoms: C_13  and  C_14
REMARK    6  A    between atoms: C_13  and  C_15
REMARK    7  A    between atoms: N_17  and  C_18
REMARK    8  A    between atoms: C_18  and  C_19
REMARK    9  A    between atoms: C_31  and  C_32
REMARK                            x       y       z     vdW  Elec       q    Type
REMARK                         _______ _______ _______ _____ _____    ______ ____
ROOT
ATOM      1  N   UNL     1       0.076  13.104  21.118  0.00  0.00    +0.000 NA
ATOM      2  C   UNL     1       1.228  12.337  20.693  0.00  0.00    +0.000 C 
ATOM      3  C   UNL     1       0.787  10.947  20.295  0.00  0.00    +0.000 C 
ATOM      4  C   UNL     1       0.063  10.127  21.396  0.00  0.00    +0.000 C 
ATOM      5  C   UNL     1      -0.932   9.028  20.897  0.00  0.00    +0.000 C 
ATOM      6  C   UNL     1      -0.805  11.050  22.314  0.00  0.00    +0.000 C 
ATOM      7  C   UNL     1      -0.502  12.551  22.362  0.00  0.00    +0.000 C 
ENDROOT
BRANCH   4   8
ATOM      8  C   UNL     1       1.165   9.314  22.109  0.00  0.00    +0.000 C 
ATOM      9  O   UNL     1       1.499   9.537  23.278  0.00  0.00    +0.000 OA
ATOM     10  N   UNL     1       1.805   8.298  21.427  0.00  0.00    +0.000 N 
ATOM     11  H   UNL     1       2.489   7.816  21.985  0.00  0.00    +0.000 HD
BRANCH  10  12
ATOM     12  C   UNL     1       1.745   7.920  20.008  0.00  0.00    +0.000 C 
BRANCH  12  13
ATOM     13  C   UNL     1       2.434   6.647  19.617  0.00  0.00    +0.000 A 
ATOM     14  C   UNL     1       3.096   6.611  18.355  0.00  0.00    +0.000 A 
ATOM     15  C   UNL     1       3.694   5.446  17.884  0.00  0.00    +0.000 A 
ATOM     16  C   UNL     1       3.627   4.338  18.693  0.00  0.00    +0.000 A 
ATOM     17  C   UNL     1       3.006   4.371  19.922  0.00  0.00    +0.000 A 
ATOM     18  C   UNL     1       2.409   5.506  20.418  0.00  0.00    +0.000 A 
ATOM     19  O   UNL     1       3.036   3.169  20.551  0.00  0.00    +0.000 OA
ATOM     20  C   UNL     1       3.708   2.364  19.559  0.00  0.00    +0.000 C 
ATOM     21  O   UNL     1       4.121   3.110  18.395  0.00  0.00    +0.000 OA
ENDBRANCH  12  13
ENDBRANCH  10  12
ENDBRANCH   4   8
BRANCH   1  22
ATOM     22  S   UNL     1      -0.849  13.874  19.921  0.00  0.00    +0.000 S 
ATOM     23  O   UNL     1      -0.441  13.353  18.634  0.00  0.00    +0.000 OA
ATOM     24  O   UNL     1      -0.849  15.294  20.188  0.00  0.00    +0.000 OA
BRANCH  22  30
ATOM     25  C   UNL     1      -6.607  11.848  20.690  0.00  0.00    +0.000 C 
ATOM     26  C   UNL     1      -5.230  12.437  20.536  0.00  0.00    +0.000 A 
ATOM     27  C   UNL     1      -4.456  11.997  19.459  0.00  0.00    +0.000 A 
ATOM     28  C   UNL     1      -3.097  12.313  19.346  0.00  0.00    +0.000 A 
ATOM     29  C   UNL     1      -2.280  11.405  18.475  0.00  0.00    +0.000 C 
ATOM     30  C   UNL     1      -2.538  13.265  20.212  0.00  0.00    +0.000 A 
ATOM     31  C   UNL     1      -3.319  13.760  21.283  0.00  0.00    +0.000 A 
ATOM     32  C   UNL     1      -4.650  13.304  21.481  0.00  0.00    +0.000 A 
ATOM     33  C   UNL     1      -5.432  13.674  22.718  0.00  0.00    +0.000 C 
ENDBRANCH  22  30
ENDBRANCH   1  22
TORSDOF 5
ENDMDL
MODEL 5
REMARK VINA RESULT:      -8.5      6.315      9.871
REMARK  Name = 
REMARK  9 active torsions:
REMARK  status: ('A' for Active; 'I' for Inactive)
REMARK    1  A    between atoms: C_1  and  C_2
REMARK    2  A    between atoms: C_4  and  C_5
REMARK    3  A    between atoms: C_6  and  S_7
REMARK    4  A    between atoms: S_7  and  N_10
REMARK    5  A    between atoms: C_13  and  C_14
REMARK    6  A    between atoms: C_13  and  C_15
REMARK    7  A    between atoms: N_17  and  C_18
REMARK    8  A    between atoms: C_18  and  C_19
REMARK    9  A    between atoms: C_31  and  C_32
REMARK                            x       y       z     vdW  Elec       q    Type
REMARK                         _______ _______ _______ _____ _____    ______ ____
ROOT
ATOM      1  N   UNL     1      -0.407  13.086  20.755  0.00  0.00    +0.000 NA
ATOM      2  C   UNL     1      -1.402  12.341  20.013  0.00  0.00    +0.000 C 
ATOM      3  C   UNL     1      -1.171  10.860  20.211  0.00  0.00    +0.000 C 
ATOM      4  C   UNL     1       0.222  10.330  19.783  0.00  0.00    +0.000 C 
ATOM      5  C   UNL     1       0.728   9.045  20.518  0.00  0.00    +0.000 C 
ATOM      6  C   UNL     1       1.340  11.393  20.044  0.00  0.00    +0.000 C 
ATOM      7  C   UNL     1       0.947  12.865  20.202  0.00  0.00    +0.000 C 
ENDROOT
BRANCH   4   8
ATOM      8  C   UNL     1       0.065   9.865  18.319  0.00  0.00    +0.000 C 
ATOM      9  O   UNL     1      -1.002   9.966  17.705  0.00  0.00    +0.000 OA
ATOM     10  N   UNL     1       1.150   9.318  17.664  0.00  0.00    +0.000 N 
ATOM     11  H   UNL     1       0.952   9.068  16.709  0.00  0.00    +0.000 HD
BRANCH  10  12
ATOM     12  C   UNL     1       2.470   8.921  18.175  0.00  0.00    +0.000 C 
BRANCH  12  13
ATOM     13  C   UNL     1       2.882   7.497  17.954  0.00  0.00    +0.000 A 
ATOM     14  C   UNL     1       4.113   7.258  17.276  0.00  0.00    +0.000 A 
ATOM     15  C   UNL     1       4.531   5.968  16.964  0.00  0.00    +0.000 A 
ATOM     16  C   UNL     1       3.711   4.936  17.348  0.00  0.00    +0.000 A 
ATOM     17  C   UNL     1       2.529   5.157  18.022  0.00  0.00    +0.000 A 
ATOM     18  C   UNL     1       2.090   6.419  18.347  0.00  0.00    +0.000 A 
ATOM     19  O   UNL     1       1.863   4.006  18.291  0.00  0.00    +0.000 OA
ATOM     20  C   UNL     1       2.736   3.039  17.673  0.00  0.00    +0.000 C 
ATOM     21  O   UNL     1       3.931   3.619  17.107  0.00  0.00    +0.000 OA
ENDBRANCH  12  13
ENDBRANCH  10  12
ENDBRANCH   4   8
BRANCH   1  22
ATOM     22  S   UNL     1      -0.705  13.386  22.399  0.00  0.00    +0.000 S 
ATOM     23  O   UNL     1       0.140  14.485  22.815  0.00  0.00    +0.000 OA
ATOM     24  O   UNL     1      -0.692  12.125  23.103  0.00  0.00    +0.000 OA
BRANCH  22  30
ATOM     25  C   UNL     1      -6.408  15.687  22.576  0.00  0.00    +0.000 C 
ATOM     26  C   UNL     1      -5.030  15.081  22.625  0.00  0.00    +0.000 A 
ATOM     27  C   UNL     1      -3.979  15.819  22.074  0.00  0.00    +0.000 A 
ATOM     28  C   UNL     1      -2.710  15.264  21.875  0.00  0.00    +0.000 A 
ATOM     29  C   UNL     1      -1.848  15.941  20.850  0.00  0.00    +0.000 C 
ATOM     30  C   UNL     1      -2.413  14.009  22.429  0.00  0.00    +0.000 A 
ATOM     31  C   UNL     1      -3.452  13.264  23.034  0.00  0.00    +0.000 A 
ATOM     32  C   UNL     1      -4.777  13.774  23.083  0.00  0.00    +0.000 A 
ATOM     33  C   UNL     1      -5.931  12.923  23.553  0.00  0.00    +0.000 C 
ENDBRANCH  22  30
ENDBRANCH   1  22
TORSDOF 5
ENDMDL
MODEL 6
REMARK VINA RESULT:      -8.5      2.668      5.072
REMARK  Name = 
REMARK  9 active torsions:
REMARK  status: ('A' for Active; 'I' for Inactive)
REMARK    1  A    between atoms: C_1  and  C_2
REMARK    2  A    between atoms: C_4  and  C_5
REMARK    3  A    between atoms: C_6  and  S_7
REMARK    4  A    between atoms: S_7  and  N_10
REMARK    5  A    between atoms: C_13  and  C_14
REMARK    6  A    between atoms: C_13  and  C_15
REMARK    7  A    between atoms: N_17  and  C_18
REMARK    8  A    between atoms: C_18  and  C_19
REMARK    9  A    between atoms: C_31  and  C_32
REMARK                            x       y       z     vdW  Elec       q    Type
REMARK                         _______ _______ _______ _____ _____    ______ ____
ROOT
ATOM      1  N   UNL     1       2.435   7.178  19.596  0.00  0.00    +0.000 NA
ATOM      2  C   UNL     1       3.709   6.671  19.131  0.00  0.00    +0.000 C 
ATOM      3  C   UNL     1       3.473   5.608  18.081  0.00  0.00    +0.000 C 
ATOM      4  C   UNL     1       2.624   4.391  18.531  0.00  0.00    +0.000 C 
ATOM      5  C   UNL     1       1.841   3.639  17.404  0.00  0.00    +0.000 C 
ATOM      6  C   UNL     1       1.520   4.815  19.555  0.00  0.00    +0.000 C 
ATOM      7  C   UNL     1       1.678   6.134  20.319  0.00  0.00    +0.000 C 
ENDROOT
BRANCH   4   8
ATOM      8  C   UNL     1       3.633   3.334  19.030  0.00  0.00    +0.000 C 
ATOM      9  O   UNL     1       3.417   2.632  20.024  0.00  0.00    +0.000 OA
ATOM     10  N   UNL     1       4.821   3.159  18.349  0.00  0.00    +0.000 N 
ATOM     11  H   UNL     1       5.399   2.434  18.740  0.00  0.00    +0.000 HD
BRANCH  10  12
ATOM     12  C   UNL     1       5.419   3.945  17.261  0.00  0.00    +0.000 C 
BRANCH  12  13
ATOM     13  C   UNL     1       6.358   5.045  17.656  0.00  0.00    +0.000 A 
ATOM     14  C   UNL     1       7.150   4.855  18.825  0.00  0.00    +0.000 A 
ATOM     15  C   UNL     1       7.990   5.856  19.304  0.00  0.00    +0.000 A 
ATOM     16  C   UNL     1       8.029   7.030  18.592  0.00  0.00    +0.000 A 
ATOM     17  C   UNL     1       7.282   7.215  17.449  0.00  0.00    +0.000 A 
ATOM     18  C   UNL     1       6.445   6.244  16.950  0.00  0.00    +0.000 A 
ATOM     19  O   UNL     1       7.452   8.449  16.912  0.00  0.00    +0.000 OA
ATOM     20  C   UNL     1       8.358   9.036  17.869  0.00  0.00    +0.000 C 
ATOM     21  O   UNL     1       8.759   8.128  18.916  0.00  0.00    +0.000 OA
ENDBRANCH  12  13
ENDBRANCH  10  12
ENDBRANCH   4   8
BRANCH   1  22
ATOM     22  S   UNL     1       1.695   8.410  18.693  0.00  0.00    +0.000 S 
ATOM     23  O   UNL     1       0.749   7.796  17.786  0.00  0.00    +0.000 OA
ATOM     24  O   UNL     1       2.723   9.303  18.210  0.00  0.00    +0.000 OA
BRANCH  22  30
ATOM     25  C   UNL     1      -1.571  11.692  22.744  0.00  0.00    +0.000 C 
ATOM     26  C   UNL     1      -0.695  10.886  21.822  0.00  0.00    +0.000 A 
ATOM     27  C   UNL     1      -0.780  11.153  20.453  0.00  0.00    +0.000 A 
ATOM     28  C   UNL     1      -0.176  10.325  19.498  0.00  0.00    +0.000 A 
ATOM     29  C   UNL     1      -0.739  10.403  18.110  0.00  0.00    +0.000 C 
ATOM     30  C   UNL     1       0.712   9.325  19.920  0.00  0.00    +0.000 A 
ATOM     31  C   UNL     1       0.850   9.069  21.304  0.00  0.00    +0.000 A 
ATOM     32  C   UNL     1       0.103   9.812  22.257  0.00  0.00    +0.000 A 
ATOM     33  C   UNL     1       0.093   9.432  23.718  0.00  0.00    +0.000 C 
ENDBRANCH  22  30
ENDBRANCH   1  22
TORSDOF 5
ENDMDL
MODEL 7
REMARK VINA RESULT:      -8.5      6.661     10.243
REMARK  Name = 
REMARK  9 active torsions:
REMARK  status: ('A' for Active; 'I' for Inactive)
REMARK    1  A    between atoms: C_1  and  C_2
REMARK    2  A    between atoms: C_4  and  C_5
REMARK    3  A    between atoms: C_6  and  S_7
REMARK    4  A    between atoms: S_7  and  N_10
REMARK    5  A    between atoms: C_13  and  C_14
REMARK    6  A    between atoms: C_13  and  C_15
REMARK    7  A    between atoms: N_17  and  C_18
REMARK    8  A    between atoms: C_18  and  C_19
REMARK    9  A    between atoms: C_31  and  C_32
REMARK                            x       y       z     vdW  Elec       q    Type
REMARK                         _______ _______ _______ _____ _____    ______ ____
ROOT
ATOM      1  N   UNL     1       0.596  13.971  19.224  0.00  0.00    +0.000 NA
ATOM      2  C   UNL     1      -0.606  13.485  18.579  0.00  0.00    +0.000 C 
ATOM      3  C   UNL     1      -1.112  12.266  19.316  0.00  0.00    +0.000 C 
ATOM      4  C   UNL     1      -0.122  11.075  19.412  0.00  0.00    +0.000 C 
ATOM      5  C   UNL     1      -0.311  10.115  20.633  0.00  0.00    +0.000 C 
ATOM      6  C   UNL     1       1.356  11.574  19.535  0.00  0.00    +0.000 C 
ATOM      7  C   UNL     1       1.702  12.999  19.091  0.00  0.00    +0.000 C 
ENDROOT
BRANCH   4   8
ATOM      8  C   UNL     1      -0.427  10.173  18.198  0.00  0.00    +0.000 C 
ATOM      9  O   UNL     1      -1.574  10.008  17.769  0.00  0.00    +0.000 OA
ATOM     10  N   UNL     1       0.610   9.522  17.561  0.00  0.00    +0.000 N 
ATOM     11  H   UNL     1       0.310   8.977  16.770  0.00  0.00    +0.000 HD
BRANCH  10  12
ATOM     12  C   UNL     1       2.025   9.389  17.937  0.00  0.00    +0.000 C 
BRANCH  12  13
ATOM     13  C   UNL     1       2.479   8.037  18.399  0.00  0.00    +0.000 A 
ATOM     14  C   UNL     1       3.441   7.351  17.601  0.00  0.00    +0.000 A 
ATOM     15  C   UNL     1       3.859   6.062  17.918  0.00  0.00    +0.000 A 
ATOM     16  C   UNL     1       3.312   5.486  19.039  0.00  0.00    +0.000 A 
ATOM     17  C   UNL     1       2.397   6.151  19.827  0.00  0.00    +0.000 A 
ATOM     18  C   UNL     1       1.967   7.426  19.542  0.00  0.00    +0.000 A 
ATOM     19  O   UNL     1       1.970   5.399  20.872  0.00  0.00    +0.000 OA
ATOM     20  C   UNL     1       2.686   4.170  20.628  0.00  0.00    +0.000 C 
ATOM     21  O   UNL     1       3.569   4.233  19.490  0.00  0.00    +0.000 OA
ENDBRANCH  12  13
ENDBRANCH  10  12
ENDBRANCH   4   8
BRANCH   1  22
ATOM     22  S   UNL     1       0.417  15.005  20.558  0.00  0.00    +0.000 S 
ATOM     23  O   UNL     1       1.530  15.930  20.561  0.00  0.00    +0.000 OA
ATOM     24  O   UNL     1       0.109  14.202  21.719  0.00  0.00    +0.000 OA
BRANCH  22  30
ATOM     25  C   UNL     1      -4.475  18.495  19.242  0.00  0.00    +0.000 C 
ATOM     26  C   UNL     1      -3.312  17.636  19.662  0.00  0.00    +0.000 A 
ATOM     27  C   UNL     1      -2.073  17.889  19.066  0.00  0.00    +0.000 A 
ATOM     28  C   UNL     1      -0.986  17.020  19.222  0.00  0.00    +0.000 A 
ATOM     29  C   UNL     1       0.082  17.108  18.171  0.00  0.00    +0.000 C 
ATOM     30  C   UNL     1      -1.064  15.982  20.162  0.00  0.00    +0.000 A 
ATOM     31  C   UNL     1      -2.297  15.737  20.812  0.00  0.00    +0.000 A 
ATOM     32  C   UNL     1      -3.440  16.528  20.521  0.00  0.00    +0.000 A 
ATOM     33  C   UNL     1      -4.804  16.168  21.059  0.00  0.00    +0.000 C 
ENDBRANCH  22  30
ENDBRANCH   1  22
TORSDOF 5
ENDMDL
MODEL 8
REMARK VINA RESULT:      -8.4      6.985     10.757
REMARK  Name = 
REMARK  9 active torsions:
REMARK  status: ('A' for Active; 'I' for Inactive)
REMARK    1  A    between atoms: C_1  and  C_2
REMARK    2  A    between atoms: C_4  and  C_5
REMARK    3  A    between atoms: C_6  and  S_7
REMARK    4  A    between atoms: S_7  and  N_10
REMARK    5  A    between atoms: C_13  and  C_14
REMARK    6  A    between atoms: C_13  and  C_15
REMARK    7  A    between atoms: N_17  and  C_18
REMARK    8  A    between atoms: C_18  and  C_19
REMARK    9  A    between atoms: C_31  and  C_32
REMARK                            x       y       z     vdW  Elec       q    Type
REMARK                         _______ _______ _______ _____ _____    ______ ____
ROOT
ATOM      1  N   UNL     1       9.762  15.331  18.554  0.00  0.00    +0.000 NA
ATOM      2  C   UNL     1       9.261  16.677  18.734  0.00  0.00    +0.000 C 
ATOM      3  C   UNL     1       8.224  16.684  19.834  0.00  0.00    +0.000 C 
ATOM      4  C   UNL     1       6.999  15.757  19.612  0.00  0.00    +0.000 C 
ATOM      5  C   UNL     1       6.276  15.247  20.902  0.00  0.00    +0.000 C 
ATOM      6  C   UNL     1       7.404  14.452  18.851  0.00  0.00    +0.000 C 
ATOM      7  C   UNL     1       8.705  14.433  18.042  0.00  0.00    +0.000 C 
ENDROOT
BRANCH   4   8
ATOM      8  C   UNL     1       5.928  16.631  18.925  0.00  0.00    +0.000 C 
ATOM      9  O   UNL     1       5.936  17.865  18.997  0.00  0.00    +0.000 OA
ATOM     10  N   UNL     1       4.922  16.023  18.201  0.00  0.00    +0.000 N 
ATOM     11  H   UNL     1       4.288  16.678  17.774  0.00  0.00    +0.000 HD
BRANCH  10  12
ATOM     12  C   UNL     1       4.561  14.604  18.080  0.00  0.00    +0.000 C 
BRANCH  12  13
ATOM     13  C   UNL     1       3.122  14.249  18.308  0.00  0.00    +0.000 A 
ATOM     14  C   UNL     1       2.213  15.309  18.593  0.00  0.00    +0.000 A 
ATOM     15  C   UNL     1       0.877  15.059  18.891  0.00  0.00    +0.000 A 
ATOM     16  C   UNL     1       0.472  13.747  18.887  0.00  0.00    +0.000 A 
ATOM     17  C   UNL     1       1.339  12.718  18.592  0.00  0.00    +0.000 A 
ATOM     18  C   UNL     1       2.664  12.932  18.291  0.00  0.00    +0.000 A 
ATOM     19  O   UNL     1       0.743  11.501  18.661  0.00  0.00    +0.000 OA
ATOM     20  C   UNL     1      -0.587  11.877  19.075  0.00  0.00    +0.000 C 
ATOM     21  O   UNL     1      -0.777  13.303  19.181  0.00  0.00    +0.000 OA
ENDBRANCH  12  13
ENDBRANCH  10  12
ENDBRANCH   4   8
BRANCH   1  22
ATOM     22  S   UNL     1      11.017  14.809  19.571  0.00  0.00    +0.000 S 
ATOM     23  O   UNL     1      11.608  15.976  20.190  0.00  0.00    +0.000 OA
ATOM     24  O   UNL     1      11.826  13.856  18.846  0.00  0.00    +0.000 OA
BRANCH  22  30
ATOM     25  C   UNL     1       7.992  11.647  23.895  0.00  0.00    +0.000 C 
ATOM     26  C   UNL     1       8.672  12.502  22.859  0.00  0.00    +0.000 A 
ATOM     27  C   UNL     1       9.092  11.878  21.681  0.00  0.00    +0.000 A 
ATOM     28  C   UNL     1       9.917  12.526  20.754  0.00  0.00    +0.000 A 
ATOM     29  C   UNL     1      10.695  11.637  19.830  0.00  0.00    +0.000 C 
ATOM     30  C   UNL     1      10.161  13.901  20.894  0.00  0.00    +0.000 A 
ATOM     31  C   UNL     1       9.705  14.563  22.058  0.00  0.00    +0.000 A 
ATOM     32  C   UNL     1       9.007  13.852  23.071  0.00  0.00    +0.000 A 
ATOM     33  C   UNL     1       8.677  14.493  24.397  0.00  0.00    +0.000 C 
ENDBRANCH  22  30
ENDBRANCH   1  22
TORSDOF 5
ENDMDL
MODEL 9
REMARK VINA RESULT:      -8.3      4.343      6.344
REMARK  Name = 
REMARK  9 active torsions:
REMARK  status: ('A' for Active; 'I' for Inactive)
REMARK    1  A    between atoms: C_1  and  C_2
REMARK    2  A    between atoms: C_4  and  C_5
REMARK    3  A    between atoms: C_6  and  S_7
REMARK    4  A    between atoms: S_7  and  N_10
REMARK    5  A    between atoms: C_13  and  C_14
REMARK    6  A    between atoms: C_13  and  C_15
REMARK    7  A    between atoms: N_17  and  C_18
REMARK    8  A    between atoms: C_18  and  C_19
REMARK    9  A    between atoms: C_31  and  C_32
REMARK                            x       y       z     vdW  Elec       q    Type
REMARK                         _______ _______ _______ _____ _____    ______ ____
ROOT
ATOM      1  N   UNL     1       2.528   7.217  19.555  0.00  0.00    +0.000 NA
ATOM      2  C   UNL     1       3.878   6.833  19.200  0.00  0.00    +0.000 C 
ATOM      3  C   UNL     1       3.832   5.787  18.110  0.00  0.00    +0.000 C 
ATOM      4  C   UNL     1       3.053   4.490  18.451  0.00  0.00    +0.000 C 
ATOM      5  C   UNL     1       2.444   3.710  17.239  0.00  0.00    +0.000 C 
ATOM      6  C   UNL     1       1.828   4.789  19.376  0.00  0.00    +0.000 C 
ATOM      7  C   UNL     1       1.801   6.092  20.181  0.00  0.00    +0.000 C 
ENDROOT
BRANCH   4   8
ATOM      8  C   UNL     1       4.100   3.506  19.018  0.00  0.00    +0.000 C 
ATOM      9  O   UNL     1       3.793   2.577  19.772  0.00  0.00    +0.000 OA
ATOM     10  N   UNL     1       5.429   3.662  18.677  0.00  0.00    +0.000 N 
ATOM     11  H   UNL     1       6.026   2.960  19.079  0.00  0.00    +0.000 HD
BRANCH  10  12
ATOM     12  C   UNL     1       6.105   4.749  17.955  0.00  0.00    +0.000 C 
BRANCH  12  13
ATOM     13  C   UNL     1       6.239   4.595  16.470  0.00  0.00    +0.000 A 
ATOM     14  C   UNL     1       5.470   3.577  15.834  0.00  0.00    +0.000 A 
ATOM     15  C   UNL     1       5.593   3.318  14.473  0.00  0.00    +0.000 A 
ATOM     16  C   UNL     1       6.480   4.095  13.767  0.00  0.00    +0.000 A 
ATOM     17  C   UNL     1       7.212   5.094  14.370  0.00  0.00    +0.000 A 
ATOM     18  C   UNL     1       7.111   5.377  15.712  0.00  0.00    +0.000 A 
ATOM     19  O   UNL     1       8.039   5.728  13.501  0.00  0.00    +0.000 OA
ATOM     20  C   UNL     1       7.777   4.985  12.292  0.00  0.00    +0.000 C 
ATOM     21  O   UNL     1       6.760   3.973  12.445  0.00  0.00    +0.000 OA
ENDBRANCH  12  13
ENDBRANCH  10  12
ENDBRANCH   4   8
BRANCH   1  22
ATOM     22  S   UNL     1       1.770   8.410  18.615  0.00  0.00    +0.000 S 
ATOM     23  O   UNL     1       0.841   7.753  17.721  0.00  0.00    +0.000 OA
ATOM     24  O   UNL     1       2.785   9.308  18.113  0.00  0.00    +0.000 OA
BRANCH  22  30
ATOM     25  C   UNL     1      -1.569  11.742  22.564  0.00  0.00    +0.000 C 
ATOM     26  C   UNL     1      -0.677  10.924  21.669  0.00  0.00    +0.000 A 
ATOM     27  C   UNL     1      -0.721  11.186  20.297  0.00  0.00    +0.000 A 
ATOM     28  C   UNL     1      -0.100  10.349  19.362  0.00  0.00    +0.000 A 
ATOM     29  C   UNL     1      -0.624  10.428  17.958  0.00  0.00    +0.000 C 
ATOM     30  C   UNL     1       0.764   9.340  19.811  0.00  0.00    +0.000 A 
ATOM     31  C   UNL     1       0.861   9.087  21.200  0.00  0.00    +0.000 A 
ATOM     32  C   UNL     1       0.096   9.841  22.130  0.00  0.00    +0.000 A 
ATOM     33  C   UNL     1       0.041   9.467  23.591  0.00  0.00    +0.000 C 
ENDBRANCH  22  30
ENDBRANCH   1  22
TORSDOF 5
ENDMDL
