MODEL 1
REMARK VINA RESULT:      -6.5      0.000      0.000
REMARK  Name = 
REMARK  5 active torsions:
REMARK  status: ('A' for Active; 'I' for Inactive)
REMARK    1  A    between atoms: C_1  and  C_2
REMARK    2  A    between atoms: C_2  and  S_3
REMARK    3  A    between atoms: C_2  and  C_13
REMARK    4  A    between atoms: S_3  and  C_4
REMARK    5  A    between atoms: C_7  and  N_8
REMARK                            x       y       z     vdW  Elec       q    Type
REMARK                         _______ _______ _______ _____ _____    ______ ____
ROOT
ATOM      1  C   UNL     1       3.003   7.777  17.866  0.00  0.00    +0.000 C 
ATOM      2  C   UNL     1       2.586   6.602  18.752  0.00  0.00    +0.000 C 
ENDROOT
BRANCH   2   3
ATOM      3  C   UNL     1       1.859   7.149  20.002  0.00  0.00    +0.000 C 
ATOM      4  O   UNL     1       1.620   6.419  20.964  0.00  0.00    +0.000 OA
ATOM      5  N   UNL     1       1.549   8.493  19.933  0.00  0.00    +0.000 N 
ATOM      6  C   UNL     1       0.926   9.137  20.970  0.00  0.00    +0.000 A 
ATOM      7  N   UNL     1       0.744   8.734  22.200  0.00  0.00    +0.000 NA
ATOM      8  C   UNL     1       0.025   9.682  22.897  0.00  0.00    +0.000 A 
ATOM      9  C   UNL     1      -0.327  10.804  22.177  0.00  0.00    +0.000 A 
ATOM     10  S   UNL     1       0.304  10.681  20.583  0.00  0.00    +0.000 S 
ATOM     11  H   UNL     1       1.606   8.981  19.050  0.00  0.00    +0.000 HD
ENDBRANCH   2   3
BRANCH   2  12
ATOM     12  S   UNL     1       4.043   5.610  19.306  0.00  0.00    +0.000 S 
BRANCH  12  13
ATOM     13  C   UNL     1       4.963   5.370  17.794  0.00  0.00    +0.000 A 
ATOM     14  C   UNL     1       4.437   4.498  16.843  0.00  0.00    +0.000 A 
ATOM     15  C   UNL     1       5.119   4.302  15.642  0.00  0.00    +0.000 A 
ATOM     16  C   UNL     1       6.310   4.993  15.433  0.00  0.00    +0.000 A 
ATOM     17  C   UNL     1       6.766   5.853  16.418  0.00  0.00    +0.000 A 
ATOM     18  N   UNL     1       6.108   6.061  17.596  0.00  0.00    +0.000 NA
BRANCH  16  19
ATOM     19  N   UNL     1       7.065   4.821  14.196  0.00  0.00    +0.000 N 
ATOM     20  O   UNL     1       6.663   3.965  13.394  0.00  0.00    +0.000 OA
ATOM     21  O   UNL     1       8.054   5.542  14.021  0.00  0.00    +0.000 OA
ENDBRANCH  16  19
ENDBRANCH  12  13
ENDBRANCH   2  12
TORSDOF 4
ENDMDL
MODEL 2
REMARK VINA RESULT:      -6.5      4.450      5.152
REMARK  Name = 
REMARK  5 active torsions:
REMARK  status: ('A' for Active; 'I' for Inactive)
REMARK    1  A    between atoms: C_1  and  C_2
REMARK    2  A    between atoms: C_2  and  S_3
REMARK    3  A    between atoms: C_2  and  C_13
REMARK    4  A    between atoms: S_3  and  C_4
REMARK    5  A    between atoms: C_7  and  N_8
REMARK                            x       y       z     vdW  Elec       q    Type
REMARK                         _______ _______ _______ _____ _____    ______ ____
ROOT
ATOM      1  C   UNL     1       7.655   4.296  17.977  0.00  0.00    +0.000 C 
ATOM      2  C   UNL     1       6.885   5.541  18.420  0.00  0.00    +0.000 C 
ENDROOT
BRANCH   2   3
ATOM      3  C   UNL     1       5.484   5.114  18.916  0.00  0.00    +0.000 C 
ATOM      4  O   UNL     1       4.821   5.851  19.645  0.00  0.00    +0.000 OA
ATOM      5  N   UNL     1       5.069   3.883  18.447  0.00  0.00    +0.000 N 
ATOM      6  C   UNL     1       3.841   3.371  18.774  0.00  0.00    +0.000 A 
ATOM      7  N   UNL     1       2.816   3.972  19.320  0.00  0.00    +0.000 NA
ATOM      8  C   UNL     1       1.796   3.065  19.515  0.00  0.00    +0.000 A 
ATOM      9  C   UNL     1       2.065   1.776  19.105  0.00  0.00    +0.000 A 
ATOM     10  S   UNL     1       3.638   1.713  18.413  0.00  0.00    +0.000 S 
ATOM     11  H   UNL     1       5.732   3.258  18.012  0.00  0.00    +0.000 HD
ENDBRANCH   2   3
BRANCH   2  12
ATOM     12  S   UNL     1       6.677   6.748  17.037  0.00  0.00    +0.000 S 
BRANCH  12  13
ATOM     13  C   UNL     1       6.540   5.694  15.602  0.00  0.00    +0.000 A 
ATOM     14  C   UNL     1       5.311   5.085  15.355  0.00  0.00    +0.000 A 
ATOM     15  C   UNL     1       5.164   4.271  14.232  0.00  0.00    +0.000 A 
ATOM     16  C   UNL     1       6.257   4.098  13.387  0.00  0.00    +0.000 A 
ATOM     17  C   UNL     1       7.443   4.746  13.688  0.00  0.00    +0.000 A 
ATOM     18  N   UNL     1       7.603   5.550  14.779  0.00  0.00    +0.000 NA
BRANCH  16  19
ATOM     19  N   UNL     1       6.157   3.255  12.201  0.00  0.00    +0.000 N 
ATOM     20  O   UNL     1       5.021   2.998  11.775  0.00  0.00    +0.000 OA
ATOM     21  O   UNL     1       7.209   2.853  11.690  0.00  0.00    +0.000 OA
ENDBRANCH  16  19
ENDBRANCH  12  13
ENDBRANCH   2  12
TORSDOF 4
ENDMDL
MODEL 3
REMARK VINA RESULT:      -6.4      3.669      8.219
REMARK  Name = 
REMARK  5 active torsions:
REMARK  status: ('A' for Active; 'I' for Inactive)
REMARK    1  A    between atoms: C_1  and  C_2
REMARK    2  A    between atoms: C_2  and  S_3
REMARK    3  A    between atoms: C_2  and  C_13
REMARK    4  A    between atoms: S_3  and  C_4
REMARK    5  A    between atoms: C_7  and  N_8
REMARK                            x       y       z     vdW  Elec       q    Type
REMARK                         _______ _______ _______ _____ _____    ______ ____
ROOT
ATOM      1  C   UNL     1       7.783   6.096  19.054  0.00  0.00    +0.000 C 
ATOM      2  C   UNL     1       6.642   5.670  18.128  0.00  0.00    +0.000 C 
ENDROOT
BRANCH   2   3
ATOM      3  C   UNL     1       7.104   5.818  16.660  0.00  0.00    +0.000 C 
ATOM      4  O   UNL     1       7.837   6.746  16.320  0.00  0.00    +0.000 OA
ATOM      5  N   UNL     1       6.646   4.822  15.820  0.00  0.00    +0.000 N 
ATOM      6  C   UNL     1       6.987   4.794  14.493  0.00  0.00    +0.000 A 
ATOM      7  N   UNL     1       7.912   5.472  13.865  0.00  0.00    +0.000 NA
ATOM      8  C   UNL     1       7.879   5.166  12.521  0.00  0.00    +0.000 A 
ATOM      9  C   UNL     1       6.921   4.248  12.147  0.00  0.00    +0.000 A 
ATOM     10  S   UNL     1       6.061   3.720  13.540  0.00  0.00    +0.000 S 
ATOM     11  H   UNL     1       5.906   4.205  16.123  0.00  0.00    +0.000 HD
ENDBRANCH   2   3
BRANCH   2  12
ATOM     12  S   UNL     1       5.133   6.707  18.377  0.00  0.00    +0.000 S 
BRANCH  12  13
ATOM     13  C   UNL     1       3.939   5.535  19.004  0.00  0.00    +0.000 A 
ATOM     14  C   UNL     1       2.822   6.035  19.669  0.00  0.00    +0.000 A 
ATOM     15  C   UNL     1       1.860   5.150  20.154  0.00  0.00    +0.000 A 
ATOM     16  C   UNL     1       2.049   3.785  19.950  0.00  0.00    +0.000 A 
ATOM     17  C   UNL     1       3.177   3.361  19.268  0.00  0.00    +0.000 A 
ATOM     18  N   UNL     1       4.125   4.214  18.782  0.00  0.00    +0.000 NA
BRANCH  16  19
ATOM     19  N   UNL     1       1.075   2.816  20.440  0.00  0.00    +0.000 N 
ATOM     20  O   UNL     1       0.199   2.434  19.649  0.00  0.00    +0.000 OA
ATOM     21  O   UNL     1       1.185   2.429  21.609  0.00  0.00    +0.000 OA
ENDBRANCH  16  19
ENDBRANCH  12  13
ENDBRANCH   2  12
TORSDOF 4
ENDMDL
MODEL 4
REMARK VINA RESULT:      -6.4      2.268      3.251
REMARK  Name = 
REMARK  5 active torsions:
REMARK  status: ('A' for Active; 'I' for Inactive)
REMARK    1  A    between atoms: C_1  and  C_2
REMARK    2  A    between atoms: C_2  and  S_3
REMARK    3  A    between atoms: C_2  and  C_13
REMARK    4  A    between atoms: S_3  and  C_4
REMARK    5  A    between atoms: C_7  and  N_8
REMARK                            x       y       z     vdW  Elec       q    Type
REMARK                         _______ _______ _______ _____ _____    ______ ____
ROOT
ATOM      1  C   UNL     1       1.800   2.980  21.503  0.00  0.00    +0.000 C 
ATOM      2  C   UNL     1       2.679   3.757  20.522  0.00  0.00    +0.000 C 
ENDROOT
BRANCH   2   3
ATOM      3  C   UNL     1       2.069   5.162  20.307  0.00  0.00    +0.000 C 
ATOM      4  O   UNL     1       1.075   5.522  20.936  0.00  0.00    +0.000 OA
ATOM      5  N   UNL     1       2.751   5.940  19.392  0.00  0.00    +0.000 N 
ATOM      6  C   UNL     1       2.353   7.220  19.107  0.00  0.00    +0.000 A 
ATOM      7  N   UNL     1       1.505   7.982  19.746  0.00  0.00    +0.000 NA
ATOM      8  C   UNL     1       1.368   9.183  19.082  0.00  0.00    +0.000 A 
ATOM      9  C   UNL     1       2.129   9.316  17.939  0.00  0.00    +0.000 A 
ATOM     10  S   UNL     1       3.077   7.900  17.716  0.00  0.00    +0.000 S 
ATOM     11  H   UNL     1       3.438   5.520  18.783  0.00  0.00    +0.000 HD
ENDBRANCH   2   3
BRANCH   2  12
ATOM     12  S   UNL     1       2.795   2.910  18.884  0.00  0.00    +0.000 S 
BRANCH  12  13
ATOM     13  C   UNL     1       4.111   3.797  18.066  0.00  0.00    +0.000 A 
ATOM     14  C   UNL     1       5.309   3.968  18.757  0.00  0.00    +0.000 A 
ATOM     15  C   UNL     1       6.366   4.638  18.140  0.00  0.00    +0.000 A 
ATOM     16  C   UNL     1       6.187   5.113  16.843  0.00  0.00    +0.000 A 
ATOM     17  C   UNL     1       4.972   4.894  16.213  0.00  0.00    +0.000 A 
ATOM     18  N   UNL     1       3.931   4.235  16.800  0.00  0.00    +0.000 NA
BRANCH  16  19
ATOM     19  N   UNL     1       7.258   5.824  16.154  0.00  0.00    +0.000 N 
ATOM     20  O   UNL     1       7.683   6.865  16.677  0.00  0.00    +0.000 OA
ATOM     21  O   UNL     1       7.680   5.343  15.096  0.00  0.00    +0.000 OA
ENDBRANCH  16  19
ENDBRANCH  12  13
ENDBRANCH   2  12
TORSDOF 4
ENDMDL
MODEL 5
REMARK VINA RESULT:      -6.4      3.770      8.219
REMARK  Name = 
REMARK  5 active torsions:
REMARK  status: ('A' for Active; 'I' for Inactive)
REMARK    1  A    between atoms: C_1  and  C_2
REMARK    2  A    between atoms: C_2  and  S_3
REMARK    3  A    between atoms: C_2  and  C_13
REMARK    4  A    between atoms: S_3  and  C_4
REMARK    5  A    between atoms: C_7  and  N_8
REMARK                            x       y       z     vdW  Elec       q    Type
REMARK                         _______ _______ _______ _____ _____    ______ ____
ROOT
ATOM      1  C   UNL     1       7.523   6.843  17.350  0.00  0.00    +0.000 C 
ATOM      2  C   UNL     1       6.317   5.920  17.533  0.00  0.00    +0.000 C 
ENDROOT
BRANCH   2   3
ATOM      3  C   UNL     1       6.224   4.968  16.319  0.00  0.00    +0.000 C 
ATOM      4  O   UNL     1       5.677   3.870  16.417  0.00  0.00    +0.000 OA
ATOM      5  N   UNL     1       6.773   5.477  15.158  0.00  0.00    +0.000 N 
ATOM      6  C   UNL     1       6.750   4.768  13.986  0.00  0.00    +0.000 A 
ATOM      7  N   UNL     1       6.060   3.699  13.682  0.00  0.00    +0.000 NA
ATOM      8  C   UNL     1       6.378   3.290  12.405  0.00  0.00    +0.000 A 
ATOM      9  C   UNL     1       7.311   4.066  11.750  0.00  0.00    +0.000 A 
ATOM     10  S   UNL     1       7.772   5.379  12.760  0.00  0.00    +0.000 S 
ATOM     11  H   UNL     1       7.364   6.295  15.194  0.00  0.00    +0.000 HD
ENDBRANCH   2   3
BRANCH   2  12
ATOM     12  S   UNL     1       4.737   6.871  17.657  0.00  0.00    +0.000 S 
BRANCH  12  13
ATOM     13  C   UNL     1       3.605   5.680  18.356  0.00  0.00    +0.000 A 
ATOM     14  C   UNL     1       3.579   5.542  19.743  0.00  0.00    +0.000 A 
ATOM     15  C   UNL     1       2.693   4.635  20.324  0.00  0.00    +0.000 A 
ATOM     16  C   UNL     1       1.855   3.896  19.492  0.00  0.00    +0.000 A 
ATOM     17  C   UNL     1       1.928   4.096  18.123  0.00  0.00    +0.000 A 
ATOM     18  N   UNL     1       2.785   4.983  17.539  0.00  0.00    +0.000 NA
BRANCH  16  19
ATOM     19  N   UNL     1       0.913   2.931  20.048  0.00  0.00    +0.000 N 
ATOM     20  O   UNL     1       0.962   2.722  21.270  0.00  0.00    +0.000 OA
ATOM     21  O   UNL     1       0.120   2.387  19.271  0.00  0.00    +0.000 OA
ENDBRANCH  16  19
ENDBRANCH  12  13
ENDBRANCH   2  12
TORSDOF 4
ENDMDL
MODEL 6
REMARK VINA RESULT:      -6.3      2.975      8.252
REMARK  Name = 
REMARK  5 active torsions:
REMARK  status: ('A' for Active; 'I' for Inactive)
REMARK    1  A    between atoms: C_1  and  C_2
REMARK    2  A    between atoms: C_2  and  S_3
REMARK    3  A    between atoms: C_2  and  C_13
REMARK    4  A    between atoms: S_3  and  C_4
REMARK    5  A    between atoms: C_7  and  N_8
REMARK                            x       y       z     vdW  Elec       q    Type
REMARK                         _______ _______ _______ _____ _____    ______ ____
ROOT
ATOM      1  C   UNL     1       6.083   5.334  19.183  0.00  0.00    +0.000 C 
ATOM      2  C   UNL     1       5.922   4.314  18.055  0.00  0.00    +0.000 C 
ENDROOT
BRANCH   2   3
ATOM      3  C   UNL     1       6.599   4.865  16.778  0.00  0.00    +0.000 C 
ATOM      4  O   UNL     1       7.327   5.855  16.828  0.00  0.00    +0.000 OA
ATOM      5  N   UNL     1       6.329   4.137  15.636  0.00  0.00    +0.000 N 
ATOM      6  C   UNL     1       6.872   4.480  14.426  0.00  0.00    +0.000 A 
ATOM      7  N   UNL     1       7.848   5.310  14.166  0.00  0.00    +0.000 NA
ATOM      8  C   UNL     1       8.040   5.388  12.802  0.00  0.00    +0.000 A 
ATOM      9  C   UNL     1       7.199   4.603  12.042  0.00  0.00    +0.000 A 
ATOM     10  S   UNL     1       6.162   3.706  13.078  0.00  0.00    +0.000 S 
ATOM     11  H   UNL     1       5.583   3.456  15.634  0.00  0.00    +0.000 HD
ENDBRANCH   2   3
BRANCH   2  12
ATOM     12  S   UNL     1       4.144   3.980  17.680  0.00  0.00    +0.000 S 
BRANCH  12  13
ATOM     13  C   UNL     1       3.304   5.343  18.473  0.00  0.00    +0.000 A 
ATOM     14  C   UNL     1       2.707   5.109  19.710  0.00  0.00    +0.000 A 
ATOM     15  C   UNL     1       2.060   6.155  20.366  0.00  0.00    +0.000 A 
ATOM     16  C   UNL     1       2.037   7.409  19.760  0.00  0.00    +0.000 A 
ATOM     17  C   UNL     1       2.663   7.570  18.535  0.00  0.00    +0.000 A 
ATOM     18  N   UNL     1       3.306   6.559  17.882  0.00  0.00    +0.000 NA
BRANCH  16  19
ATOM     19  N   UNL     1       1.370   8.537  20.402  0.00  0.00    +0.000 N 
ATOM     20  O   UNL     1       1.385   8.580  21.641  0.00  0.00    +0.000 OA
ATOM     21  O   UNL     1       0.838   9.382  19.673  0.00  0.00    +0.000 OA
ENDBRANCH  16  19
ENDBRANCH  12  13
ENDBRANCH   2  12
TORSDOF 4
ENDMDL
MODEL 7
REMARK VINA RESULT:      -6.3      2.447      3.361
REMARK  Name = 
REMARK  5 active torsions:
REMARK  status: ('A' for Active; 'I' for Inactive)
REMARK    1  A    between atoms: C_1  and  C_2
REMARK    2  A    between atoms: C_2  and  S_3
REMARK    3  A    between atoms: C_2  and  C_13
REMARK    4  A    between atoms: S_3  and  C_4
REMARK    5  A    between atoms: C_7  and  N_8
REMARK                            x       y       z     vdW  Elec       q    Type
REMARK                         _______ _______ _______ _____ _____    ______ ____
ROOT
ATOM      1  C   UNL     1       1.814   2.930  22.004  0.00  0.00    +0.000 C 
ATOM      2  C   UNL     1       2.687   3.514  20.892  0.00  0.00    +0.000 C 
ENDROOT
BRANCH   2   3
ATOM      3  C   UNL     1       2.137   4.904  20.499  0.00  0.00    +0.000 C 
ATOM      4  O   UNL     1       1.098   5.336  20.996  0.00  0.00    +0.000 OA
ATOM      5  N   UNL     1       2.923   5.587  19.591  0.00  0.00    +0.000 N 
ATOM      6  C   UNL     1       2.588   6.844  19.159  0.00  0.00    +0.000 A 
ATOM      7  N   UNL     1       1.702   7.674  19.645  0.00  0.00    +0.000 NA
ATOM      8  C   UNL     1       1.661   8.813  18.871  0.00  0.00    +0.000 A 
ATOM      9  C   UNL     1       2.529   8.832  17.799  0.00  0.00    +0.000 A 
ATOM     10  S   UNL     1       3.458   7.385  17.792  0.00  0.00    +0.000 S 
ATOM     11  H   UNL     1       3.653   5.103  19.089  0.00  0.00    +0.000 HD
ENDBRANCH   2   3
BRANCH   2  12
ATOM     12  S   UNL     1       2.696   2.439  19.390  0.00  0.00    +0.000 S 
BRANCH  12  13
ATOM     13  C   UNL     1       3.922   3.214  18.348  0.00  0.00    +0.000 A 
ATOM     14  C   UNL     1       3.604   3.416  17.007  0.00  0.00    +0.000 A 
ATOM     15  C   UNL     1       4.531   4.036  16.169  0.00  0.00    +0.000 A 
ATOM     16  C   UNL     1       5.750   4.440  16.708  0.00  0.00    +0.000 A 
ATOM     17  C   UNL     1       5.991   4.218  18.054  0.00  0.00    +0.000 A 
ATOM     18  N   UNL     1       5.094   3.618  18.889  0.00  0.00    +0.000 NA
BRANCH  16  19
ATOM     19  N   UNL     1       6.755   5.090  15.875  0.00  0.00    +0.000 N 
ATOM     20  O   UNL     1       7.917   4.662  15.941  0.00  0.00    +0.000 OA
ATOM     21  O   UNL     1       6.388   6.023  15.151  0.00  0.00    +0.000 OA
ENDBRANCH  16  19
ENDBRANCH  12  13
ENDBRANCH   2  12
TORSDOF 4
ENDMDL
MODEL 8
REMARK VINA RESULT:      -6.3      1.619      2.084
REMARK  Name = 
REMARK  5 active torsions:
REMARK  status: ('A' for Active; 'I' for Inactive)
REMARK    1  A    between atoms: C_1  and  C_2
REMARK    2  A    between atoms: C_2  and  S_3
REMARK    3  A    between atoms: C_2  and  C_13
REMARK    4  A    between atoms: S_3  and  C_4
REMARK    5  A    between atoms: C_7  and  N_8
REMARK                            x       y       z     vdW  Elec       q    Type
REMARK                         _______ _______ _______ _____ _____    ______ ____
ROOT
ATOM      1  C   UNL     1       3.028   4.345  17.879  0.00  0.00    +0.000 C 
ATOM      2  C   UNL     1       3.455   4.822  19.268  0.00  0.00    +0.000 C 
ENDROOT
BRANCH   2   3
ATOM      3  C   UNL     1       2.518   5.968  19.715  0.00  0.00    +0.000 C 
ATOM      4  O   UNL     1       1.789   5.842  20.699  0.00  0.00    +0.000 OA
ATOM      5  N   UNL     1       2.608   7.107  18.939  0.00  0.00    +0.000 N 
ATOM      6  C   UNL     1       1.862   8.222  19.217  0.00  0.00    +0.000 A 
ATOM      7  N   UNL     1       1.180   8.510  20.295  0.00  0.00    +0.000 NA
ATOM      8  C   UNL     1       0.540   9.720  20.129  0.00  0.00    +0.000 A 
ATOM      9  C   UNL     1       0.753  10.341  18.916  0.00  0.00    +0.000 A 
ATOM     10  S   UNL     1       1.828   9.390  17.970  0.00  0.00    +0.000 S 
ATOM     11  H   UNL     1       3.082   7.076  18.048  0.00  0.00    +0.000 HD
ENDBRANCH   2   3
BRANCH   2  12
ATOM     12  S   UNL     1       5.193   5.447  19.275  0.00  0.00    +0.000 S 
BRANCH  12  13
ATOM     13  C   UNL     1       5.709   5.218  17.581  0.00  0.00    +0.000 A 
ATOM     14  C   UNL     1       5.103   6.005  16.603  0.00  0.00    +0.000 A 
ATOM     15  C   UNL     1       5.495   5.867  15.272  0.00  0.00    +0.000 A 
ATOM     16  C   UNL     1       6.490   4.943  14.964  0.00  0.00    +0.000 A 
ATOM     17  C   UNL     1       7.057   4.204  15.990  0.00  0.00    +0.000 A 
ATOM     18  N   UNL     1       6.689   4.332  17.298  0.00  0.00    +0.000 NA
BRANCH  16  19
ATOM     19  N   UNL     1       6.935   4.756  13.587  0.00  0.00    +0.000 N 
ATOM     20  O   UNL     1       7.829   5.506  13.168  0.00  0.00    +0.000 OA
ATOM     21  O   UNL     1       6.400   3.859  12.926  0.00  0.00    +0.000 OA
ENDBRANCH  16  19
ENDBRANCH  12  13
ENDBRANCH   2  12
TORSDOF 4
ENDMDL
MODEL 9
REMARK VINA RESULT:      -6.3      3.289      7.998
REMARK  Name = 
REMARK  5 active torsions:
REMARK  status: ('A' for Active; 'I' for Inactive)
REMARK    1  A    between atoms: C_1  and  C_2
REMARK    2  A    between atoms: C_2  and  S_3
REMARK    3  A    between atoms: C_2  and  C_13
REMARK    4  A    between atoms: S_3  and  C_4
REMARK    5  A    between atoms: C_7  and  N_8
REMARK                            x       y       z     vdW  Elec       q    Type
REMARK                         _______ _______ _______ _____ _____    ______ ____
ROOT
ATOM      1  C   UNL     1       6.958   5.844  19.215  0.00  0.00    +0.000 C 
ATOM      2  C   UNL     1       6.779   4.689  18.228  0.00  0.00    +0.000 C 
ENDROOT
BRANCH   2   3
ATOM      3  C   UNL     1       7.128   5.185  16.806  0.00  0.00    +0.000 C 
ATOM      4  O   UNL     1       7.673   6.275  16.633  0.00  0.00    +0.000 OA
ATOM      5  N   UNL     1       6.800   4.296  15.801  0.00  0.00    +0.000 N 
ATOM      6  C   UNL     1       7.066   4.574  14.486  0.00  0.00    +0.000 A 
ATOM      7  N   UNL     1       7.827   5.509  13.979  0.00  0.00    +0.000 NA
ATOM      8  C   UNL     1       7.772   5.455  12.602  0.00  0.00    +0.000 A 
ATOM      9  C   UNL     1       6.963   4.467  12.081  0.00  0.00    +0.000 A 
ATOM     10  S   UNL     1       6.284   3.548  13.365  0.00  0.00    +0.000 S 
ATOM     11  H   UNL     1       6.193   3.513  15.996  0.00  0.00    +0.000 HD
ENDBRANCH   2   3
BRANCH   2  12
ATOM     12  S   UNL     1       5.044   4.055  18.221  0.00  0.00    +0.000 S 
BRANCH  12  13
ATOM     13  C   UNL     1       4.071   5.547  18.342  0.00  0.00    +0.000 A 
ATOM     14  C   UNL     1       4.129   6.450  17.282  0.00  0.00    +0.000 A 
ATOM     15  C   UNL     1       3.366   7.617  17.334  0.00  0.00    +0.000 A 
ATOM     16  C   UNL     1       2.563   7.838  18.450  0.00  0.00    +0.000 A 
ATOM     17  C   UNL     1       2.546   6.889  19.460  0.00  0.00    +0.000 A 
ATOM     18  N   UNL     1       3.281   5.740  19.422  0.00  0.00    +0.000 NA
BRANCH  16  19
ATOM     19  N   UNL     1       1.748   9.043  18.557  0.00  0.00    +0.000 N 
ATOM     20  O   UNL     1       1.140   9.232  19.621  0.00  0.00    +0.000 OA
ATOM     21  O   UNL     1       1.719   9.806  17.583  0.00  0.00    +0.000 OA
ENDBRANCH  16  19
ENDBRANCH  12  13
ENDBRANCH   2  12
TORSDOF 4
ENDMDL
