MODEL 1
REMARK VINA RESULT:      -9.4      0.000      0.000
REMARK  Name = 
REMARK  7 active torsions:
REMARK  status: ('A' for Active; 'I' for Inactive)
REMARK    1  A    between atoms: C_1  and  C_2
REMARK    2  A    between atoms: C_2  and  C_4
REMARK    3  A    between atoms: C_7  and  C_8
REMARK    4  A    between atoms: N_10  and  C_11
REMARK    5  A    between atoms: C_11  and  C_12
REMARK    6  A    between atoms: C_12  and  N_13
REMARK    7  A    between atoms: C_15  and  C_16
REMARK                            x       y       z     vdW  Elec       q    Type
REMARK                         _______ _______ _______ _____ _____    ______ ____
ROOT
ATOM      1  N   UNL     1       0.389  10.158  21.401  0.00  0.00    +0.000 N 
ATOM      2  N   UNL     1       0.055  10.828  22.525  0.00  0.00    +0.000 NA
ATOM      3  C   UNL     1      -0.905  11.685  22.118  0.00  0.00    +0.000 A 
ATOM      4  C   UNL     1      -1.140  11.589  20.704  0.00  0.00    +0.000 A 
ATOM      5  C   UNL     1      -1.977  12.137  19.715  0.00  0.00    +0.000 A 
ATOM      6  N   UNL     1      -2.970  13.075  19.893  0.00  0.00    +0.000 N 
ATOM      7  N   UNL     1      -1.834  11.713  18.443  0.00  0.00    +0.000 NA
ATOM      8  C   UNL     1      -0.931  10.756  18.172  0.00  0.00    +0.000 A 
ATOM      9  N   UNL     1      -0.098  10.148  19.029  0.00  0.00    +0.000 NA
ATOM     10  C   UNL     1      -0.262  10.605  20.282  0.00  0.00    +0.000 A 
ATOM     11  H   UNL     1      -3.080  13.588  20.748  0.00  0.00    +0.000 HD
ATOM     12  H   UNL     1      -3.310  13.484  19.034  0.00  0.00    +0.000 HD
ENDROOT
BRANCH   3  13
ATOM     13  C   UNL     1      -1.659  12.494  23.077  0.00  0.00    +0.000 A 
ATOM     14  C   UNL     1      -1.236  13.784  23.421  0.00  0.00    +0.000 A 
ATOM     15  C   UNL     1      -2.128  14.680  24.014  0.00  0.00    +0.000 A 
ATOM     16  C   UNL     1      -3.409  14.256  24.362  0.00  0.00    +0.000 A 
ATOM     17  C   UNL     1      -3.781  12.927  24.165  0.00  0.00    +0.000 A 
ATOM     18  C   UNL     1      -2.909  12.046  23.522  0.00  0.00    +0.000 A 
ENDBRANCH   3  13
BRANCH   1  19
ATOM     19  C   UNL     1       1.399   9.118  21.418  0.00  0.00    +0.000 C 
BRANCH  19  20
ATOM     20  C   UNL     1       0.886   7.688  21.281  0.00  0.00    +0.000 C 
BRANCH  20  23
ATOM     21  C   UNL     1       2.972   5.939  18.956  0.00  0.00    +0.000 A 
ATOM     22  C   UNL     1       2.308   7.104  19.273  0.00  0.00    +0.000 A 
ATOM     23  N   UNL     1       1.723   6.828  20.476  0.00  0.00    +0.000 N 
ATOM     24  N   UNL     1       1.934   5.554  20.845  0.00  0.00    +0.000 NA
ATOM     25  N   UNL     1       2.725   5.005  19.933  0.00  0.00    +0.000 NA
BRANCH  21  29
ATOM     26  C   UNL     1       5.603   5.128  15.684  0.00  0.00    +0.000 A 
ATOM     27  C   UNL     1       4.804   4.120  16.233  0.00  0.00    +0.000 A 
ATOM     28  C   UNL     1       3.935   4.410  17.295  0.00  0.00    +0.000 A 
ATOM     29  C   UNL     1       3.854   5.703  17.829  0.00  0.00    +0.000 A 
ATOM     30  C   UNL     1       4.647   6.713  17.267  0.00  0.00    +0.000 A 
ATOM     31  C   UNL     1       5.509   6.426  16.199  0.00  0.00    +0.000 A 
BRANCH  26  33
ATOM     32  C   UNL     1       6.174   3.837  13.519  0.00  0.00    +0.000 C 
ATOM     33  C   UNL     1       6.553   4.859  14.567  0.00  0.00    +0.000 C 
ATOM     34  O   UNL     1       7.625   5.454  14.510  0.00  0.00    +0.000 OA
ENDBRANCH  26  33
ENDBRANCH  21  29
ENDBRANCH  20  23
ENDBRANCH  19  20
ENDBRANCH   1  19
TORSDOF 6
ENDMDL
MODEL 2
REMARK VINA RESULT:      -9.3      5.289      8.623
REMARK  Name = 
REMARK  7 active torsions:
REMARK  status: ('A' for Active; 'I' for Inactive)
REMARK    1  A    between atoms: C_1  and  C_2
REMARK    2  A    between atoms: C_2  and  C_4
REMARK    3  A    between atoms: C_7  and  C_8
REMARK    4  A    between atoms: N_10  and  C_11
REMARK    5  A    between atoms: C_11  and  C_12
REMARK    6  A    between atoms: C_12  and  N_13
REMARK    7  A    between atoms: C_15  and  C_16
REMARK                            x       y       z     vdW  Elec       q    Type
REMARK                         _______ _______ _______ _____ _____    ______ ____
ROOT
ATOM      1  N   UNL     1       5.192   5.182  18.250  0.00  0.00    +0.000 N 
ATOM      2  N   UNL     1       4.481   6.308  18.024  0.00  0.00    +0.000 NA
ATOM      3  C   UNL     1       3.356   6.132  18.749  0.00  0.00    +0.000 A 
ATOM      4  C   UNL     1       3.336   4.851  19.398  0.00  0.00    +0.000 A 
ATOM      5  C   UNL     1       2.528   4.104  20.275  0.00  0.00    +0.000 A 
ATOM      6  N   UNL     1       1.332   4.491  20.835  0.00  0.00    +0.000 N 
ATOM      7  N   UNL     1       2.942   2.874  20.641  0.00  0.00    +0.000 NA
ATOM      8  C   UNL     1       4.126   2.423  20.194  0.00  0.00    +0.000 A 
ATOM      9  N   UNL     1       4.986   3.050  19.378  0.00  0.00    +0.000 NA
ATOM     10  C   UNL     1       4.535   4.264  19.026  0.00  0.00    +0.000 A 
ATOM     11  H   UNL     1       0.833   5.308  20.531  0.00  0.00    +0.000 HD
ATOM     12  H   UNL     1       0.814   3.738  21.266  0.00  0.00    +0.000 HD
ENDROOT
BRANCH   3  13
ATOM     13  C   UNL     1       2.378   7.209  18.908  0.00  0.00    +0.000 A 
ATOM     14  C   UNL     1       1.910   7.575  20.176  0.00  0.00    +0.000 A 
ATOM     15  C   UNL     1       1.297   8.815  20.366  0.00  0.00    +0.000 A 
ATOM     16  C   UNL     1       1.052   9.644  19.272  0.00  0.00    +0.000 A 
ATOM     17  C   UNL     1       1.373   9.212  17.986  0.00  0.00    +0.000 A 
ATOM     18  C   UNL     1       2.037   7.998  17.802  0.00  0.00    +0.000 A 
ENDBRANCH   3  13
BRANCH   1  19
ATOM     19  C   UNL     1       6.497   4.982  17.649  0.00  0.00    +0.000 C 
BRANCH  19  20
ATOM     20  C   UNL     1       7.683   5.541  18.428  0.00  0.00    +0.000 C 
BRANCH  20  23
ATOM     21  C   UNL     1       8.479   9.031  18.367  0.00  0.00    +0.000 A 
ATOM     22  C   UNL     1       8.526   7.841  19.058  0.00  0.00    +0.000 A 
ATOM     23  N   UNL     1       7.925   6.950  18.216  0.00  0.00    +0.000 N 
ATOM     24  N   UNL     1       7.459   7.556  17.112  0.00  0.00    +0.000 NA
ATOM     25  N   UNL     1       7.818   8.830  17.179  0.00  0.00    +0.000 NA
BRANCH  21  29
ATOM     26  C   UNL     1      10.180  12.753  19.608  0.00  0.00    +0.000 A 
ATOM     27  C   UNL     1      10.186  11.641  20.455  0.00  0.00    +0.000 A 
ATOM     28  C   UNL     1       9.638  10.424  20.023  0.00  0.00    +0.000 A 
ATOM     29  C   UNL     1       9.071  10.299  18.748  0.00  0.00    +0.000 A 
ATOM     30  C   UNL     1       9.080  11.413  17.897  0.00  0.00    +0.000 A 
ATOM     31  C   UNL     1       9.635  12.627  18.325  0.00  0.00    +0.000 A 
BRANCH  26  33
ATOM     32  C   UNL     1       9.841  15.025  20.793  0.00  0.00    +0.000 C 
ATOM     33  C   UNL     1      10.735  14.070  20.033  0.00  0.00    +0.000 C 
ATOM     34  O   UNL     1      11.894  14.370  19.762  0.00  0.00    +0.000 OA
ENDBRANCH  26  33
ENDBRANCH  21  29
ENDBRANCH  20  23
ENDBRANCH  19  20
ENDBRANCH   1  19
TORSDOF 6
ENDMDL
MODEL 3
REMARK VINA RESULT:      -9.0      2.371      3.442
REMARK  Name = 
REMARK  7 active torsions:
REMARK  status: ('A' for Active; 'I' for Inactive)
REMARK    1  A    between atoms: C_1  and  C_2
REMARK    2  A    between atoms: C_2  and  C_4
REMARK    3  A    between atoms: C_7  and  C_8
REMARK    4  A    between atoms: N_10  and  C_11
REMARK    5  A    between atoms: C_11  and  C_12
REMARK    6  A    between atoms: C_12  and  N_13
REMARK    7  A    between atoms: C_15  and  C_16
REMARK                            x       y       z     vdW  Elec       q    Type
REMARK                         _______ _______ _______ _____ _____    ______ ____
ROOT
ATOM      1  N   UNL     1       0.519  10.333  20.623  0.00  0.00    +0.000 N 
ATOM      2  N   UNL     1      -0.589  10.008  19.922  0.00  0.00    +0.000 NA
ATOM      3  C   UNL     1      -0.962  11.172  19.349  0.00  0.00    +0.000 A 
ATOM      4  C   UNL     1      -0.106  12.257  19.740  0.00  0.00    +0.000 A 
ATOM      5  C   UNL     1       0.070  13.630  19.490  0.00  0.00    +0.000 A 
ATOM      6  N   UNL     1      -0.674  14.423  18.645  0.00  0.00    +0.000 N 
ATOM      7  N   UNL     1       1.075  14.275  20.117  0.00  0.00    +0.000 NA
ATOM      8  C   UNL     1       1.897  13.579  20.921  0.00  0.00    +0.000 A 
ATOM      9  N   UNL     1       1.841  12.272  21.216  0.00  0.00    +0.000 NA
ATOM     10  C   UNL     1       0.822  11.668  20.584  0.00  0.00    +0.000 A 
ATOM     11  H   UNL     1      -1.539  14.115  18.240  0.00  0.00    +0.000 HD
ATOM     12  H   UNL     1      -0.519  15.414  18.765  0.00  0.00    +0.000 HD
ENDROOT
BRANCH   3  13
ATOM     13  C   UNL     1      -2.041  11.222  18.361  0.00  0.00    +0.000 A 
ATOM     14  C   UNL     1      -1.954  10.505  17.162  0.00  0.00    +0.000 A 
ATOM     15  C   UNL     1      -3.105  10.243  16.416  0.00  0.00    +0.000 A 
ATOM     16  C   UNL     1      -4.326  10.788  16.808  0.00  0.00    +0.000 A 
ATOM     17  C   UNL     1      -4.387  11.635  17.914  0.00  0.00    +0.000 A 
ATOM     18  C   UNL     1      -3.248  11.851  18.692  0.00  0.00    +0.000 A 
ENDBRANCH   3  13
BRANCH   1  19
ATOM     19  C   UNL     1       1.244   9.336  21.387  0.00  0.00    +0.000 C 
BRANCH  19  20
ATOM     20  C   UNL     1       0.773   7.895  21.220  0.00  0.00    +0.000 C 
BRANCH  20  23
ATOM     21  C   UNL     1       3.009   6.140  19.045  0.00  0.00    +0.000 A 
ATOM     22  C   UNL     1       2.225   7.253  19.252  0.00  0.00    +0.000 A 
ATOM     23  N   UNL     1       1.689   7.049  20.491  0.00  0.00    +0.000 N 
ATOM     24  N   UNL     1       2.045   5.853  20.989  0.00  0.00    +0.000 NA
ATOM     25  N   UNL     1       2.880   5.297  20.122  0.00  0.00    +0.000 NA
BRANCH  21  29
ATOM     26  C   UNL     1       5.642   5.252  15.794  0.00  0.00    +0.000 A 
ATOM     27  C   UNL     1       4.696   4.318  16.231  0.00  0.00    +0.000 A 
ATOM     28  C   UNL     1       3.830   4.636  17.287  0.00  0.00    +0.000 A 
ATOM     29  C   UNL     1       3.898   5.880  17.928  0.00  0.00    +0.000 A 
ATOM     30  C   UNL     1       4.839   6.817  17.478  0.00  0.00    +0.000 A 
ATOM     31  C   UNL     1       5.698   6.504  16.416  0.00  0.00    +0.000 A 
BRANCH  26  33
ATOM     32  C   UNL     1       6.201   3.917  13.652  0.00  0.00    +0.000 C 
ATOM     33  C   UNL     1       6.593   4.949  14.687  0.00  0.00    +0.000 C 
ATOM     34  O   UNL     1       7.676   5.524  14.627  0.00  0.00    +0.000 OA
ENDBRANCH  26  33
ENDBRANCH  21  29
ENDBRANCH  20  23
ENDBRANCH  19  20
ENDBRANCH   1  19
TORSDOF 6
ENDMDL
MODEL 4
REMARK VINA RESULT:      -8.9      3.507     11.014
REMARK  Name = 
REMARK  7 active torsions:
REMARK  status: ('A' for Active; 'I' for Inactive)
REMARK    1  A    between atoms: C_1  and  C_2
REMARK    2  A    between atoms: C_2  and  C_4
REMARK    3  A    between atoms: C_7  and  C_8
REMARK    4  A    between atoms: N_10  and  C_11
REMARK    5  A    between atoms: C_11  and  C_12
REMARK    6  A    between atoms: C_12  and  N_13
REMARK    7  A    between atoms: C_15  and  C_16
REMARK                            x       y       z     vdW  Elec       q    Type
REMARK                         _______ _______ _______ _____ _____    ______ ____
ROOT
ATOM      1  N   UNL     1       2.761   6.112  19.288  0.00  0.00    +0.000 N 
ATOM      2  N   UNL     1       3.846   6.178  18.486  0.00  0.00    +0.000 NA
ATOM      3  C   UNL     1       4.132   4.886  18.221  0.00  0.00    +0.000 A 
ATOM      4  C   UNL     1       3.245   3.992  18.911  0.00  0.00    +0.000 A 
ATOM      5  C   UNL     1       2.989   2.614  19.032  0.00  0.00    +0.000 A 
ATOM      6  N   UNL     1       3.650   1.587  18.394  0.00  0.00    +0.000 N 
ATOM      7  N   UNL     1       1.987   2.213  19.839  0.00  0.00    +0.000 NA
ATOM      8  C   UNL     1       1.242   3.140  20.465  0.00  0.00    +0.000 A 
ATOM      9  N   UNL     1       1.376   4.473  20.409  0.00  0.00    +0.000 NA
ATOM     10  C   UNL     1       2.391   4.832  19.606  0.00  0.00    +0.000 A 
ATOM     11  H   UNL     1       4.507   1.728  17.892  0.00  0.00    +0.000 HD
ATOM     12  H   UNL     1       3.452   0.671  18.772  0.00  0.00    +0.000 HD
ENDROOT
BRANCH   3  13
ATOM     13  C   UNL     1       5.156   4.519  17.242  0.00  0.00    +0.000 A 
ATOM     14  C   UNL     1       4.811   4.202  15.923  0.00  0.00    +0.000 A 
ATOM     15  C   UNL     1       5.780   4.231  14.918  0.00  0.00    +0.000 A 
ATOM     16  C   UNL     1       7.113   4.471  15.245  0.00  0.00    +0.000 A 
ATOM     17  C   UNL     1       7.485   4.630  16.579  0.00  0.00    +0.000 A 
ATOM     18  C   UNL     1       6.509   4.656  17.577  0.00  0.00    +0.000 A 
ENDBRANCH   3  13
BRANCH   1  19
ATOM     19  C   UNL     1       2.125   7.314  19.793  0.00  0.00    +0.000 C 
BRANCH  19  20
ATOM     20  C   UNL     1       2.046   8.486  18.821  0.00  0.00    +0.000 C 
BRANCH  20  23
ATOM     21  C   UNL     1      -0.442  10.715  20.108  0.00  0.00    +0.000 A 
ATOM     22  C   UNL     1       0.413   9.664  20.352  0.00  0.00    +0.000 A 
ATOM     23  N   UNL     1       1.045   9.472  19.156  0.00  0.00    +0.000 N 
ATOM     24  N   UNL     1       0.558  10.290  18.208  0.00  0.00    +0.000 NA
ATOM     25  N   UNL     1      -0.336  11.079  18.787  0.00  0.00    +0.000 NA
BRANCH  21  29
ATOM     26  C   UNL     1      -2.940  12.653  22.988  0.00  0.00    +0.000 A 
ATOM     27  C   UNL     1      -1.990  11.704  23.380  0.00  0.00    +0.000 A 
ATOM     28  C   UNL     1      -1.169  11.092  22.422  0.00  0.00    +0.000 A 
ATOM     29  C   UNL     1      -1.285  11.409  21.062  0.00  0.00    +0.000 A 
ATOM     30  C   UNL     1      -2.229  12.370  20.675  0.00  0.00    +0.000 A 
ATOM     31  C   UNL     1      -3.044  12.989  21.633  0.00  0.00    +0.000 A 
BRANCH  26  33
ATOM     32  C   UNL     1      -4.660  12.448  24.906  0.00  0.00    +0.000 C 
ATOM     33  C   UNL     1      -3.845  13.314  23.971  0.00  0.00    +0.000 C 
ATOM     34  O   UNL     1      -3.929  14.538  24.009  0.00  0.00    +0.000 OA
ENDBRANCH  26  33
ENDBRANCH  21  29
ENDBRANCH  20  23
ENDBRANCH  19  20
ENDBRANCH   1  19
TORSDOF 6
ENDMDL
MODEL 5
REMARK VINA RESULT:      -8.9      1.519      3.713
REMARK  Name = 
REMARK  7 active torsions:
REMARK  status: ('A' for Active; 'I' for Inactive)
REMARK    1  A    between atoms: C_1  and  C_2
REMARK    2  A    between atoms: C_2  and  C_4
REMARK    3  A    between atoms: C_7  and  C_8
REMARK    4  A    between atoms: N_10  and  C_11
REMARK    5  A    between atoms: C_11  and  C_12
REMARK    6  A    between atoms: C_12  and  N_13
REMARK    7  A    between atoms: C_15  and  C_16
REMARK                            x       y       z     vdW  Elec       q    Type
REMARK                         _______ _______ _______ _____ _____    ______ ____
ROOT
ATOM      1  N   UNL     1       0.009  10.434  20.423  0.00  0.00    +0.000 N 
ATOM      2  N   UNL     1      -0.712  10.078  19.339  0.00  0.00    +0.000 NA
ATOM      3  C   UNL     1      -1.631  11.061  19.224  0.00  0.00    +0.000 A 
ATOM      4  C   UNL     1      -1.518  12.021  20.285  0.00  0.00    +0.000 A 
ATOM      5  C   UNL     1      -2.104  13.229  20.708  0.00  0.00    +0.000 A 
ATOM      6  N   UNL     1      -3.121  13.920  20.088  0.00  0.00    +0.000 N 
ATOM      7  N   UNL     1      -1.639  13.811  21.831  0.00  0.00    +0.000 NA
ATOM      8  C   UNL     1      -0.609  13.246  22.482  0.00  0.00    +0.000 A 
ATOM      9  N   UNL     1       0.040  12.117  22.164  0.00  0.00    +0.000 NA
ATOM     10  C   UNL     1      -0.459  11.560  21.049  0.00  0.00    +0.000 A 
ATOM     11  H   UNL     1      -3.662  13.528  19.339  0.00  0.00    +0.000 HD
ATOM     12  H   UNL     1      -3.534  14.646  20.656  0.00  0.00    +0.000 HD
ENDROOT
BRANCH   3  13
ATOM     13  C   UNL     1      -2.519  11.140  18.063  0.00  0.00    +0.000 A 
ATOM     14  C   UNL     1      -2.003  11.167  16.762  0.00  0.00    +0.000 A 
ATOM     15  C   UNL     1      -2.824  10.858  15.675  0.00  0.00    +0.000 A 
ATOM     16  C   UNL     1      -4.183  10.627  15.875  0.00  0.00    +0.000 A 
ATOM     17  C   UNL     1      -4.731  10.756  17.151  0.00  0.00    +0.000 A 
ATOM     18  C   UNL     1      -3.901  11.010  18.244  0.00  0.00    +0.000 A 
ENDBRANCH   3  13
BRANCH   1  19
ATOM     19  C   UNL     1       1.124   9.628  20.883  0.00  0.00    +0.000 C 
BRANCH  19  20
ATOM     20  C   UNL     1       0.804   8.174  21.211  0.00  0.00    +0.000 C 
BRANCH  20  23
ATOM     21  C   UNL     1       2.757   6.173  18.975  0.00  0.00    +0.000 A 
ATOM     22  C   UNL     1       2.290   7.425  19.306  0.00  0.00    +0.000 A 
ATOM     23  N   UNL     1       1.546   7.210  20.431  0.00  0.00    +0.000 N 
ATOM     24  N   UNL     1       1.481   5.903  20.733  0.00  0.00    +0.000 NA
ATOM     25  N   UNL     1       2.245   5.257  19.863  0.00  0.00    +0.000 NA
BRANCH  21  29
ATOM     26  C   UNL     1       5.458   5.243  15.792  0.00  0.00    +0.000 A 
ATOM     27  C   UNL     1       5.110   6.567  16.078  0.00  0.00    +0.000 A 
ATOM     28  C   UNL     1       4.236   6.852  17.137  0.00  0.00    +0.000 A 
ATOM     29  C   UNL     1       3.690   5.826  17.920  0.00  0.00    +0.000 A 
ATOM     30  C   UNL     1       4.052   4.501  17.638  0.00  0.00    +0.000 A 
ATOM     31  C   UNL     1       4.933   4.216  16.586  0.00  0.00    +0.000 A 
BRANCH  26  33
ATOM     32  C   UNL     1       5.845   4.013  13.552  0.00  0.00    +0.000 C 
ATOM     33  C   UNL     1       6.368   4.894  14.665  0.00  0.00    +0.000 C 
ATOM     34  O   UNL     1       7.523   5.311  14.650  0.00  0.00    +0.000 OA
ENDBRANCH  26  33
ENDBRANCH  21  29
ENDBRANCH  20  23
ENDBRANCH  19  20
ENDBRANCH   1  19
TORSDOF 6
ENDMDL
MODEL 6
REMARK VINA RESULT:      -8.9      3.763     11.026
REMARK  Name = 
REMARK  7 active torsions:
REMARK  status: ('A' for Active; 'I' for Inactive)
REMARK    1  A    between atoms: C_1  and  C_2
REMARK    2  A    between atoms: C_2  and  C_4
REMARK    3  A    between atoms: C_7  and  C_8
REMARK    4  A    between atoms: N_10  and  C_11
REMARK    5  A    between atoms: C_11  and  C_12
REMARK    6  A    between atoms: C_12  and  N_13
REMARK    7  A    between atoms: C_15  and  C_16
REMARK                            x       y       z     vdW  Elec       q    Type
REMARK                         _______ _______ _______ _____ _____    ______ ____
ROOT
ATOM      1  N   UNL     1       2.435   5.918  20.010  0.00  0.00    +0.000 N 
ATOM      2  N   UNL     1       3.569   6.310  19.391  0.00  0.00    +0.000 NA
ATOM      3  C   UNL     1       3.995   5.197  18.757  0.00  0.00    +0.000 A 
ATOM      4  C   UNL     1       3.143   4.072  19.027  0.00  0.00    +0.000 A 
ATOM      5  C   UNL     1       3.008   2.717  18.673  0.00  0.00    +0.000 A 
ATOM      6  N   UNL     1       3.810   2.000  17.813  0.00  0.00    +0.000 N 
ATOM      7  N   UNL     1       1.987   2.013  19.200  0.00  0.00    +0.000 NA
ATOM      8  C   UNL     1       1.112   2.635  20.007  0.00  0.00    +0.000 A 
ATOM      9  N   UNL     1       1.125   3.918  20.396  0.00  0.00    +0.000 NA
ATOM     10  C   UNL     1       2.162   4.584  19.861  0.00  0.00    +0.000 A 
ATOM     11  H   UNL     1       4.688   2.350  17.476  0.00  0.00    +0.000 HD
ATOM     12  H   UNL     1       3.669   1.001  17.855  0.00  0.00    +0.000 HD
ENDROOT
BRANCH   3  13
ATOM     13  C   UNL     1       5.122   5.236  17.826  0.00  0.00    +0.000 A 
ATOM     14  C   UNL     1       6.409   4.867  18.236  0.00  0.00    +0.000 A 
ATOM     15  C   UNL     1       7.381   4.537  17.289  0.00  0.00    +0.000 A 
ATOM     16  C   UNL     1       7.102   4.679  15.931  0.00  0.00    +0.000 A 
ATOM     17  C   UNL     1       5.875   5.198  15.522  0.00  0.00    +0.000 A 
ATOM     18  C   UNL     1       4.884   5.475  16.466  0.00  0.00    +0.000 A 
ENDBRANCH   3  13
BRANCH   1  19
ATOM     19  C   UNL     1       1.652   6.845  20.804  0.00  0.00    +0.000 C 
BRANCH  19  20
ATOM     20  C   UNL     1       1.634   8.290  20.317  0.00  0.00    +0.000 C 
BRANCH  20  23
ATOM     21  C   UNL     1      -0.491  10.667  21.944  0.00  0.00    +0.000 A 
ATOM     22  C   UNL     1      -0.118  10.057  20.767  0.00  0.00    +0.000 A 
ATOM     23  N   UNL     1       0.866   9.189  21.146  0.00  0.00    +0.000 N 
ATOM     24  N   UNL     1       1.148   9.309  22.454  0.00  0.00    +0.000 NA
ATOM     25  N   UNL     1       0.301  10.193  22.962  0.00  0.00    +0.000 NA
BRANCH  21  29
ATOM     26  C   UNL     1      -3.630  13.523  22.470  0.00  0.00    +0.000 A 
ATOM     27  C   UNL     1      -3.000  13.365  21.231  0.00  0.00    +0.000 A 
ATOM     28  C   UNL     1      -1.985  12.411  21.074  0.00  0.00    +0.000 A 
ATOM     29  C   UNL     1      -1.576  11.608  22.148  0.00  0.00    +0.000 A 
ATOM     30  C   UNL     1      -2.220  11.760  23.384  0.00  0.00    +0.000 A 
ATOM     31  C   UNL     1      -3.242  12.707  23.538  0.00  0.00    +0.000 A 
BRANCH  26  33
ATOM     32  C   UNL     1      -5.398  15.126  21.478  0.00  0.00    +0.000 C 
ATOM     33  C   UNL     1      -4.702  14.537  22.684  0.00  0.00    +0.000 C 
ATOM     34  O   UNL     1      -5.002  14.889  23.821  0.00  0.00    +0.000 OA
ENDBRANCH  26  33
ENDBRANCH  21  29
ENDBRANCH  20  23
ENDBRANCH  19  20
ENDBRANCH   1  19
TORSDOF 6
ENDMDL
MODEL 7
REMARK VINA RESULT:      -8.8      3.902     10.743
REMARK  Name = 
REMARK  7 active torsions:
REMARK  status: ('A' for Active; 'I' for Inactive)
REMARK    1  A    between atoms: C_1  and  C_2
REMARK    2  A    between atoms: C_2  and  C_4
REMARK    3  A    between atoms: C_7  and  C_8
REMARK    4  A    between atoms: N_10  and  C_11
REMARK    5  A    between atoms: C_11  and  C_12
REMARK    6  A    between atoms: C_12  and  N_13
REMARK    7  A    between atoms: C_15  and  C_16
REMARK                            x       y       z     vdW  Elec       q    Type
REMARK                         _______ _______ _______ _____ _____    ______ ____
ROOT
ATOM      1  N   UNL     1       2.781   6.452  19.347  0.00  0.00    +0.000 N 
ATOM      2  N   UNL     1       3.762   6.474  18.419  0.00  0.00    +0.000 NA
ATOM      3  C   UNL     1       4.173   5.190  18.352  0.00  0.00    +0.000 A 
ATOM      4  C   UNL     1       3.476   4.357  19.292  0.00  0.00    +0.000 A 
ATOM      5  C   UNL     1       3.403   3.008  19.684  0.00  0.00    +0.000 A 
ATOM      6  N   UNL     1       4.114   1.951  19.161  0.00  0.00    +0.000 N 
ATOM      7  N   UNL     1       2.545   2.669  20.667  0.00  0.00    +0.000 NA
ATOM      8  C   UNL     1       1.762   3.618  21.207  0.00  0.00    +0.000 A 
ATOM      9  N   UNL     1       1.728   4.923  20.902  0.00  0.00    +0.000 NA
ATOM     10  C   UNL     1       2.603   5.224  19.929  0.00  0.00    +0.000 A 
ATOM     11  H   UNL     1       4.892   2.080  18.540  0.00  0.00    +0.000 HD
ATOM     12  H   UNL     1       4.069   1.108  19.715  0.00  0.00    +0.000 HD
ENDROOT
BRANCH   3  13
ATOM     13  C   UNL     1       5.128   4.750  17.334  0.00  0.00    +0.000 A 
ATOM     14  C   UNL     1       4.725   4.543  16.010  0.00  0.00    +0.000 A 
ATOM     15  C   UNL     1       5.673   4.504  14.985  0.00  0.00    +0.000 A 
ATOM     16  C   UNL     1       7.031   4.561  15.294  0.00  0.00    +0.000 A 
ATOM     17  C   UNL     1       7.441   4.606  16.625  0.00  0.00    +0.000 A 
ATOM     18  C   UNL     1       6.493   4.702  17.645  0.00  0.00    +0.000 A 
ENDBRANCH   3  13
BRANCH   1  19
ATOM     19  C   UNL     1       2.060   7.657  19.709  0.00  0.00    +0.000 C 
BRANCH  19  20
ATOM     20  C   UNL     1       1.948   8.719  18.619  0.00  0.00    +0.000 C 
BRANCH  20  23
ATOM     21  C   UNL     1      -0.997  10.752  18.698  0.00  0.00    +0.000 A 
ATOM     22  C   UNL     1      -0.352   9.662  18.157  0.00  0.00    +0.000 A 
ATOM     23  N   UNL     1       0.853   9.644  18.799  0.00  0.00    +0.000 N 
ATOM     24  N   UNL     1       0.987  10.697  19.621  0.00  0.00    +0.000 NA
ATOM     25  N   UNL     1      -0.155  11.370  19.591  0.00  0.00    +0.000 NA
BRANCH  21  29
ATOM     26  C   UNL     1      -5.044  12.004  18.112  0.00  0.00    +0.000 A 
ATOM     27  C   UNL     1      -4.341  12.358  19.268  0.00  0.00    +0.000 A 
ATOM     28  C   UNL     1      -3.009  11.952  19.433  0.00  0.00    +0.000 A 
ATOM     29  C   UNL     1      -2.361  11.183  18.458  0.00  0.00    +0.000 A 
ATOM     30  C   UNL     1      -3.065  10.842  17.294  0.00  0.00    +0.000 A 
ATOM     31  C   UNL     1      -4.394  11.255  17.124  0.00  0.00    +0.000 A 
BRANCH  26  33
ATOM     32  C   UNL     1      -7.419  12.329  19.076  0.00  0.00    +0.000 C 
ATOM     33  C   UNL     1      -6.466  12.399  17.904  0.00  0.00    +0.000 C 
ATOM     34  O   UNL     1      -6.851  12.765  16.797  0.00  0.00    +0.000 OA
ENDBRANCH  26  33
ENDBRANCH  21  29
ENDBRANCH  20  23
ENDBRANCH  19  20
ENDBRANCH   1  19
TORSDOF 6
ENDMDL
MODEL 8
REMARK VINA RESULT:      -8.8      5.219      8.393
REMARK  Name = 
REMARK  7 active torsions:
REMARK  status: ('A' for Active; 'I' for Inactive)
REMARK    1  A    between atoms: C_1  and  C_2
REMARK    2  A    between atoms: C_2  and  C_4
REMARK    3  A    between atoms: C_7  and  C_8
REMARK    4  A    between atoms: N_10  and  C_11
REMARK    5  A    between atoms: C_11  and  C_12
REMARK    6  A    between atoms: C_12  and  N_13
REMARK    7  A    between atoms: C_15  and  C_16
REMARK                            x       y       z     vdW  Elec       q    Type
REMARK                         _______ _______ _______ _____ _____    ______ ____
ROOT
ATOM      1  N   UNL     1       4.949   5.267  18.016  0.00  0.00    +0.000 N 
ATOM      2  N   UNL     1       4.431   6.510  17.916  0.00  0.00    +0.000 NA
ATOM      3  C   UNL     1       3.274   6.437  18.605  0.00  0.00    +0.000 A 
ATOM      4  C   UNL     1       3.033   5.111  19.102  0.00  0.00    +0.000 A 
ATOM      5  C   UNL     1       2.094   4.409  19.879  0.00  0.00    +0.000 A 
ATOM      6  N   UNL     1       0.959   4.918  20.471  0.00  0.00    +0.000 N 
ATOM      7  N   UNL     1       2.297   3.095  20.104  0.00  0.00    +0.000 NA
ATOM      8  C   UNL     1       3.406   2.513  19.618  0.00  0.00    +0.000 A 
ATOM      9  N   UNL     1       4.377   3.082  18.888  0.00  0.00    +0.000 NA
ATOM     10  C   UNL     1       4.133   4.385  18.675  0.00  0.00    +0.000 A 
ATOM     11  H   UNL     1       0.604   5.832  20.259  0.00  0.00    +0.000 HD
ATOM     12  H   UNL     1       0.317   4.214  20.807  0.00  0.00    +0.000 HD
ENDROOT
BRANCH   3  13
ATOM     13  C   UNL     1       2.475   7.632  18.880  0.00  0.00    +0.000 A 
ATOM     14  C   UNL     1       2.013   8.445  17.838  0.00  0.00    +0.000 A 
ATOM     15  C   UNL     1       0.959   9.335  18.056  0.00  0.00    +0.000 A 
ATOM     16  C   UNL     1       0.438   9.493  19.339  0.00  0.00    +0.000 A 
ATOM     17  C   UNL     1       1.002   8.801  20.410  0.00  0.00    +0.000 A 
ATOM     18  C   UNL     1       2.018   7.870  20.182  0.00  0.00    +0.000 A 
ENDBRANCH   3  13
BRANCH   1  19
ATOM     19  C   UNL     1       6.221   4.930  17.407  0.00  0.00    +0.000 C 
BRANCH  19  20
ATOM     20  C   UNL     1       7.464   5.362  18.176  0.00  0.00    +0.000 C 
BRANCH  20  23
ATOM     21  C   UNL     1       8.448   8.802  18.299  0.00  0.00    +0.000 A 
ATOM     22  C   UNL     1       8.371   7.592  18.951  0.00  0.00    +0.000 A 
ATOM     23  N   UNL     1       7.799   6.760  18.032  0.00  0.00    +0.000 N 
ATOM     24  N   UNL     1       7.462   7.423  16.913  0.00  0.00    +0.000 NA
ATOM     25  N   UNL     1       7.882   8.672  17.053  0.00  0.00    +0.000 NA
BRANCH  21  29
ATOM     26  C   UNL     1      10.208  12.405  19.785  0.00  0.00    +0.000 A 
ATOM     27  C   UNL     1       9.792  11.393  20.657  0.00  0.00    +0.000 A 
ATOM     28  C   UNL     1       9.233  10.212  20.149  0.00  0.00    +0.000 A 
ATOM     29  C   UNL     1       9.072  10.024  18.770  0.00  0.00    +0.000 A 
ATOM     30  C   UNL     1       9.502  11.035  17.899  0.00  0.00    +0.000 A 
ATOM     31  C   UNL     1      10.070  12.212  18.406  0.00  0.00    +0.000 A 
BRANCH  26  33
ATOM     32  C   UNL     1      11.943  14.302  19.526  0.00  0.00    +0.000 C 
ATOM     33  C   UNL     1      10.790  13.684  20.284  0.00  0.00    +0.000 C 
ATOM     34  O   UNL     1      10.341  14.214  21.296  0.00  0.00    +0.000 OA
ENDBRANCH  26  33
ENDBRANCH  21  29
ENDBRANCH  20  23
ENDBRANCH  19  20
ENDBRANCH   1  19
TORSDOF 6
ENDMDL
MODEL 9
REMARK VINA RESULT:      -8.8      0.803      1.165
REMARK  Name = 
REMARK  7 active torsions:
REMARK  status: ('A' for Active; 'I' for Inactive)
REMARK    1  A    between atoms: C_1  and  C_2
REMARK    2  A    between atoms: C_2  and  C_4
REMARK    3  A    between atoms: C_7  and  C_8
REMARK    4  A    between atoms: N_10  and  C_11
REMARK    5  A    between atoms: C_11  and  C_12
REMARK    6  A    between atoms: C_12  and  N_13
REMARK    7  A    between atoms: C_15  and  C_16
REMARK                            x       y       z     vdW  Elec       q    Type
REMARK                         _______ _______ _______ _____ _____    ______ ____
ROOT
ATOM      1  N   UNL     1       0.683  10.301  21.635  0.00  0.00    +0.000 N 
ATOM      2  N   UNL     1       0.021  10.754  22.722  0.00  0.00    +0.000 NA
ATOM      3  C   UNL     1      -0.613  11.860  22.278  0.00  0.00    +0.000 A 
ATOM      4  C   UNL     1      -0.301  12.137  20.904  0.00  0.00    +0.000 A 
ATOM      5  C   UNL     1      -0.635  13.054  19.890  0.00  0.00    +0.000 A 
ATOM      6  N   UNL     1      -1.512  14.112  19.983  0.00  0.00    +0.000 N 
ATOM      7  N   UNL     1      -0.065  12.908  18.677  0.00  0.00    +0.000 NA
ATOM      8  C   UNL     1       0.764  11.873  18.465  0.00  0.00    +0.000 A 
ATOM      9  N   UNL     1       1.137  10.929  19.341  0.00  0.00    +0.000 NA
ATOM     10  C   UNL     1       0.559  11.114  20.539  0.00  0.00    +0.000 A 
ATOM     11  H   UNL     1      -1.883  14.429  20.860  0.00  0.00    +0.000 HD
ATOM     12  H   UNL     1      -1.454  14.765  19.215  0.00  0.00    +0.000 HD
ENDROOT
BRANCH   3  13
ATOM     13  C   UNL     1      -1.582  12.568  23.115  0.00  0.00    +0.000 A 
ATOM     14  C   UNL     1      -1.323  13.864  23.578  0.00  0.00    +0.000 A 
ATOM     15  C   UNL     1      -2.370  14.669  24.033  0.00  0.00    +0.000 A 
ATOM     16  C   UNL     1      -3.658  14.146  24.128  0.00  0.00    +0.000 A 
ATOM     17  C   UNL     1      -3.890  12.806  23.818  0.00  0.00    +0.000 A 
ATOM     18  C   UNL     1      -2.855  12.018  23.310  0.00  0.00    +0.000 A 
ENDBRANCH   3  13
BRANCH   1  19
ATOM     19  C   UNL     1       1.492   9.099  21.694  0.00  0.00    +0.000 C 
BRANCH  19  20
ATOM     20  C   UNL     1       0.829   7.824  21.183  0.00  0.00    +0.000 C 
BRANCH  20  23
ATOM     21  C   UNL     1       3.040   5.958  19.076  0.00  0.00    +0.000 A 
ATOM     22  C   UNL     1       2.324   7.117  19.270  0.00  0.00    +0.000 A 
ATOM     23  N   UNL     1       1.719   6.930  20.480  0.00  0.00    +0.000 N 
ATOM     24  N   UNL     1       1.971   5.705  20.969  0.00  0.00    +0.000 NA
ATOM     25  N   UNL     1       2.806   5.108  20.130  0.00  0.00    +0.000 NA
BRANCH  21  29
ATOM     26  C   UNL     1       5.744   5.187  15.854  0.00  0.00    +0.000 A 
ATOM     27  C   UNL     1       5.797   6.390  16.567  0.00  0.00    +0.000 A 
ATOM     28  C   UNL     1       4.913   6.616  17.632  0.00  0.00    +0.000 A 
ATOM     29  C   UNL     1       3.960   5.655  17.996  0.00  0.00    +0.000 A 
ATOM     30  C   UNL     1       3.920   4.446  17.287  0.00  0.00    +0.000 A 
ATOM     31  C   UNL     1       4.810   4.216  16.229  0.00  0.00    +0.000 A 
BRANCH  26  33
ATOM     32  C   UNL     1       6.260   3.850  13.703  0.00  0.00    +0.000 C 
ATOM     33  C   UNL     1       6.653   4.914  14.704  0.00  0.00    +0.000 C 
ATOM     34  O   UNL     1       7.703   5.539  14.583  0.00  0.00    +0.000 OA
ENDBRANCH  26  33
ENDBRANCH  21  29
ENDBRANCH  20  23
ENDBRANCH  19  20
ENDBRANCH   1  19
TORSDOF 6
ENDMDL
