MODEL 1
REMARK VINA RESULT:      -6.4      0.000      0.000
REMARK  Name = 
REMARK  4 active torsions:
REMARK  status: ('A' for Active; 'I' for Inactive)
REMARK    1  A    between atoms: C_1  and  O_2
REMARK    2  A    between atoms: O_2  and  C_3
REMARK    3  A    between atoms: C_3  and  C_4
REMARK    4  A    between atoms: C_7  and  C_9
REMARK                            x       y       z     vdW  Elec       q    Type
REMARK                         _______ _______ _______ _____ _____    ______ ____
ROOT
ATOM      1  C   UNL     1       2.439   6.500  20.052  0.00  0.00    +0.000 C 
ATOM      2  C   UNL     1       2.289   6.639  18.528  0.00  0.00    +0.000 C 
ATOM      3  N   UNL     1       3.308   5.884  17.790  0.00  0.00    +0.000 N 
ATOM      4  C   UNL     1       4.367   6.578  17.154  0.00  0.00    +0.000 C 
ATOM      5  O   UNL     1       4.427   7.801  17.279  0.00  0.00    +0.000 OA
ATOM      6  C   UNL     1       3.180   4.439  17.692  0.00  0.00    +0.000 C 
ATOM      7  C   UNL     1       2.092   3.770  18.451  0.00  0.00    +0.000 A 
ATOM      8  N   UNL     1       1.419   2.733  17.991  0.00  0.00    +0.000 NA
ATOM      9  C   UNL     1       0.617   2.323  19.017  0.00  0.00    +0.000 A 
ATOM     10  C   UNL     1       0.777   3.142  20.106  0.00  0.00    +0.000 A 
ATOM     11  N   UNL     1       1.715   4.068  19.730  0.00  0.00    +0.000 N 
ATOM     12  C   UNL     1       2.317   5.059  20.596  0.00  0.00    +0.000 C 
ENDROOT
BRANCH   4  13
ATOM     13  C   UNL     1       5.399   5.830  16.404  0.00  0.00    +0.000 A 
ATOM     14  C   UNL     1       5.531   5.456  15.073  0.00  0.00    +0.000 A 
ATOM     15  C   UNL     1       6.656   4.617  14.822  0.00  0.00    +0.000 A 
ATOM     16  C   UNL     1       7.438   4.469  15.938  0.00  0.00    +0.000 A 
ATOM     17  S   UNL     1       6.793   5.301  17.284  0.00  0.00    +0.000 S 
ENDBRANCH   4  13
BRANCH   1  18
ATOM     18  C   UNL     1       1.464   7.449  20.768  0.00  0.00    +0.000 C 
BRANCH  18  20
ATOM     19  C   UNL     1       0.366   9.534  20.518  0.00  0.00    +0.000 C 
ATOM     20  O   UNL     1       1.395   8.677  20.039  0.00  0.00    +0.000 OA
ENDBRANCH  18  20
ENDBRANCH   1  18
TORSDOF 3
ENDMDL
MODEL 2
REMARK VINA RESULT:      -6.0      2.260      5.489
REMARK  Name = 
REMARK  4 active torsions:
REMARK  status: ('A' for Active; 'I' for Inactive)
REMARK    1  A    between atoms: C_1  and  O_2
REMARK    2  A    between atoms: O_2  and  C_3
REMARK    3  A    between atoms: C_3  and  C_4
REMARK    4  A    between atoms: C_7  and  C_9
REMARK                            x       y       z     vdW  Elec       q    Type
REMARK                         _______ _______ _______ _____ _____    ______ ____
ROOT
ATOM      1  C   UNL     1       3.220   4.593  17.444  0.00  0.00    +0.000 C 
ATOM      2  C   UNL     1       3.800   5.626  18.425  0.00  0.00    +0.000 C 
ATOM      3  N   UNL     1       2.762   6.449  19.056  0.00  0.00    +0.000 N 
ATOM      4  C   UNL     1       2.601   7.799  18.654  0.00  0.00    +0.000 C 
ATOM      5  O   UNL     1       3.313   8.231  17.749  0.00  0.00    +0.000 OA
ATOM      6  C   UNL     1       1.949   5.870  20.113  0.00  0.00    +0.000 C 
ATOM      7  C   UNL     1       2.115   4.427  20.425  0.00  0.00    +0.000 A 
ATOM      8  N   UNL     1       2.050   3.938  21.649  0.00  0.00    +0.000 NA
ATOM      9  C   UNL     1       2.109   2.581  21.513  0.00  0.00    +0.000 A 
ATOM     10  C   UNL     1       2.248   2.238  20.192  0.00  0.00    +0.000 A 
ATOM     11  N   UNL     1       2.259   3.425  19.507  0.00  0.00    +0.000 N 
ATOM     12  C   UNL     1       2.244   3.570  18.066  0.00  0.00    +0.000 C 
ENDROOT
BRANCH   4  13
ATOM     13  C   UNL     1       1.561   8.641  19.283  0.00  0.00    +0.000 A 
ATOM     14  C   UNL     1       1.162   8.846  20.598  0.00  0.00    +0.000 A 
ATOM     15  C   UNL     1       0.007   9.672  20.725  0.00  0.00    +0.000 A 
ATOM     16  C   UNL     1      -0.381  10.190  19.516  0.00  0.00    +0.000 A 
ATOM     17  S   UNL     1       0.616   9.647  18.239  0.00  0.00    +0.000 S 
ENDBRANCH   4  13
BRANCH   1  18
ATOM     18  C   UNL     1       4.357   3.889  16.686  0.00  0.00    +0.000 C 
BRANCH  18  20
ATOM     19  C   UNL     1       6.603   4.421  16.155  0.00  0.00    +0.000 C 
ATOM     20  O   UNL     1       5.609   4.377  17.171  0.00  0.00    +0.000 OA
ENDBRANCH  18  20
ENDBRANCH   1  18
TORSDOF 3
ENDMDL
MODEL 3
REMARK VINA RESULT:      -5.9      3.066      5.949
REMARK  Name = 
REMARK  4 active torsions:
REMARK  status: ('A' for Active; 'I' for Inactive)
REMARK    1  A    between atoms: C_1  and  O_2
REMARK    2  A    between atoms: O_2  and  C_3
REMARK    3  A    between atoms: C_3  and  C_4
REMARK    4  A    between atoms: C_7  and  C_9
REMARK                            x       y       z     vdW  Elec       q    Type
REMARK                         _______ _______ _______ _____ _____    ______ ____
ROOT
ATOM      1  C   UNL     1       6.414   6.542  17.509  0.00  0.00    +0.000 C 
ATOM      2  C   UNL     1       6.363   5.137  18.130  0.00  0.00    +0.000 C 
ATOM      3  N   UNL     1       5.057   4.491  17.956  0.00  0.00    +0.000 N 
ATOM      4  C   UNL     1       4.185   4.368  19.067  0.00  0.00    +0.000 C 
ATOM      5  O   UNL     1       4.534   4.852  20.143  0.00  0.00    +0.000 OA
ATOM      6  C   UNL     1       4.706   3.951  16.653  0.00  0.00    +0.000 C 
ATOM      7  C   UNL     1       5.631   4.187  15.515  0.00  0.00    +0.000 A 
ATOM      8  N   UNL     1       5.864   3.294  14.571  0.00  0.00    +0.000 NA
ATOM      9  C   UNL     1       6.644   3.924  13.645  0.00  0.00    +0.000 A 
ATOM     10  C   UNL     1       6.921   5.207  14.044  0.00  0.00    +0.000 A 
ATOM     11  N   UNL     1       6.276   5.362  15.244  0.00  0.00    +0.000 N 
ATOM     12  C   UNL     1       6.158   6.599  15.986  0.00  0.00    +0.000 C 
ENDROOT
BRANCH   4  13
ATOM     13  C   UNL     1       2.867   3.717  18.907  0.00  0.00    +0.000 A 
ATOM     14  C   UNL     1       1.601   4.186  18.582  0.00  0.00    +0.000 A 
ATOM     15  C   UNL     1       0.581   3.194  18.670  0.00  0.00    +0.000 A 
ATOM     16  C   UNL     1       1.103   1.953  18.934  0.00  0.00    +0.000 A 
ATOM     17  S   UNL     1       2.800   2.000  19.116  0.00  0.00    +0.000 S 
ENDBRANCH   4  13
BRANCH   1  18
ATOM     18  C   UNL     1       7.737   7.235  17.877  0.00  0.00    +0.000 C 
BRANCH  18  20
ATOM     19  C   UNL     1       8.456   9.473  18.171  0.00  0.00    +0.000 C 
ATOM     20  O   UNL     1       7.720   8.566  17.358  0.00  0.00    +0.000 OA
ENDBRANCH  18  20
ENDBRANCH   1  18
TORSDOF 3
ENDMDL
MODEL 4
REMARK VINA RESULT:      -5.9      2.882      6.505
REMARK  Name = 
REMARK  4 active torsions:
REMARK  status: ('A' for Active; 'I' for Inactive)
REMARK    1  A    between atoms: C_1  and  O_2
REMARK    2  A    between atoms: O_2  and  C_3
REMARK    3  A    between atoms: C_3  and  C_4
REMARK    4  A    between atoms: C_7  and  C_9
REMARK                            x       y       z     vdW  Elec       q    Type
REMARK                         _______ _______ _______ _____ _____    ______ ____
ROOT
ATOM      1  C   UNL     1       5.112   4.523  16.030  0.00  0.00    +0.000 C 
ATOM      2  C   UNL     1       4.277   5.479  16.897  0.00  0.00    +0.000 C 
ATOM      3  N   UNL     1       3.809   4.852  18.138  0.00  0.00    +0.000 N 
ATOM      4  C   UNL     1       2.445   4.490  18.267  0.00  0.00    +0.000 C 
ATOM      5  O   UNL     1       1.695   4.674  17.309  0.00  0.00    +0.000 OA
ATOM      6  C   UNL     1       4.752   4.655  19.227  0.00  0.00    +0.000 C 
ATOM      7  C   UNL     1       6.183   4.981  18.993  0.00  0.00    +0.000 A 
ATOM      8  N   UNL     1       6.964   5.519  19.911  0.00  0.00    +0.000 NA
ATOM      9  C   UNL     1       8.218   5.534  19.372  0.00  0.00    +0.000 A 
ATOM     10  C   UNL     1       8.197   5.032  18.095  0.00  0.00    +0.000 A 
ATOM     11  N   UNL     1       6.891   4.690  17.860  0.00  0.00    +0.000 N 
ATOM     12  C   UNL     1       6.399   3.985  16.695  0.00  0.00    +0.000 C 
ENDROOT
BRANCH   4  13
ATOM     13  C   UNL     1       1.959   3.860  19.513  0.00  0.00    +0.000 A 
ATOM     14  C   UNL     1       1.454   4.363  20.706  0.00  0.00    +0.000 A 
ATOM     15  C   UNL     1       1.226   3.365  21.698  0.00  0.00    +0.000 A 
ATOM     16  C   UNL     1       1.436   2.103  21.206  0.00  0.00    +0.000 A 
ATOM     17  S   UNL     1       1.947   2.130  19.576  0.00  0.00    +0.000 S 
ENDBRANCH   4  13
BRANCH   1  18
ATOM     18  C   UNL     1       5.419   5.174  14.671  0.00  0.00    +0.000 C 
BRANCH  18  20
ATOM     19  C   UNL     1       6.075   3.688  12.946  0.00  0.00    +0.000 C 
ATOM     20  O   UNL     1       6.500   4.470  14.056  0.00  0.00    +0.000 OA
ENDBRANCH  18  20
ENDBRANCH   1  18
TORSDOF 3
ENDMDL
MODEL 5
REMARK VINA RESULT:      -5.8      3.188      6.694
REMARK  Name = 
REMARK  4 active torsions:
REMARK  status: ('A' for Active; 'I' for Inactive)
REMARK    1  A    between atoms: C_1  and  O_2
REMARK    2  A    between atoms: O_2  and  C_3
REMARK    3  A    between atoms: C_3  and  C_4
REMARK    4  A    between atoms: C_7  and  C_9
REMARK                            x       y       z     vdW  Elec       q    Type
REMARK                         _______ _______ _______ _____ _____    ______ ____
ROOT
ATOM      1  C   UNL     1       5.943   3.835  15.615  0.00  0.00    +0.000 C 
ATOM      2  C   UNL     1       4.558   4.489  15.738  0.00  0.00    +0.000 C 
ATOM      3  N   UNL     1       4.051   4.484  17.115  0.00  0.00    +0.000 N 
ATOM      4  C   UNL     1       3.008   3.594  17.472  0.00  0.00    +0.000 C 
ATOM      5  O   UNL     1       2.585   2.813  16.620  0.00  0.00    +0.000 OA
ATOM      6  C   UNL     1       4.604   5.427  18.073  0.00  0.00    +0.000 C 
ATOM      7  C   UNL     1       5.751   6.273  17.653  0.00  0.00    +0.000 A 
ATOM      8  N   UNL     1       5.903   7.529  18.030  0.00  0.00    +0.000 NA
ATOM      9  C   UNL     1       7.127   7.914  17.563  0.00  0.00    +0.000 A 
ATOM     10  C   UNL     1       7.715   6.893  16.861  0.00  0.00    +0.000 A 
ATOM     11  N   UNL     1       6.824   5.852  16.917  0.00  0.00    +0.000 N 
ATOM     12  C   UNL     1       7.064   4.508  16.438  0.00  0.00    +0.000 C 
ENDROOT
BRANCH   4  13
ATOM     13  C   UNL     1       2.485   3.580  18.855  0.00  0.00    +0.000 A 
ATOM     14  C   UNL     1       1.385   4.165  19.468  0.00  0.00    +0.000 A 
ATOM     15  C   UNL     1       1.346   3.975  20.880  0.00  0.00    +0.000 A 
ATOM     16  C   UNL     1       2.345   3.139  21.307  0.00  0.00    +0.000 A 
ATOM     17  S   UNL     1       3.343   2.628  20.018  0.00  0.00    +0.000 S 
ENDBRANCH   4  13
BRANCH   1  18
ATOM     18  C   UNL     1       6.339   3.708  14.135  0.00  0.00    +0.000 C 
BRANCH  18  20
ATOM     19  C   UNL     1       5.268   3.255  12.072  0.00  0.00    +0.000 C 
ATOM     20  O   UNL     1       5.180   3.918  13.327  0.00  0.00    +0.000 OA
ENDBRANCH  18  20
ENDBRANCH   1  18
TORSDOF 3
ENDMDL
MODEL 6
REMARK VINA RESULT:      -5.7      2.277      5.339
REMARK  Name = 
REMARK  4 active torsions:
REMARK  status: ('A' for Active; 'I' for Inactive)
REMARK    1  A    between atoms: C_1  and  O_2
REMARK    2  A    between atoms: O_2  and  C_3
REMARK    3  A    between atoms: C_3  and  C_4
REMARK    4  A    between atoms: C_7  and  C_9
REMARK                            x       y       z     vdW  Elec       q    Type
REMARK                         _______ _______ _______ _____ _____    ______ ____
ROOT
ATOM      1  C   UNL     1       3.615   4.527  17.225  0.00  0.00    +0.000 C 
ATOM      2  C   UNL     1       3.997   5.547  18.309  0.00  0.00    +0.000 C 
ATOM      3  N   UNL     1       2.872   6.403  18.702  0.00  0.00    +0.000 N 
ATOM      4  C   UNL     1       2.841   7.755  18.277  0.00  0.00    +0.000 C 
ATOM      5  O   UNL     1       3.744   8.162  17.548  0.00  0.00    +0.000 OA
ATOM      6  C   UNL     1       1.832   5.852  19.556  0.00  0.00    +0.000 C 
ATOM      7  C   UNL     1       1.886   4.407  19.895  0.00  0.00    +0.000 A 
ATOM      8  N   UNL     1       1.543   3.925  21.075  0.00  0.00    +0.000 NA
ATOM      9  C   UNL     1       1.591   2.567  20.953  0.00  0.00    +0.000 A 
ATOM     10  C   UNL     1       2.003   2.213  19.693  0.00  0.00    +0.000 A 
ATOM     11  N   UNL     1       2.197   3.397  19.028  0.00  0.00    +0.000 N 
ATOM     12  C   UNL     1       2.498   3.535  17.619  0.00  0.00    +0.000 C 
ENDROOT
BRANCH   4  13
ATOM     13  C   UNL     1       1.714   8.630  18.667  0.00  0.00    +0.000 A 
ATOM     14  C   UNL     1       0.775   9.359  17.948  0.00  0.00    +0.000 A 
ATOM     15  C   UNL     1      -0.063  10.175  18.762  0.00  0.00    +0.000 A 
ATOM     16  C   UNL     1       0.161   9.959  20.097  0.00  0.00    +0.000 A 
ATOM     17  S   UNL     1       1.402   8.815  20.360  0.00  0.00    +0.000 S 
ENDBRANCH   4  13
BRANCH   1  18
ATOM     18  C   UNL     1       4.868   3.787  16.729  0.00  0.00    +0.000 C 
BRANCH  18  20
ATOM     19  C   UNL     1       6.572   4.403  15.204  0.00  0.00    +0.000 C 
ATOM     20  O   UNL     1       5.175   4.232  15.406  0.00  0.00    +0.000 OA
ENDBRANCH  18  20
ENDBRANCH   1  18
TORSDOF 3
ENDMDL
MODEL 7
REMARK VINA RESULT:      -5.5      2.898      5.078
REMARK  Name = 
REMARK  4 active torsions:
REMARK  status: ('A' for Active; 'I' for Inactive)
REMARK    1  A    between atoms: C_1  and  O_2
REMARK    2  A    between atoms: O_2  and  C_3
REMARK    3  A    between atoms: C_3  and  C_4
REMARK    4  A    between atoms: C_7  and  C_9
REMARK                            x       y       z     vdW  Elec       q    Type
REMARK                         _______ _______ _______ _____ _____    ______ ____
ROOT
ATOM      1  C   UNL     1       0.210   8.570  21.256  0.00  0.00    +0.000 C 
ATOM      2  C   UNL     1       1.676   8.109  21.198  0.00  0.00    +0.000 C 
ATOM      3  N   UNL     1       1.967   7.302  20.007  0.00  0.00    +0.000 N 
ATOM      4  C   UNL     1       2.150   5.903  20.139  0.00  0.00    +0.000 C 
ATOM      5  O   UNL     1       2.015   5.395  21.252  0.00  0.00    +0.000 OA
ATOM      6  C   UNL     1       2.103   7.968  18.722  0.00  0.00    +0.000 C 
ATOM      7  C   UNL     1       1.816   9.423  18.643  0.00  0.00    +0.000 A 
ATOM      8  N   UNL     1       2.496  10.256  17.878  0.00  0.00    +0.000 NA
ATOM      9  C   UNL     1       1.854  11.457  17.970  0.00  0.00    +0.000 A 
ATOM     10  C   UNL     1       0.788  11.366  18.830  0.00  0.00    +0.000 A 
ATOM     11  N   UNL     1       0.779  10.065  19.260  0.00  0.00    +0.000 N 
ATOM     12  C   UNL     1      -0.250   9.452  20.074  0.00  0.00    +0.000 C 
ENDROOT
BRANCH   4  13
ATOM     13  C   UNL     1       2.447   5.078  18.948  0.00  0.00    +0.000 A 
ATOM     14  C   UNL     1       1.654   4.387  18.042  0.00  0.00    +0.000 A 
ATOM     15  C   UNL     1       2.397   3.610  17.105  0.00  0.00    +0.000 A 
ATOM     16  C   UNL     1       3.746   3.822  17.228  0.00  0.00    +0.000 A 
ATOM     17  S   UNL     1       4.109   4.914  18.491  0.00  0.00    +0.000 S 
ENDBRANCH   4  13
BRANCH   1  18
ATOM     18  C   UNL     1      -0.077   9.252  22.604  0.00  0.00    +0.000 C 
BRANCH  18  20
ATOM     19  C   UNL     1      -1.129  11.338  22.995  0.00  0.00    +0.000 C 
ATOM     20  O   UNL     1      -0.009  10.668  22.428  0.00  0.00    +0.000 OA
ENDBRANCH  18  20
ENDBRANCH   1  18
TORSDOF 3
ENDMDL
MODEL 8
REMARK VINA RESULT:      -5.5      3.445      6.800
REMARK  Name = 
REMARK  4 active torsions:
REMARK  status: ('A' for Active; 'I' for Inactive)
REMARK    1  A    between atoms: C_1  and  O_2
REMARK    2  A    between atoms: O_2  and  C_3
REMARK    3  A    between atoms: C_3  and  C_4
REMARK    4  A    between atoms: C_7  and  C_9
REMARK                            x       y       z     vdW  Elec       q    Type
REMARK                         _______ _______ _______ _____ _____    ______ ____
ROOT
ATOM      1  C   UNL     1       5.794   3.746  15.568  0.00  0.00    +0.000 C 
ATOM      2  C   UNL     1       4.417   4.349  15.890  0.00  0.00    +0.000 C 
ATOM      3  N   UNL     1       4.081   4.261  17.316  0.00  0.00    +0.000 N 
ATOM      4  C   UNL     1       3.113   3.322  17.749  0.00  0.00    +0.000 C 
ATOM      5  O   UNL     1       2.610   2.570  16.915  0.00  0.00    +0.000 OA
ATOM      6  C   UNL     1       4.723   5.174  18.248  0.00  0.00    +0.000 C 
ATOM      7  C   UNL     1       5.788   6.076  17.738  0.00  0.00    +0.000 A 
ATOM      8  N   UNL     1       5.952   7.315  18.160  0.00  0.00    +0.000 NA
ATOM      9  C   UNL     1       7.099   7.761  17.570  0.00  0.00    +0.000 A 
ATOM     10  C   UNL     1       7.624   6.795  16.750  0.00  0.00    +0.000 A 
ATOM     11  N   UNL     1       6.773   5.725  16.858  0.00  0.00    +0.000 N 
ATOM     12  C   UNL     1       6.989   4.414  16.285  0.00  0.00    +0.000 C 
ENDROOT
BRANCH   4  13
ATOM     13  C   UNL     1       2.763   3.224  19.182  0.00  0.00    +0.000 A 
ATOM     14  C   UNL     1       3.381   2.639  20.281  0.00  0.00    +0.000 A 
ATOM     15  C   UNL     1       2.599   2.687  21.472  0.00  0.00    +0.000 A 
ATOM     16  C   UNL     1       1.454   3.420  21.297  0.00  0.00    +0.000 A 
ATOM     17  S   UNL     1       1.307   4.005  19.699  0.00  0.00    +0.000 S 
ENDBRANCH   4  13
BRANCH   1  18
ATOM     18  C   UNL     1       6.010   3.704  14.047  0.00  0.00    +0.000 C 
BRANCH  18  20
ATOM     19  C   UNL     1       7.371   4.614  12.334  0.00  0.00    +0.000 C 
ATOM     20  O   UNL     1       6.937   4.730  13.684  0.00  0.00    +0.000 OA
ENDBRANCH  18  20
ENDBRANCH   1  18
TORSDOF 3
ENDMDL
MODEL 9
REMARK VINA RESULT:      -5.4      2.399      5.498
REMARK  Name = 
REMARK  4 active torsions:
REMARK  status: ('A' for Active; 'I' for Inactive)
REMARK    1  A    between atoms: C_1  and  O_2
REMARK    2  A    between atoms: O_2  and  C_3
REMARK    3  A    between atoms: C_3  and  C_4
REMARK    4  A    between atoms: C_7  and  C_9
REMARK                            x       y       z     vdW  Elec       q    Type
REMARK                         _______ _______ _______ _____ _____    ______ ____
ROOT
ATOM      1  C   UNL     1       3.745   5.288  17.210  0.00  0.00    +0.000 C 
ATOM      2  C   UNL     1       4.030   6.426  18.203  0.00  0.00    +0.000 C 
ATOM      3  N   UNL     1       2.806   7.078  18.680  0.00  0.00    +0.000 N 
ATOM      4  C   UNL     1       2.473   8.372  18.206  0.00  0.00    +0.000 C 
ATOM      5  O   UNL     1       3.205   8.896  17.367  0.00  0.00    +0.000 OA
ATOM      6  C   UNL     1       1.982   6.397  19.666  0.00  0.00    +0.000 C 
ATOM      7  C   UNL     1       2.346   5.010  20.056  0.00  0.00    +0.000 A 
ATOM      8  N   UNL     1       2.220   4.546  21.285  0.00  0.00    +0.000 NA
ATOM      9  C   UNL     1       2.517   3.216  21.214  0.00  0.00    +0.000 A 
ATOM     10  C   UNL     1       2.862   2.869  19.932  0.00  0.00    +0.000 A 
ATOM     11  N   UNL     1       2.757   4.025  19.202  0.00  0.00    +0.000 N 
ATOM     12  C   UNL     1       2.885   4.130  17.765  0.00  0.00    +0.000 C 
ENDROOT
BRANCH   4  13
ATOM     13  C   UNL     1       1.244   9.043  18.681  0.00  0.00    +0.000 A 
ATOM     14  C   UNL     1       0.127   9.561  18.037  0.00  0.00    +0.000 A 
ATOM     15  C   UNL     1      -0.772  10.243  18.907  0.00  0.00    +0.000 A 
ATOM     16  C   UNL     1      -0.395  10.124  20.220  0.00  0.00    +0.000 A 
ATOM     17  S   UNL     1       1.053   9.235  20.390  0.00  0.00    +0.000 S 
ENDBRANCH   4  13
BRANCH   1  18
ATOM     18  C   UNL     1       5.062   4.766  16.612  0.00  0.00    +0.000 C 
BRANCH  18  20
ATOM     19  C   UNL     1       7.295   4.647  17.393  0.00  0.00    +0.000 C 
ATOM     20  O   UNL     1       5.929   4.372  17.677  0.00  0.00    +0.000 OA
ENDBRANCH  18  20
ENDBRANCH   1  18
TORSDOF 3
ENDMDL
