MODEL 1
REMARK VINA RESULT:      -7.1      0.000      0.000
REMARK  Name = 
REMARK  5 active torsions:
REMARK  status: ('A' for Active; 'I' for Inactive)
REMARK    1  A    between atoms: N_1  and  C_2
REMARK    2  A    between atoms: C_2  and  C_3
REMARK    3  A    between atoms: C_3  and  C_4
REMARK    4  A    between atoms: C_10  and  C_11
REMARK    5  A    between atoms: C_11  and  C_12
REMARK                            x       y       z     vdW  Elec       q    Type
REMARK                         _______ _______ _______ _____ _____    ______ ____
ROOT
ATOM      1  C   UNL     1       1.640   3.857  18.970  0.00  0.00    +0.000 C 
ATOM      2  O   UNL     1       1.608   3.125  17.979  0.00  0.00    +0.000 OA
ATOM      3  N   UNL     1       2.306   5.075  18.959  0.00  0.00    +0.000 N 
ATOM      4  C   UNL     1       2.385   6.021  20.059  0.00  0.00    +0.000 C 
ATOM      5  C   UNL     1       2.334   7.367  19.368  0.00  0.00    +0.000 C 
ATOM      6  C   UNL     1       3.142   7.124  18.101  0.00  0.00    +0.000 C 
ATOM      7  C   UNL     1       2.838   5.661  17.721  0.00  0.00    +0.000 C 
ENDROOT
BRANCH   1   8
ATOM      8  C   UNL     1       0.860   3.527  20.234  0.00  0.00    +0.000 C 
BRANCH   8   9
ATOM      9  C   UNL     1       1.549   2.484  21.101  0.00  0.00    +0.000 C 
BRANCH   9  10
ATOM     10  N   UNL     1       2.268   3.142  22.198  0.00  0.00    +0.000 NA
ATOM     11  H   UNL     1       1.602   3.395  22.928  0.00  0.00    +0.000 HD
ATOM     12  H   UNL     1       2.661   4.023  21.864  0.00  0.00    +0.000 HD
ENDBRANCH   9  10
ENDBRANCH   8   9
ENDBRANCH   1   8
BRANCH   7  13
ATOM     13  C   UNL     1       4.086   4.937  17.174  0.00  0.00    +0.000 C 
BRANCH  13  14
ATOM     14  C   UNL     1       5.397   5.557  17.614  0.00  0.00    +0.000 A 
ATOM     15  C   UNL     1       6.053   6.501  16.810  0.00  0.00    +0.000 A 
ATOM     16  C   UNL     1       7.266   7.069  17.216  0.00  0.00    +0.000 A 
ATOM     17  C   UNL     1       7.840   6.695  18.429  0.00  0.00    +0.000 A 
ATOM     18  C   UNL     1       7.196   5.755  19.223  0.00  0.00    +0.000 A 
ATOM     19  F   UNL     1       7.747   5.389  20.389  0.00  0.00    +0.000 F 
ATOM     20  C   UNL     1       5.988   5.184  18.830  0.00  0.00    +0.000 A 
ENDBRANCH  13  14
ENDBRANCH   7  13
TORSDOF 5
ENDMDL
MODEL 2
REMARK VINA RESULT:      -7.0      3.303      5.627
REMARK  Name = 
REMARK  5 active torsions:
REMARK  status: ('A' for Active; 'I' for Inactive)
REMARK    1  A    between atoms: N_1  and  C_2
REMARK    2  A    between atoms: C_2  and  C_3
REMARK    3  A    between atoms: C_3  and  C_4
REMARK    4  A    between atoms: C_10  and  C_11
REMARK    5  A    between atoms: C_11  and  C_12
REMARK                            x       y       z     vdW  Elec       q    Type
REMARK                         _______ _______ _______ _____ _____    ______ ____
ROOT
ATOM      1  C   UNL     1       4.797   4.909  16.584  0.00  0.00    +0.000 C 
ATOM      2  O   UNL     1       4.864   6.127  16.405  0.00  0.00    +0.000 OA
ATOM      3  N   UNL     1       3.842   4.342  17.415  0.00  0.00    +0.000 N 
ATOM      4  C   UNL     1       3.662   2.923  17.675  0.00  0.00    +0.000 C 
ATOM      5  C   UNL     1       2.159   2.777  17.788  0.00  0.00    +0.000 C 
ATOM      6  C   UNL     1       1.750   4.059  18.499  0.00  0.00    +0.000 C 
ATOM      7  C   UNL     1       2.731   5.125  17.974  0.00  0.00    +0.000 C 
ENDROOT
BRANCH   1   8
ATOM      8  C   UNL     1       5.685   3.940  15.817  0.00  0.00    +0.000 C 
BRANCH   8   9
ATOM      9  C   UNL     1       6.584   4.634  14.805  0.00  0.00    +0.000 C 
BRANCH   9  10
ATOM     10  N   UNL     1       7.559   5.482  15.501  0.00  0.00    +0.000 NA
ATOM     11  H   UNL     1       8.172   4.892  16.064  0.00  0.00    +0.000 HD
ATOM     12  H   UNL     1       7.070   6.086  16.163  0.00  0.00    +0.000 HD
ENDBRANCH   9  10
ENDBRANCH   8   9
ENDBRANCH   1   8
BRANCH   7  13
ATOM     13  C   UNL     1       3.157   6.111  19.081  0.00  0.00    +0.000 C 
BRANCH  13  14
ATOM     14  C   UNL     1       2.385   7.415  19.073  0.00  0.00    +0.000 A 
ATOM     15  C   UNL     1       2.304   8.197  17.910  0.00  0.00    +0.000 A 
ATOM     16  C   UNL     1       1.594   9.402  17.906  0.00  0.00    +0.000 A 
ATOM     17  C   UNL     1       0.961   9.844  19.066  0.00  0.00    +0.000 A 
ATOM     18  C   UNL     1       1.046   9.075  20.220  0.00  0.00    +0.000 A 
ATOM     19  F   UNL     1       0.441   9.497  21.340  0.00  0.00    +0.000 F 
ATOM     20  C   UNL     1       1.748   7.872  20.236  0.00  0.00    +0.000 A 
ENDBRANCH  13  14
ENDBRANCH   7  13
TORSDOF 5
ENDMDL
MODEL 3
REMARK VINA RESULT:      -6.9      3.442      6.224
REMARK  Name = 
REMARK  5 active torsions:
REMARK  status: ('A' for Active; 'I' for Inactive)
REMARK    1  A    between atoms: N_1  and  C_2
REMARK    2  A    between atoms: C_2  and  C_3
REMARK    3  A    between atoms: C_3  and  C_4
REMARK    4  A    between atoms: C_10  and  C_11
REMARK    5  A    between atoms: C_11  and  C_12
REMARK                            x       y       z     vdW  Elec       q    Type
REMARK                         _______ _______ _______ _____ _____    ______ ____
ROOT
ATOM      1  C   UNL     1       5.564   4.559  15.764  0.00  0.00    +0.000 C 
ATOM      2  O   UNL     1       4.525   3.900  15.694  0.00  0.00    +0.000 OA
ATOM      3  N   UNL     1       5.965   5.169  16.944  0.00  0.00    +0.000 N 
ATOM      4  C   UNL     1       7.179   5.945  17.141  0.00  0.00    +0.000 C 
ATOM      5  C   UNL     1       7.597   5.587  18.551  0.00  0.00    +0.000 C 
ATOM      6  C   UNL     1       6.265   5.476  19.278  0.00  0.00    +0.000 C 
ATOM      7  C   UNL     1       5.294   4.909  18.224  0.00  0.00    +0.000 C 
ENDROOT
BRANCH   1   8
ATOM      8  C   UNL     1       6.532   4.652  14.594  0.00  0.00    +0.000 C 
BRANCH   8   9
ATOM      9  C   UNL     1       6.145   3.750  13.431  0.00  0.00    +0.000 C 
BRANCH   9  10
ATOM     10  N   UNL     1       6.988   4.047  12.266  0.00  0.00    +0.000 NA
ATOM     11  H   UNL     1       6.414   4.474  11.540  0.00  0.00    +0.000 HD
ATOM     12  H   UNL     1       7.335   3.174  11.869  0.00  0.00    +0.000 HD
ENDBRANCH   9  10
ENDBRANCH   8   9
ENDBRANCH   1   8
BRANCH   7  13
ATOM     13  C   UNL     1       3.891   5.543  18.334  0.00  0.00    +0.000 C 
BRANCH  13  14
ATOM     14  C   UNL     1       2.890   4.692  19.090  0.00  0.00    +0.000 A 
ATOM     15  C   UNL     1       2.802   4.755  20.489  0.00  0.00    +0.000 A 
ATOM     16  C   UNL     1       1.880   3.967  21.185  0.00  0.00    +0.000 A 
ATOM     17  C   UNL     1       1.038   3.100  20.491  0.00  0.00    +0.000 A 
ATOM     18  C   UNL     1       1.128   3.031  19.106  0.00  0.00    +0.000 A 
ATOM     19  F   UNL     1       0.322   2.196  18.435  0.00  0.00    +0.000 F 
ATOM     20  C   UNL     1       2.041   3.812  18.403  0.00  0.00    +0.000 A 
ENDBRANCH  13  14
ENDBRANCH   7  13
TORSDOF 5
ENDMDL
MODEL 4
REMARK VINA RESULT:      -6.9      1.112      1.588
REMARK  Name = 
REMARK  5 active torsions:
REMARK  status: ('A' for Active; 'I' for Inactive)
REMARK    1  A    between atoms: N_1  and  C_2
REMARK    2  A    between atoms: C_2  and  C_3
REMARK    3  A    between atoms: C_3  and  C_4
REMARK    4  A    between atoms: C_10  and  C_11
REMARK    5  A    between atoms: C_11  and  C_12
REMARK                            x       y       z     vdW  Elec       q    Type
REMARK                         _______ _______ _______ _____ _____    ______ ____
ROOT
ATOM      1  C   UNL     1       1.749   3.907  19.305  0.00  0.00    +0.000 C 
ATOM      2  O   UNL     1       1.703   3.055  18.415  0.00  0.00    +0.000 OA
ATOM      3  N   UNL     1       2.376   5.130  19.115  0.00  0.00    +0.000 N 
ATOM      4  C   UNL     1       2.466   6.208  20.085  0.00  0.00    +0.000 C 
ATOM      5  C   UNL     1       2.351   7.455  19.233  0.00  0.00    +0.000 C 
ATOM      6  C   UNL     1       3.121   7.074  17.976  0.00  0.00    +0.000 C 
ATOM      7  C   UNL     1       2.847   5.568  17.794  0.00  0.00    +0.000 C 
ENDROOT
BRANCH   1   8
ATOM      8  C   UNL     1       1.023   3.719  20.629  0.00  0.00    +0.000 C 
BRANCH   8   9
ATOM      9  C   UNL     1       1.743   2.763  21.569  0.00  0.00    +0.000 C 
BRANCH   9  10
ATOM     10  N   UNL     1       3.103   2.511  21.079  0.00  0.00    +0.000 NA
ATOM     11  H   UNL     1       3.065   1.825  20.325  0.00  0.00    +0.000 HD
ATOM     12  H   UNL     1       3.655   2.078  21.820  0.00  0.00    +0.000 HD
ENDBRANCH   9  10
ENDBRANCH   8   9
ENDBRANCH   1   8
BRANCH   7  13
ATOM     13  C   UNL     1       4.096   4.812  17.295  0.00  0.00    +0.000 C 
BRANCH  13  14
ATOM     14  C   UNL     1       5.403   5.367  17.826  0.00  0.00    +0.000 A 
ATOM     15  C   UNL     1       5.926   4.928  19.052  0.00  0.00    +0.000 A 
ATOM     16  C   UNL     1       7.131   5.444  19.542  0.00  0.00    +0.000 A 
ATOM     17  C   UNL     1       7.824   6.409  18.815  0.00  0.00    +0.000 A 
ATOM     18  C   UNL     1       7.304   6.850  17.605  0.00  0.00    +0.000 A 
ATOM     19  F   UNL     1       7.966   7.782  16.903  0.00  0.00    +0.000 F 
ATOM     20  C   UNL     1       6.107   6.343  17.106  0.00  0.00    +0.000 A 
ENDBRANCH  13  14
ENDBRANCH   7  13
TORSDOF 5
ENDMDL
MODEL 5
REMARK VINA RESULT:      -6.9      3.158      5.964
REMARK  Name = 
REMARK  5 active torsions:
REMARK  status: ('A' for Active; 'I' for Inactive)
REMARK    1  A    between atoms: N_1  and  C_2
REMARK    2  A    between atoms: C_2  and  C_3
REMARK    3  A    between atoms: C_3  and  C_4
REMARK    4  A    between atoms: C_10  and  C_11
REMARK    5  A    between atoms: C_11  and  C_12
REMARK                            x       y       z     vdW  Elec       q    Type
REMARK                         _______ _______ _______ _____ _____    ______ ____
ROOT
ATOM      1  C   UNL     1       5.588   4.286  16.022  0.00  0.00    +0.000 C 
ATOM      2  O   UNL     1       4.530   3.655  16.047  0.00  0.00    +0.000 OA
ATOM      3  N   UNL     1       6.043   4.996  17.124  0.00  0.00    +0.000 N 
ATOM      4  C   UNL     1       7.283   5.750  17.209  0.00  0.00    +0.000 C 
ATOM      5  C   UNL     1       7.735   5.518  18.635  0.00  0.00    +0.000 C 
ATOM      6  C   UNL     1       6.424   5.519  19.408  0.00  0.00    +0.000 C 
ATOM      7  C   UNL     1       5.405   4.882  18.443  0.00  0.00    +0.000 C 
ENDROOT
BRANCH   1   8
ATOM      8  C   UNL     1       6.521   4.235  14.821  0.00  0.00    +0.000 C 
BRANCH   8   9
ATOM      9  C   UNL     1       5.781   4.055  13.503  0.00  0.00    +0.000 C 
BRANCH   9  10
ATOM     10  N   UNL     1       6.382   2.955  12.740  0.00  0.00    +0.000 NA
ATOM     11  H   UNL     1       6.104   3.037  11.762  0.00  0.00    +0.000 HD
ATOM     12  H   UNL     1       5.996   2.067  13.065  0.00  0.00    +0.000 HD
ENDBRANCH   9  10
ENDBRANCH   8   9
ENDBRANCH   1   8
BRANCH   7  13
ATOM     13  C   UNL     1       4.025   5.566  18.529  0.00  0.00    +0.000 C 
BRANCH  13  14
ATOM     14  C   UNL     1       2.914   4.651  19.004  0.00  0.00    +0.000 A 
ATOM     15  C   UNL     1       1.993   4.105  18.098  0.00  0.00    +0.000 A 
ATOM     16  C   UNL     1       0.966   3.264  18.539  0.00  0.00    +0.000 A 
ATOM     17  C   UNL     1       0.844   2.962  19.893  0.00  0.00    +0.000 A 
ATOM     18  C   UNL     1       1.751   3.506  20.794  0.00  0.00    +0.000 A 
ATOM     19  F   UNL     1       1.636   3.221  22.099  0.00  0.00    +0.000 F 
ATOM     20  C   UNL     1       2.778   4.344  20.366  0.00  0.00    +0.000 A 
ENDBRANCH  13  14
ENDBRANCH   7  13
TORSDOF 5
ENDMDL
MODEL 6
REMARK VINA RESULT:      -6.8      3.180      5.498
REMARK  Name = 
REMARK  5 active torsions:
REMARK  status: ('A' for Active; 'I' for Inactive)
REMARK    1  A    between atoms: N_1  and  C_2
REMARK    2  A    between atoms: C_2  and  C_3
REMARK    3  A    between atoms: C_3  and  C_4
REMARK    4  A    between atoms: C_10  and  C_11
REMARK    5  A    between atoms: C_11  and  C_12
REMARK                            x       y       z     vdW  Elec       q    Type
REMARK                         _______ _______ _______ _____ _____    ______ ____
ROOT
ATOM      1  C   UNL     1       5.320   5.532  17.371  0.00  0.00    +0.000 C 
ATOM      2  O   UNL     1       5.377   6.761  17.441  0.00  0.00    +0.000 OA
ATOM      3  N   UNL     1       4.172   4.831  17.712  0.00  0.00    +0.000 N 
ATOM      4  C   UNL     1       3.992   3.391  17.643  0.00  0.00    +0.000 C 
ATOM      5  C   UNL     1       2.550   3.239  17.207  0.00  0.00    +0.000 C 
ATOM      6  C   UNL     1       1.855   4.373  17.947  0.00  0.00    +0.000 C 
ATOM      7  C   UNL     1       2.897   5.509  17.983  0.00  0.00    +0.000 C 
ENDROOT
BRANCH   1   8
ATOM      8  C   UNL     1       6.467   4.711  16.799  0.00  0.00    +0.000 C 
BRANCH   8   9
ATOM      9  C   UNL     1       7.650   4.603  17.749  0.00  0.00    +0.000 C 
BRANCH   9  10
ATOM     10  N   UNL     1       7.300   5.183  19.051  0.00  0.00    +0.000 NA
ATOM     11  H   UNL     1       6.707   4.528  19.560  0.00  0.00    +0.000 HD
ATOM     12  H   UNL     1       6.731   6.018  18.907  0.00  0.00    +0.000 HD
ENDBRANCH   9  10
ENDBRANCH   8   9
ENDBRANCH   1   8
BRANCH   7  13
ATOM     13  C   UNL     1       2.869   6.272  19.324  0.00  0.00    +0.000 C 
BRANCH  13  14
ATOM     14  C   UNL     1       2.153   7.607  19.255  0.00  0.00    +0.000 A 
ATOM     15  C   UNL     1       2.081   8.325  18.052  0.00  0.00    +0.000 A 
ATOM     16  C   UNL     1       1.424   9.559  17.992  0.00  0.00    +0.000 A 
ATOM     17  C   UNL     1       0.835  10.091  19.137  0.00  0.00    +0.000 A 
ATOM     18  C   UNL     1       0.910   9.385  20.331  0.00  0.00    +0.000 A 
ATOM     19  F   UNL     1       0.348   9.896  21.435  0.00  0.00    +0.000 F 
ATOM     20  C   UNL     1       1.561   8.156  20.402  0.00  0.00    +0.000 A 
ENDBRANCH  13  14
ENDBRANCH   7  13
TORSDOF 5
ENDMDL
MODEL 7
REMARK VINA RESULT:      -6.7      3.137      5.729
REMARK  Name = 
REMARK  5 active torsions:
REMARK  status: ('A' for Active; 'I' for Inactive)
REMARK    1  A    between atoms: N_1  and  C_2
REMARK    2  A    between atoms: C_2  and  C_3
REMARK    3  A    between atoms: C_3  and  C_4
REMARK    4  A    between atoms: C_10  and  C_11
REMARK    5  A    between atoms: C_11  and  C_12
REMARK                            x       y       z     vdW  Elec       q    Type
REMARK                         _______ _______ _______ _____ _____    ______ ____
ROOT
ATOM      1  C   UNL     1       5.102   4.936  17.202  0.00  0.00    +0.000 C 
ATOM      2  O   UNL     1       5.168   6.166  17.231  0.00  0.00    +0.000 OA
ATOM      3  N   UNL     1       4.036   4.247  17.762  0.00  0.00    +0.000 N 
ATOM      4  C   UNL     1       3.849   2.805  17.761  0.00  0.00    +0.000 C 
ATOM      5  C   UNL     1       2.352   2.647  17.597  0.00  0.00    +0.000 C 
ATOM      6  C   UNL     1       1.801   3.800  18.424  0.00  0.00    +0.000 C 
ATOM      7  C   UNL     1       2.830   4.933  18.244  0.00  0.00    +0.000 C 
ENDROOT
BRANCH   1   8
ATOM      8  C   UNL     1       6.127   4.099  16.451  0.00  0.00    +0.000 C 
BRANCH   8   9
ATOM      9  C   UNL     1       6.533   4.713  15.119  0.00  0.00    +0.000 C 
BRANCH   9  10
ATOM     10  N   UNL     1       7.576   5.723  15.332  0.00  0.00    +0.000 NA
ATOM     11  H   UNL     1       7.443   6.485  14.667  0.00  0.00    +0.000 HD
ATOM     12  H   UNL     1       8.487   5.319  15.112  0.00  0.00    +0.000 HD
ENDBRANCH   9  10
ENDBRANCH   8   9
ENDBRANCH   1   8
BRANCH   7  13
ATOM     13  C   UNL     1       3.044   5.729  19.548  0.00  0.00    +0.000 C 
BRANCH  13  14
ATOM     14  C   UNL     1       2.326   7.064  19.579  0.00  0.00    +0.000 A 
ATOM     15  C   UNL     1       1.649   7.491  20.730  0.00  0.00    +0.000 A 
ATOM     16  C   UNL     1       0.984   8.722  20.755  0.00  0.00    +0.000 A 
ATOM     17  C   UNL     1       0.983   9.537  19.626  0.00  0.00    +0.000 A 
ATOM     18  C   UNL     1       1.648   9.113  18.481  0.00  0.00    +0.000 A 
ATOM     19  F   UNL     1       1.647   9.893  17.391  0.00  0.00    +0.000 F 
ATOM     20  C   UNL     1       2.314   7.891  18.446  0.00  0.00    +0.000 A 
ENDBRANCH  13  14
ENDBRANCH   7  13
TORSDOF 5
ENDMDL
MODEL 8
REMARK VINA RESULT:      -6.7      1.690      2.080
REMARK  Name = 
REMARK  5 active torsions:
REMARK  status: ('A' for Active; 'I' for Inactive)
REMARK    1  A    between atoms: N_1  and  C_2
REMARK    2  A    between atoms: C_2  and  C_3
REMARK    3  A    between atoms: C_3  and  C_4
REMARK    4  A    between atoms: C_10  and  C_11
REMARK    5  A    between atoms: C_11  and  C_12
REMARK                            x       y       z     vdW  Elec       q    Type
REMARK                         _______ _______ _______ _____ _____    ______ ____
ROOT
ATOM      1  C   UNL     1       3.037   3.208  18.572  0.00  0.00    +0.000 C 
ATOM      2  O   UNL     1       3.129   2.598  17.505  0.00  0.00    +0.000 OA
ATOM      3  N   UNL     1       3.290   4.569  18.661  0.00  0.00    +0.000 N 
ATOM      4  C   UNL     1       3.188   5.386  19.859  0.00  0.00    +0.000 C 
ATOM      5  C   UNL     1       2.654   6.704  19.339  0.00  0.00    +0.000 C 
ATOM      6  C   UNL     1       3.364   6.847  18.000  0.00  0.00    +0.000 C 
ATOM      7  C   UNL     1       3.486   5.406  17.469  0.00  0.00    +0.000 C 
ENDROOT
BRANCH   1   8
ATOM      8  C   UNL     1       2.530   2.532  19.837  0.00  0.00    +0.000 C 
BRANCH   8   9
ATOM      9  C   UNL     1       1.012   2.526  19.939  0.00  0.00    +0.000 C 
BRANCH   9  10
ATOM     10  N   UNL     1       0.423   2.345  18.606  0.00  0.00    +0.000 NA
ATOM     11  H   UNL     1       0.229   1.355  18.459  0.00  0.00    +0.000 HD
ATOM     12  H   UNL     1       1.110   2.602  17.896  0.00  0.00    +0.000 HD
ENDBRANCH   9  10
ENDBRANCH   8   9
ENDBRANCH   1   8
BRANCH   7  13
ATOM     13  C   UNL     1       4.833   5.168  16.755  0.00  0.00    +0.000 C 
BRANCH  13  14
ATOM     14  C   UNL     1       6.023   5.776  17.470  0.00  0.00    +0.000 A 
ATOM     15  C   UNL     1       6.608   5.132  18.572  0.00  0.00    +0.000 A 
ATOM     16  C   UNL     1       7.703   5.697  19.233  0.00  0.00    +0.000 A 
ATOM     17  C   UNL     1       8.225   6.916  18.804  0.00  0.00    +0.000 A 
ATOM     18  C   UNL     1       7.644   7.558  17.718  0.00  0.00    +0.000 A 
ATOM     19  F   UNL     1       8.141   8.732  17.304  0.00  0.00    +0.000 F 
ATOM     20  C   UNL     1       6.554   7.005  17.051  0.00  0.00    +0.000 A 
ENDBRANCH  13  14
ENDBRANCH   7  13
TORSDOF 5
ENDMDL
MODEL 9
REMARK VINA RESULT:      -6.7      3.131      5.773
REMARK  Name = 
REMARK  5 active torsions:
REMARK  status: ('A' for Active; 'I' for Inactive)
REMARK    1  A    between atoms: N_1  and  C_2
REMARK    2  A    between atoms: C_2  and  C_3
REMARK    3  A    between atoms: C_3  and  C_4
REMARK    4  A    between atoms: C_10  and  C_11
REMARK    5  A    between atoms: C_11  and  C_12
REMARK                            x       y       z     vdW  Elec       q    Type
REMARK                         _______ _______ _______ _____ _____    ______ ____
ROOT
ATOM      1  C   UNL     1       6.695   4.971  17.202  0.00  0.00    +0.000 C 
ATOM      2  O   UNL     1       7.496   4.361  17.912  0.00  0.00    +0.000 OA
ATOM      3  N   UNL     1       5.431   5.320  17.658  0.00  0.00    +0.000 N 
ATOM      4  C   UNL     1       4.423   6.058  16.914  0.00  0.00    +0.000 C 
ATOM      5  C   UNL     1       3.766   6.916  17.975  0.00  0.00    +0.000 C 
ATOM      6  C   UNL     1       3.746   5.994  19.186  0.00  0.00    +0.000 C 
ATOM      7  C   UNL     1       5.040   5.166  19.065  0.00  0.00    +0.000 C 
ENDROOT
BRANCH   1   8
ATOM      8  C   UNL     1       7.078   5.482  15.821  0.00  0.00    +0.000 C 
BRANCH   8   9
ATOM      9  C   UNL     1       6.807   4.468  14.718  0.00  0.00    +0.000 C 
BRANCH   9  10
ATOM     10  N   UNL     1       6.244   3.242  15.295  0.00  0.00    +0.000 NA
ATOM     11  H   UNL     1       6.996   2.571  15.452  0.00  0.00    +0.000 HD
ATOM     12  H   UNL     1       5.620   2.805  14.615  0.00  0.00    +0.000 HD
ENDBRANCH   9  10
ENDBRANCH   8   9
ENDBRANCH   1   8
BRANCH   7  13
ATOM     13  C   UNL     1       4.827   3.700  19.497  0.00  0.00    +0.000 C 
BRANCH  13  14
ATOM     14  C   UNL     1       3.370   3.288  19.576  0.00  0.00    +0.000 A 
ATOM     15  C   UNL     1       2.613   3.091  18.411  0.00  0.00    +0.000 A 
ATOM     16  C   UNL     1       1.268   2.715  18.487  0.00  0.00    +0.000 A 
ATOM     17  C   UNL     1       0.662   2.537  19.729  0.00  0.00    +0.000 A 
ATOM     18  C   UNL     1       1.407   2.739  20.883  0.00  0.00    +0.000 A 
ATOM     19  F   UNL     1       0.827   2.572  22.080  0.00  0.00    +0.000 F 
ATOM     20  C   UNL     1       2.748   3.112  20.820  0.00  0.00    +0.000 A 
ENDBRANCH  13  14
ENDBRANCH   7  13
TORSDOF 5
ENDMDL
