MODEL 1
REMARK VINA RESULT:      -6.8      0.000      0.000
REMARK  Name = 
REMARK  11 active torsions:
REMARK  status: ('A' for Active; 'I' for Inactive)
REMARK    1  A    between atoms: C_1  and  O_2
REMARK    2  A    between atoms: O_2  and  C_3
REMARK    3  A    between atoms: C_6  and  C_7
REMARK    4  A    between atoms: C_7  and  C_8
REMARK    5  A    between atoms: C_8  and  C_9
REMARK    6  A    between atoms: C_8  and  O_10
REMARK    7  A    between atoms: C_8  and  C_11
REMARK    8  A    between atoms: C_11  and  N_12
REMARK    9  A    between atoms: N_12  and  S_13
REMARK   10  A    between atoms: S_13  and  C_16
REMARK   11  A    between atoms: N_19  and  C_20
REMARK                            x       y       z     vdW  Elec       q    Type
REMARK                         _______ _______ _______ _____ _____    ______ ____
ROOT
ATOM      1  C   UNL     1       3.030   2.763  19.014  0.00  0.00    +0.000 C 
ATOM      2  C   UNL     1       3.595   1.715  18.046  0.00  0.00    +0.000 C 
ENDROOT
BRANCH   1   3
ATOM      3  O   UNL     1       2.183   2.060  19.961  0.00  0.00    +0.000 OA
ATOM      4  H   UNL     1       2.129   2.580  20.781  0.00  0.00    +0.000 HD
ENDBRANCH   1   3
BRANCH   1   5
ATOM      5  C   UNL     1       2.113   3.812  18.330  0.00  0.00    +0.000 C 
BRANCH   5   9
ATOM      6  C   UNL     1       1.826   7.780  20.076  0.00  0.00    +0.000 A 
ATOM      7  C   UNL     1       1.385   6.664  20.787  0.00  0.00    +0.000 A 
ATOM      8  C   UNL     1       1.467   5.380  20.233  0.00  0.00    +0.000 A 
ATOM      9  C   UNL     1       1.941   5.194  18.933  0.00  0.00    +0.000 A 
ATOM     10  C   UNL     1       2.371   6.325  18.219  0.00  0.00    +0.000 A 
ATOM     11  C   UNL     1       2.320   7.607  18.786  0.00  0.00    +0.000 A 
BRANCH   6  13
ATOM     12  C   UNL     1       1.199   8.919  22.054  0.00  0.00    +0.000 C 
ATOM     13  O   UNL     1       1.692   8.978  20.720  0.00  0.00    +0.000 OA
ENDBRANCH   6  13
ENDBRANCH   5   9
ENDBRANCH   1   5
BRANCH   1  14
ATOM     14  C   UNL     1       4.205   3.372  19.806  0.00  0.00    +0.000 C 
BRANCH  14  15
ATOM     15  N   UNL     1       5.486   3.225  19.077  0.00  0.00    +0.000 NA
ATOM     16  H   UNL     1       5.407   2.586  18.280  0.00  0.00    +0.000 HD
BRANCH  15  17
ATOM     17  S   UNL     1       6.194   4.680  18.600  0.00  0.00    +0.000 S 
ATOM     18  O   UNL     1       5.430   5.754  19.201  0.00  0.00    +0.000 OA
ATOM     19  O   UNL     1       7.625   4.562  18.766  0.00  0.00    +0.000 OA
BRANCH  17  20
ATOM     20  C   UNL     1       5.942   4.847  16.920  0.00  0.00    +0.000 A 
ATOM     21  C   UNL     1       5.548   6.009  16.245  0.00  0.00    +0.000 A 
ATOM     22  N   UNL     1       5.503   5.827  14.920  0.00  0.00    +0.000 NA
ATOM     23  N   UNL     1       5.862   4.538  14.762  0.00  0.00    +0.000 N 
ATOM     24  C   UNL     1       5.924   3.958  13.443  0.00  0.00    +0.000 C 
ATOM     25  C   UNL     1       6.149   3.905  15.935  0.00  0.00    +0.000 A 
ENDBRANCH  17  20
ENDBRANCH  15  17
ENDBRANCH  14  15
ENDBRANCH   1  14
TORSDOF 8
ENDMDL
MODEL 2
REMARK VINA RESULT:      -6.7      2.621      6.581
REMARK  Name = 
REMARK  11 active torsions:
REMARK  status: ('A' for Active; 'I' for Inactive)
REMARK    1  A    between atoms: C_1  and  O_2
REMARK    2  A    between atoms: O_2  and  C_3
REMARK    3  A    between atoms: C_6  and  C_7
REMARK    4  A    between atoms: C_7  and  C_8
REMARK    5  A    between atoms: C_8  and  C_9
REMARK    6  A    between atoms: C_8  and  O_10
REMARK    7  A    between atoms: C_8  and  C_11
REMARK    8  A    between atoms: C_11  and  N_12
REMARK    9  A    between atoms: N_12  and  S_13
REMARK   10  A    between atoms: S_13  and  C_16
REMARK   11  A    between atoms: N_19  and  C_20
REMARK                            x       y       z     vdW  Elec       q    Type
REMARK                         _______ _______ _______ _____ _____    ______ ____
ROOT
ATOM      1  C   UNL     1       7.167   5.300  18.311  0.00  0.00    +0.000 C 
ATOM      2  C   UNL     1       8.201   6.043  19.167  0.00  0.00    +0.000 C 
ENDROOT
BRANCH   1   3
ATOM      3  O   UNL     1       7.804   4.090  17.825  0.00  0.00    +0.000 OA
ATOM      4  H   UNL     1       8.075   4.227  16.900  0.00  0.00    +0.000 HD
ENDBRANCH   1   3
BRANCH   1   5
ATOM      5  C   UNL     1       6.730   6.082  17.043  0.00  0.00    +0.000 C 
BRANCH   5   9
ATOM      6  C   UNL     1       6.013   3.812  13.409  0.00  0.00    +0.000 A 
ATOM      7  C   UNL     1       7.170   4.581  13.544  0.00  0.00    +0.000 A 
ATOM      8  C   UNL     1       7.410   5.321  14.707  0.00  0.00    +0.000 A 
ATOM      9  C   UNL     1       6.469   5.352  15.740  0.00  0.00    +0.000 A 
ATOM     10  C   UNL     1       5.301   4.586  15.591  0.00  0.00    +0.000 A 
ATOM     11  C   UNL     1       5.077   3.818  14.439  0.00  0.00    +0.000 A 
BRANCH   6  13
ATOM     12  C   UNL     1       4.612   3.195  11.604  0.00  0.00    +0.000 C 
ATOM     13  O   UNL     1       5.890   3.136  12.227  0.00  0.00    +0.000 OA
ENDBRANCH   6  13
ENDBRANCH   5   9
ENDBRANCH   1   5
BRANCH   1  14
ATOM     14  C   UNL     1       6.000   4.875  19.225  0.00  0.00    +0.000 C 
BRANCH  14  15
ATOM     15  N   UNL     1       5.413   3.586  18.795  0.00  0.00    +0.000 NA
ATOM     16  H   UNL     1       5.884   2.783  19.223  0.00  0.00    +0.000 HD
BRANCH  15  17
ATOM     17  S   UNL     1       3.743   3.469  19.001  0.00  0.00    +0.000 S 
ATOM     18  O   UNL     1       3.189   2.934  17.774  0.00  0.00    +0.000 OA
ATOM     19  O   UNL     1       3.487   2.869  20.290  0.00  0.00    +0.000 OA
BRANCH  17  20
ATOM     20  C   UNL     1       3.127   5.057  19.107  0.00  0.00    +0.000 A 
ATOM     21  C   UNL     1       3.007   5.979  18.061  0.00  0.00    +0.000 A 
ATOM     22  N   UNL     1       2.424   7.116  18.460  0.00  0.00    +0.000 NA
ATOM     23  N   UNL     1       2.186   6.910  19.769  0.00  0.00    +0.000 N 
ATOM     24  C   UNL     1       1.559   7.938  20.564  0.00  0.00    +0.000 C 
ATOM     25  C   UNL     1       2.580   5.680  20.208  0.00  0.00    +0.000 A 
ENDBRANCH  17  20
ENDBRANCH  15  17
ENDBRANCH  14  15
ENDBRANCH   1  14
TORSDOF 8
ENDMDL
MODEL 3
REMARK VINA RESULT:      -6.6      2.529      3.324
REMARK  Name = 
REMARK  11 active torsions:
REMARK  status: ('A' for Active; 'I' for Inactive)
REMARK    1  A    between atoms: C_1  and  O_2
REMARK    2  A    between atoms: O_2  and  C_3
REMARK    3  A    between atoms: C_6  and  C_7
REMARK    4  A    between atoms: C_7  and  C_8
REMARK    5  A    between atoms: C_8  and  C_9
REMARK    6  A    between atoms: C_8  and  O_10
REMARK    7  A    between atoms: C_8  and  C_11
REMARK    8  A    between atoms: C_11  and  N_12
REMARK    9  A    between atoms: N_12  and  S_13
REMARK   10  A    between atoms: S_13  and  C_16
REMARK   11  A    between atoms: N_19  and  C_20
REMARK                            x       y       z     vdW  Elec       q    Type
REMARK                         _______ _______ _______ _____ _____    ______ ____
ROOT
ATOM      1  C   UNL     1       3.129   4.786  18.043  0.00  0.00    +0.000 C 
ATOM      2  C   UNL     1       1.641   4.574  17.731  0.00  0.00    +0.000 C 
ENDROOT
BRANCH   1   3
ATOM      3  O   UNL     1       3.376   4.216  19.355  0.00  0.00    +0.000 OA
ATOM      4  H   UNL     1       4.300   3.913  19.397  0.00  0.00    +0.000 HD
ENDBRANCH   1   3
BRANCH   1   5
ATOM      5  C   UNL     1       3.536   6.280  18.151  0.00  0.00    +0.000 C 
BRANCH   5   9
ATOM      6  C   UNL     1       0.908   9.351  19.746  0.00  0.00    +0.000 A 
ATOM      7  C   UNL     1       1.368   8.321  20.567  0.00  0.00    +0.000 A 
ATOM      8  C   UNL     1       2.211   7.322  20.063  0.00  0.00    +0.000 A 
ATOM      9  C   UNL     1       2.566   7.303  18.713  0.00  0.00    +0.000 A 
ATOM     10  C   UNL     1       2.089   8.336  17.890  0.00  0.00    +0.000 A 
ATOM     11  C   UNL     1       1.272   9.355  18.402  0.00  0.00    +0.000 A 
BRANCH   6  13
ATOM     12  C   UNL     1      -0.301   9.966  21.686  0.00  0.00    +0.000 C 
ATOM     13  O   UNL     1       0.091  10.264  20.350  0.00  0.00    +0.000 OA
ENDBRANCH   6  13
ENDBRANCH   5   9
ENDBRANCH   1   5
BRANCH   1  14
ATOM     14  C   UNL     1       3.955   3.978  17.023  0.00  0.00    +0.000 C 
BRANCH  14  15
ATOM     15  N   UNL     1       5.391   3.954  17.383  0.00  0.00    +0.000 NA
ATOM     16  H   UNL     1       5.754   3.000  17.470  0.00  0.00    +0.000 HD
BRANCH  15  17
ATOM     17  S   UNL     1       6.384   4.873  16.375  0.00  0.00    +0.000 S 
ATOM     18  O   UNL     1       7.455   4.013  15.916  0.00  0.00    +0.000 OA
ATOM     19  O   UNL     1       5.542   5.612  15.462  0.00  0.00    +0.000 OA
BRANCH  17  20
ATOM     20  C   UNL     1       7.149   6.052  17.344  0.00  0.00    +0.000 A 
ATOM     21  C   UNL     1       7.744   5.847  18.595  0.00  0.00    +0.000 A 
ATOM     22  N   UNL     1       8.314   6.962  19.066  0.00  0.00    +0.000 NA
ATOM     23  N   UNL     1       8.068   7.876  18.107  0.00  0.00    +0.000 N 
ATOM     24  C   UNL     1       8.531   9.233  18.262  0.00  0.00    +0.000 C 
ATOM     25  C   UNL     1       7.378   7.376  17.043  0.00  0.00    +0.000 A 
ENDBRANCH  17  20
ENDBRANCH  15  17
ENDBRANCH  14  15
ENDBRANCH   1  14
TORSDOF 8
ENDMDL
MODEL 4
REMARK VINA RESULT:      -6.4      1.438      1.902
REMARK  Name = 
REMARK  11 active torsions:
REMARK  status: ('A' for Active; 'I' for Inactive)
REMARK    1  A    between atoms: C_1  and  O_2
REMARK    2  A    between atoms: O_2  and  C_3
REMARK    3  A    between atoms: C_6  and  C_7
REMARK    4  A    between atoms: C_7  and  C_8
REMARK    5  A    between atoms: C_8  and  C_9
REMARK    6  A    between atoms: C_8  and  O_10
REMARK    7  A    between atoms: C_8  and  C_11
REMARK    8  A    between atoms: C_11  and  N_12
REMARK    9  A    between atoms: N_12  and  S_13
REMARK   10  A    between atoms: S_13  and  C_16
REMARK   11  A    between atoms: N_19  and  C_20
REMARK                            x       y       z     vdW  Elec       q    Type
REMARK                         _______ _______ _______ _____ _____    ______ ____
ROOT
ATOM      1  C   UNL     1       3.425   3.774  19.105  0.00  0.00    +0.000 C 
ATOM      2  C   UNL     1       3.147   3.813  17.596  0.00  0.00    +0.000 C 
ENDROOT
BRANCH   1   3
ATOM      3  O   UNL     1       3.244   2.401  19.539  0.00  0.00    +0.000 OA
ATOM      4  H   UNL     1       4.102   2.046  19.829  0.00  0.00    +0.000 HD
ENDBRANCH   1   3
BRANCH   1   5
ATOM      5  C   UNL     1       2.426   4.615  19.944  0.00  0.00    +0.000 C 
BRANCH   5   9
ATOM      6  C   UNL     1       1.689   8.822  19.148  0.00  0.00    +0.000 A 
ATOM      7  C   UNL     1       2.193   7.992  18.146  0.00  0.00    +0.000 A 
ATOM      8  C   UNL     1       2.440   6.636  18.391  0.00  0.00    +0.000 A 
ATOM      9  C   UNL     1       2.240   6.094  19.663  0.00  0.00    +0.000 A 
ATOM     10  C   UNL     1       1.745   6.938  20.670  0.00  0.00    +0.000 A 
ATOM     11  C   UNL     1       1.465   8.289  20.415  0.00  0.00    +0.000 A 
BRANCH   6  13
ATOM     12  C   UNL     1       0.138  10.524  18.600  0.00  0.00    +0.000 C 
ATOM     13  O   UNL     1       1.491  10.126  18.789  0.00  0.00    +0.000 OA
ENDBRANCH   6  13
ENDBRANCH   5   9
ENDBRANCH   1   5
BRANCH   1  14
ATOM     14  C   UNL     1       4.906   4.140  19.332  0.00  0.00    +0.000 C 
BRANCH  14  15
ATOM     15  N   UNL     1       5.765   3.638  18.234  0.00  0.00    +0.000 NA
ATOM     16  H   UNL     1       5.220   3.198  17.486  0.00  0.00    +0.000 HD
BRANCH  15  17
ATOM     17  S   UNL     1       6.830   4.780  17.597  0.00  0.00    +0.000 S 
ATOM     18  O   UNL     1       6.304   6.092  17.912  0.00  0.00    +0.000 OA
ATOM     19  O   UNL     1       8.177   4.384  17.944  0.00  0.00    +0.000 OA
BRANCH  17  20
ATOM     20  C   UNL     1       6.747   4.667  15.896  0.00  0.00    +0.000 A 
ATOM     21  C   UNL     1       7.446   5.452  14.972  0.00  0.00    +0.000 A 
ATOM     22  N   UNL     1       7.209   5.071  13.711  0.00  0.00    +0.000 NA
ATOM     23  N   UNL     1       6.346   4.045  13.845  0.00  0.00    +0.000 N 
ATOM     24  C   UNL     1       5.843   3.362  12.678  0.00  0.00    +0.000 C 
ATOM     25  C   UNL     1       6.043   3.753  15.142  0.00  0.00    +0.000 A 
ENDBRANCH  17  20
ENDBRANCH  15  17
ENDBRANCH  14  15
ENDBRANCH   1  14
TORSDOF 8
ENDMDL
MODEL 5
REMARK VINA RESULT:      -6.4      1.217      1.402
REMARK  Name = 
REMARK  11 active torsions:
REMARK  status: ('A' for Active; 'I' for Inactive)
REMARK    1  A    between atoms: C_1  and  O_2
REMARK    2  A    between atoms: O_2  and  C_3
REMARK    3  A    between atoms: C_6  and  C_7
REMARK    4  A    between atoms: C_7  and  C_8
REMARK    5  A    between atoms: C_8  and  C_9
REMARK    6  A    between atoms: C_8  and  O_10
REMARK    7  A    between atoms: C_8  and  C_11
REMARK    8  A    between atoms: C_11  and  N_12
REMARK    9  A    between atoms: N_12  and  S_13
REMARK   10  A    between atoms: S_13  and  C_16
REMARK   11  A    between atoms: N_19  and  C_20
REMARK                            x       y       z     vdW  Elec       q    Type
REMARK                         _______ _______ _______ _____ _____    ______ ____
ROOT
ATOM      1  C   UNL     1       3.881   3.126  19.070  0.00  0.00    +0.000 C 
ATOM      2  C   UNL     1       3.697   2.001  18.043  0.00  0.00    +0.000 C 
ENDROOT
BRANCH   1   3
ATOM      3  O   UNL     1       4.596   2.562  20.200  0.00  0.00    +0.000 OA
ATOM      4  H   UNL     1       4.272   1.658  20.358  0.00  0.00    +0.000 HD
ENDBRANCH   1   3
BRANCH   1   5
ATOM      5  C   UNL     1       2.546   3.668  19.646  0.00  0.00    +0.000 C 
BRANCH   5   9
ATOM      6  C   UNL     1       1.814   7.944  19.413  0.00  0.00    +0.000 A 
ATOM      7  C   UNL     1       1.645   7.265  20.620  0.00  0.00    +0.000 A 
ATOM      8  C   UNL     1       1.872   5.886  20.707  0.00  0.00    +0.000 A 
ATOM      9  C   UNL     1       2.220   5.148  19.573  0.00  0.00    +0.000 A 
ATOM     10  C   UNL     1       2.376   5.837  18.359  0.00  0.00    +0.000 A 
ATOM     11  C   UNL     1       2.181   7.224  18.280  0.00  0.00    +0.000 A 
BRANCH   6  13
ATOM     12  C   UNL     1       1.200   9.892  18.217  0.00  0.00    +0.000 C 
ATOM     13  O   UNL     1       1.560   9.287  19.454  0.00  0.00    +0.000 OA
ENDBRANCH   6  13
ENDBRANCH   5   9
ENDBRANCH   1   5
BRANCH   1  14
ATOM     14  C   UNL     1       4.784   4.208  18.443  0.00  0.00    +0.000 C 
BRANCH  14  15
ATOM     15  N   UNL     1       6.197   4.043  18.855  0.00  0.00    +0.000 NA
ATOM     16  H   UNL     1       6.456   3.058  18.967  0.00  0.00    +0.000 HD
BRANCH  15  17
ATOM     17  S   UNL     1       7.313   4.839  17.873  0.00  0.00    +0.000 S 
ATOM     18  O   UNL     1       7.333   6.231  18.274  0.00  0.00    +0.000 OA
ATOM     19  O   UNL     1       8.513   4.036  17.810  0.00  0.00    +0.000 OA
BRANCH  17  20
ATOM     20  C   UNL     1       6.687   4.846  16.285  0.00  0.00    +0.000 A 
ATOM     21  C   UNL     1       6.022   5.904  15.654  0.00  0.00    +0.000 A 
ATOM     22  N   UNL     1       5.713   5.615  14.384  0.00  0.00    +0.000 NA
ATOM     23  N   UNL     1       6.179   4.362  14.220  0.00  0.00    +0.000 N 
ATOM     24  C   UNL     1       6.023   3.690  12.953  0.00  0.00    +0.000 C 
ATOM     25  C   UNL     1       6.785   3.856  15.332  0.00  0.00    +0.000 A 
ENDBRANCH  17  20
ENDBRANCH  15  17
ENDBRANCH  14  15
ENDBRANCH   1  14
TORSDOF 8
ENDMDL
MODEL 6
REMARK VINA RESULT:      -6.3      1.651      2.107
REMARK  Name = 
REMARK  11 active torsions:
REMARK  status: ('A' for Active; 'I' for Inactive)
REMARK    1  A    between atoms: C_1  and  O_2
REMARK    2  A    between atoms: O_2  and  C_3
REMARK    3  A    between atoms: C_6  and  C_7
REMARK    4  A    between atoms: C_7  and  C_8
REMARK    5  A    between atoms: C_8  and  C_9
REMARK    6  A    between atoms: C_8  and  O_10
REMARK    7  A    between atoms: C_8  and  C_11
REMARK    8  A    between atoms: C_11  and  N_12
REMARK    9  A    between atoms: N_12  and  S_13
REMARK   10  A    between atoms: S_13  and  C_16
REMARK   11  A    between atoms: N_19  and  C_20
REMARK                            x       y       z     vdW  Elec       q    Type
REMARK                         _______ _______ _______ _____ _____    ______ ____
ROOT
ATOM      1  C   UNL     1       2.969   4.218  18.802  0.00  0.00    +0.000 C 
ATOM      2  C   UNL     1       1.553   4.214  18.210  0.00  0.00    +0.000 C 
ENDROOT
BRANCH   1   3
ATOM      3  O   UNL     1       3.038   3.123  19.753  0.00  0.00    +0.000 OA
ATOM      4  H   UNL     1       2.603   3.396  20.579  0.00  0.00    +0.000 HD
ENDBRANCH   1   3
BRANCH   1   5
ATOM      5  C   UNL     1       3.301   5.499  19.613  0.00  0.00    +0.000 C 
BRANCH   5   9
ATOM      6  C   UNL     1       1.363   9.309  18.836  0.00  0.00    +0.000 A 
ATOM      7  C   UNL     1       1.208   8.678  20.071  0.00  0.00    +0.000 A 
ATOM      8  C   UNL     1       1.823   7.448  20.331  0.00  0.00    +0.000 A 
ATOM      9  C   UNL     1       2.561   6.795  19.341  0.00  0.00    +0.000 A 
ATOM     10  C   UNL     1       2.701   7.431  18.096  0.00  0.00    +0.000 A 
ATOM     11  C   UNL     1       2.113   8.680  17.846  0.00  0.00    +0.000 A 
BRANCH   6  13
ATOM     12  C   UNL     1       1.531  11.668  18.732  0.00  0.00    +0.000 C 
ATOM     13  O   UNL     1       0.713  10.504  18.700  0.00  0.00    +0.000 OA
ENDBRANCH   6  13
ENDBRANCH   5   9
ENDBRANCH   1   5
BRANCH   1  14
ATOM     14  C   UNL     1       3.967   3.911  17.667  0.00  0.00    +0.000 C 
BRANCH  14  15
ATOM     15  N   UNL     1       5.334   3.688  18.190  0.00  0.00    +0.000 NA
ATOM     16  H   UNL     1       5.645   2.720  18.061  0.00  0.00    +0.000 HD
BRANCH  15  17
ATOM     17  S   UNL     1       6.494   4.764  17.609  0.00  0.00    +0.000 S 
ATOM     18  O   UNL     1       5.968   6.104  17.773  0.00  0.00    +0.000 OA
ATOM     19  O   UNL     1       7.781   4.370  18.136  0.00  0.00    +0.000 OA
BRANCH  17  20
ATOM     20  C   UNL     1       6.605   4.537  15.921  0.00  0.00    +0.000 A 
ATOM     21  C   UNL     1       5.866   3.633  15.149  0.00  0.00    +0.000 A 
ATOM     22  N   UNL     1       6.143   3.746  13.844  0.00  0.00    +0.000 NA
ATOM     23  N   UNL     1       7.070   4.723  13.798  0.00  0.00    +0.000 N 
ATOM     24  C   UNL     1       7.630   5.132  12.533  0.00  0.00    +0.000 C 
ATOM     25  C   UNL     1       7.376   5.241  15.021  0.00  0.00    +0.000 A 
ENDBRANCH  17  20
ENDBRANCH  15  17
ENDBRANCH  14  15
ENDBRANCH   1  14
TORSDOF 8
ENDMDL
MODEL 7
REMARK VINA RESULT:      -6.3      2.480      3.301
REMARK  Name = 
REMARK  11 active torsions:
REMARK  status: ('A' for Active; 'I' for Inactive)
REMARK    1  A    between atoms: C_1  and  O_2
REMARK    2  A    between atoms: O_2  and  C_3
REMARK    3  A    between atoms: C_6  and  C_7
REMARK    4  A    between atoms: C_7  and  C_8
REMARK    5  A    between atoms: C_8  and  C_9
REMARK    6  A    between atoms: C_8  and  O_10
REMARK    7  A    between atoms: C_8  and  C_11
REMARK    8  A    between atoms: C_11  and  N_12
REMARK    9  A    between atoms: N_12  and  S_13
REMARK   10  A    between atoms: S_13  and  C_16
REMARK   11  A    between atoms: N_19  and  C_20
REMARK                            x       y       z     vdW  Elec       q    Type
REMARK                         _______ _______ _______ _____ _____    ______ ____
ROOT
ATOM      1  C   UNL     1       3.664   4.914  18.849  0.00  0.00    +0.000 C 
ATOM      2  C   UNL     1       2.398   4.128  19.217  0.00  0.00    +0.000 C 
ENDROOT
BRANCH   1   3
ATOM      3  O   UNL     1       4.228   5.419  20.086  0.00  0.00    +0.000 OA
ATOM      4  H   UNL     1       3.558   5.353  20.789  0.00  0.00    +0.000 HD
ENDBRANCH   1   3
BRANCH   1   5
ATOM      5  C   UNL     1       3.388   6.163  17.971  0.00  0.00    +0.000 C 
BRANCH   5   9
ATOM      6  C   UNL     1       1.160   9.564  19.503  0.00  0.00    +0.000 A 
ATOM      7  C   UNL     1       1.409   8.459  20.318  0.00  0.00    +0.000 A 
ATOM      8  C   UNL     1       2.121   7.355  19.835  0.00  0.00    +0.000 A 
ATOM      9  C   UNL     1       2.551   7.310  18.507  0.00  0.00    +0.000 A 
ATOM     10  C   UNL     1       2.285   8.420  17.689  0.00  0.00    +0.000 A 
ATOM     11  C   UNL     1       1.600   9.541  18.183  0.00  0.00    +0.000 A 
BRANCH   6  13
ATOM     12  C   UNL     1       0.921  11.897  19.826  0.00  0.00    +0.000 C 
ATOM     13  O   UNL     1       0.453  10.578  20.087  0.00  0.00    +0.000 OA
ENDBRANCH   6  13
ENDBRANCH   5   9
ENDBRANCH   1   5
BRANCH   1  14
ATOM     14  C   UNL     1       4.683   3.928  18.243  0.00  0.00    +0.000 C 
BRANCH  14  15
ATOM     15  N   UNL     1       6.058   4.207  18.717  0.00  0.00    +0.000 NA
ATOM     16  H   UNL     1       6.434   3.443  19.287  0.00  0.00    +0.000 HD
BRANCH  15  17
ATOM     17  S   UNL     1       7.149   4.630  17.502  0.00  0.00    +0.000 S 
ATOM     18  O   UNL     1       8.426   4.033  17.836  0.00  0.00    +0.000 OA
ATOM     19  O   UNL     1       6.507   4.417  16.224  0.00  0.00    +0.000 OA
BRANCH  17  20
ATOM     20  C   UNL     1       7.407   6.314  17.608  0.00  0.00    +0.000 A 
ATOM     21  C   UNL     1       6.723   7.310  16.901  0.00  0.00    +0.000 A 
ATOM     22  N   UNL     1       7.119   8.537  17.258  0.00  0.00    +0.000 NA
ATOM     23  N   UNL     1       8.066   8.310  18.189  0.00  0.00    +0.000 N 
ATOM     24  C   UNL     1       8.747   9.415  18.817  0.00  0.00    +0.000 C 
ATOM     25  C   UNL     1       8.271   6.986  18.445  0.00  0.00    +0.000 A 
ENDBRANCH  17  20
ENDBRANCH  15  17
ENDBRANCH  14  15
ENDBRANCH   1  14
TORSDOF 8
ENDMDL
MODEL 8
REMARK VINA RESULT:      -6.3      1.654      2.148
REMARK  Name = 
REMARK  11 active torsions:
REMARK  status: ('A' for Active; 'I' for Inactive)
REMARK    1  A    between atoms: C_1  and  O_2
REMARK    2  A    between atoms: O_2  and  C_3
REMARK    3  A    between atoms: C_6  and  C_7
REMARK    4  A    between atoms: C_7  and  C_8
REMARK    5  A    between atoms: C_8  and  C_9
REMARK    6  A    between atoms: C_8  and  O_10
REMARK    7  A    between atoms: C_8  and  C_11
REMARK    8  A    between atoms: C_11  and  N_12
REMARK    9  A    between atoms: N_12  and  S_13
REMARK   10  A    between atoms: S_13  and  C_16
REMARK   11  A    between atoms: N_19  and  C_20
REMARK                            x       y       z     vdW  Elec       q    Type
REMARK                         _______ _______ _______ _____ _____    ______ ____
ROOT
ATOM      1  C   UNL     1       3.491   5.259  19.029  0.00  0.00    +0.000 C 
ATOM      2  C   UNL     1       2.406   4.257  18.614  0.00  0.00    +0.000 C 
ENDROOT
BRANCH   1   3
ATOM      3  O   UNL     1       3.273   5.571  20.430  0.00  0.00    +0.000 OA
ATOM      4  H   UNL     1       3.748   6.392  20.647  0.00  0.00    +0.000 HD
ENDBRANCH   1   3
BRANCH   1   5
ATOM      5  C   UNL     1       3.406   6.615  18.279  0.00  0.00    +0.000 C 
BRANCH   5   9
ATOM      6  C   UNL     1       0.662   9.767  19.470  0.00  0.00    +0.000 A 
ATOM      7  C   UNL     1       1.100   8.825  20.401  0.00  0.00    +0.000 A 
ATOM      8  C   UNL     1       1.980   7.801  20.029  0.00  0.00    +0.000 A 
ATOM      9  C   UNL     1       2.396   7.666  18.702  0.00  0.00    +0.000 A 
ATOM     10  C   UNL     1       1.940   8.611  17.768  0.00  0.00    +0.000 A 
ATOM     11  C   UNL     1       1.086   9.657  18.149  0.00  0.00    +0.000 A 
BRANCH   6  13
ATOM     12  C   UNL     1      -0.550  10.598  21.326  0.00  0.00    +0.000 C 
ATOM     13  O   UNL     1      -0.196  10.716  19.952  0.00  0.00    +0.000 OA
ENDBRANCH   6  13
ENDBRANCH   5   9
ENDBRANCH   1   5
BRANCH   1  14
ATOM     14  C   UNL     1       4.861   4.560  18.917  0.00  0.00    +0.000 C 
BRANCH  14  15
ATOM     15  N   UNL     1       5.958   5.434  19.393  0.00  0.00    +0.000 NA
ATOM     16  H   UNL     1       6.267   5.189  20.339  0.00  0.00    +0.000 HD
BRANCH  15  17
ATOM     17  S   UNL     1       7.278   5.538  18.349  0.00  0.00    +0.000 S 
ATOM     18  O   UNL     1       7.777   6.896  18.409  0.00  0.00    +0.000 OA
ATOM     19  O   UNL     1       8.129   4.392  18.580  0.00  0.00    +0.000 OA
BRANCH  17  20
ATOM     20  C   UNL     1       6.690   5.353  16.757  0.00  0.00    +0.000 A 
ATOM     21  C   UNL     1       5.919   6.276  16.039  0.00  0.00    +0.000 A 
ATOM     22  N   UNL     1       5.674   5.859  14.792  0.00  0.00    +0.000 NA
ATOM     23  N   UNL     1       6.287   4.661  14.729  0.00  0.00    +0.000 N 
ATOM     24  C   UNL     1       6.237   3.883  13.515  0.00  0.00    +0.000 C 
ATOM     25  C   UNL     1       6.924   4.314  15.883  0.00  0.00    +0.000 A 
ENDBRANCH  17  20
ENDBRANCH  15  17
ENDBRANCH  14  15
ENDBRANCH   1  14
TORSDOF 8
ENDMDL
MODEL 9
REMARK VINA RESULT:      -6.2      1.894      2.499
REMARK  Name = 
REMARK  11 active torsions:
REMARK  status: ('A' for Active; 'I' for Inactive)
REMARK    1  A    between atoms: C_1  and  O_2
REMARK    2  A    between atoms: O_2  and  C_3
REMARK    3  A    between atoms: C_6  and  C_7
REMARK    4  A    between atoms: C_7  and  C_8
REMARK    5  A    between atoms: C_8  and  C_9
REMARK    6  A    between atoms: C_8  and  O_10
REMARK    7  A    between atoms: C_8  and  C_11
REMARK    8  A    between atoms: C_11  and  N_12
REMARK    9  A    between atoms: N_12  and  S_13
REMARK   10  A    between atoms: S_13  and  C_16
REMARK   11  A    between atoms: N_19  and  C_20
REMARK                            x       y       z     vdW  Elec       q    Type
REMARK                         _______ _______ _______ _____ _____    ______ ____
ROOT
ATOM      1  C   UNL     1       3.794   4.725  19.037  0.00  0.00    +0.000 C 
ATOM      2  C   UNL     1       3.356   4.482  17.587  0.00  0.00    +0.000 C 
ENDROOT
BRANCH   1   3
ATOM      3  O   UNL     1       4.008   3.424  19.644  0.00  0.00    +0.000 OA
ATOM      4  H   UNL     1       4.884   3.415  20.068  0.00  0.00    +0.000 HD
ENDBRANCH   1   3
BRANCH   1   5
ATOM      5  C   UNL     1       2.712   5.420  19.906  0.00  0.00    +0.000 C 
BRANCH   5   9
ATOM      6  C   UNL     1       1.294   9.442  19.072  0.00  0.00    +0.000 A 
ATOM      7  C   UNL     1       1.877   8.676  18.062  0.00  0.00    +0.000 A 
ATOM      8  C   UNL     1       2.343   7.381  18.319  0.00  0.00    +0.000 A 
ATOM      9  C   UNL     1       2.285   6.845  19.608  0.00  0.00    +0.000 A 
ATOM     10  C   UNL     1       1.709   7.627  20.622  0.00  0.00    +0.000 A 
ATOM     11  C   UNL     1       1.212   8.912  20.357  0.00  0.00    +0.000 A 
BRANCH   6  13
ATOM     12  C   UNL     1       0.176  11.436  19.687  0.00  0.00    +0.000 C 
ATOM     13  O   UNL     1       0.881  10.690  18.700  0.00  0.00    +0.000 OA
ENDBRANCH   6  13
ENDBRANCH   5   9
ENDBRANCH   1   5
BRANCH   1  14
ATOM     14  C   UNL     1       5.152   5.455  19.015  0.00  0.00    +0.000 C 
BRANCH  14  15
ATOM     15  N   UNL     1       5.474   5.964  17.662  0.00  0.00    +0.000 NA
ATOM     16  H   UNL     1       5.340   6.977  17.586  0.00  0.00    +0.000 HD
BRANCH  15  17
ATOM     17  S   UNL     1       6.999   5.525  17.090  0.00  0.00    +0.000 S 
ATOM     18  O   UNL     1       7.735   6.745  16.830  0.00  0.00    +0.000 OA
ATOM     19  O   UNL     1       7.517   4.477  17.940  0.00  0.00    +0.000 OA
BRANCH  17  20
ATOM     20  C   UNL     1       6.785   4.804  15.557  0.00  0.00    +0.000 A 
ATOM     21  C   UNL     1       5.920   3.748  15.244  0.00  0.00    +0.000 A 
ATOM     22  N   UNL     1       5.939   3.457  13.938  0.00  0.00    +0.000 NA
ATOM     23  N   UNL     1       6.830   4.330  13.429  0.00  0.00    +0.000 N 
ATOM     24  C   UNL     1       7.132   4.320  12.019  0.00  0.00    +0.000 C 
ATOM     25  C   UNL     1       7.361   5.172  14.361  0.00  0.00    +0.000 A 
ENDBRANCH  17  20
ENDBRANCH  15  17
ENDBRANCH  14  15
ENDBRANCH   1  14
TORSDOF 8
ENDMDL
