MODEL 1
REMARK VINA RESULT:      -7.7      0.000      0.000
REMARK  Name = 
REMARK  6 active torsions:
REMARK  status: ('A' for Active; 'I' for Inactive)
REMARK    1  A    between atoms: C_1  and  O_2
REMARK    2  A    between atoms: O_2  and  C_3
REMARK    3  A    between atoms: C_6  and  O_7
REMARK    4  A    between atoms: O_7  and  C_8
REMARK    5  A    between atoms: C_18  and  O_19
REMARK    6  A    between atoms: C_20  and  O_21
REMARK                            x       y       z     vdW  Elec       q    Type
REMARK                         _______ _______ _______ _____ _____    ______ ____
ROOT
ATOM      1  C   UNL     1       6.728   4.265  15.920  0.00  0.00    +0.000 C 
ATOM      2  C   UNL     1       5.371   4.871  15.561  0.00  0.00    +0.000 C 
ATOM      3  O   UNL     1       4.389   4.534  16.526  0.00  0.00    +0.000 OA
ATOM      4  C   UNL     1       4.655   5.112  17.805  0.00  0.00    +0.000 C 
ATOM      5  C   UNL     1       5.992   4.570  18.361  0.00  0.00    +0.000 C 
ATOM      6  C   UNL     1       7.128   4.751  17.329  0.00  0.00    +0.000 C 
ENDROOT
BRANCH   1   8
ATOM      7  C   UNL     1       7.232   4.988  13.692  0.00  0.00    +0.000 C 
ATOM      8  O   UNL     1       7.737   4.676  14.985  0.00  0.00    +0.000 OA
ENDBRANCH   1   8
BRANCH   5   9
ATOM      9  O   UNL     1       6.346   5.220  19.596  0.00  0.00    +0.000 OA
ATOM     10  H   UNL     1       6.476   4.541  20.280  0.00  0.00    +0.000 HD
ENDBRANCH   5   9
BRANCH   6  11
ATOM     11  O   UNL     1       8.317   4.081  17.780  0.00  0.00    +0.000 OA
ATOM     12  H   UNL     1       8.063   3.230  18.173  0.00  0.00    +0.000 HD
ENDBRANCH   6  11
BRANCH   4  13
ATOM     13  O   UNL     1       3.601   4.777  18.724  0.00  0.00    +0.000 OA
BRANCH  13  14
ATOM     14  C   UNL     1       2.879   5.837  19.208  0.00  0.00    +0.000 A 
ATOM     15  C   UNL     1       2.201   5.846  20.426  0.00  0.00    +0.000 A 
ATOM     16  C   UNL     1       1.502   6.985  20.834  0.00  0.00    +0.000 A 
ATOM     17  C   UNL     1       1.456   8.129  20.027  0.00  0.00    +0.000 A 
ATOM     18  C   UNL     1       0.766   9.279  20.440  0.00  0.00    +0.000 A 
ATOM     19  C   UNL     1       0.722  10.411  19.627  0.00  0.00    +0.000 A 
ATOM     20  C   UNL     1       1.362  10.403  18.391  0.00  0.00    +0.000 A 
ATOM     21  C   UNL     1       2.058   9.267  17.971  0.00  0.00    +0.000 A 
ATOM     22  C   UNL     1       2.116   8.120  18.779  0.00  0.00    +0.000 A 
ATOM     23  C   UNL     1       2.815   6.964  18.381  0.00  0.00    +0.000 A 
ENDBRANCH  13  14
ENDBRANCH   4  13
TORSDOF 5
ENDMDL
MODEL 2
REMARK VINA RESULT:      -7.5      0.913      1.856
REMARK  Name = 
REMARK  6 active torsions:
REMARK  status: ('A' for Active; 'I' for Inactive)
REMARK    1  A    between atoms: C_1  and  O_2
REMARK    2  A    between atoms: O_2  and  C_3
REMARK    3  A    between atoms: C_6  and  O_7
REMARK    4  A    between atoms: O_7  and  C_8
REMARK    5  A    between atoms: C_18  and  O_19
REMARK    6  A    between atoms: C_20  and  O_21
REMARK                            x       y       z     vdW  Elec       q    Type
REMARK                         _______ _______ _______ _____ _____    ______ ____
ROOT
ATOM      1  C   UNL     1       6.664   4.899  15.858  0.00  0.00    +0.000 C 
ATOM      2  C   UNL     1       5.519   5.883  15.616  0.00  0.00    +0.000 C 
ATOM      3  O   UNL     1       4.472   5.689  16.552  0.00  0.00    +0.000 OA
ATOM      4  C   UNL     1       4.866   6.000  17.889  0.00  0.00    +0.000 C 
ATOM      5  C   UNL     1       6.007   5.056  18.335  0.00  0.00    +0.000 C 
ATOM      6  C   UNL     1       7.162   5.069  17.309  0.00  0.00    +0.000 C 
ENDROOT
BRANCH   1   8
ATOM      7  C   UNL     1       7.440   4.934  13.591  0.00  0.00    +0.000 C 
ATOM      8  O   UNL     1       7.757   5.153  14.961  0.00  0.00    +0.000 OA
ENDBRANCH   1   8
BRANCH   5   9
ATOM      9  O   UNL     1       6.506   5.418  19.637  0.00  0.00    +0.000 OA
ATOM     10  H   UNL     1       6.047   4.882  20.307  0.00  0.00    +0.000 HD
ENDBRANCH   5   9
BRANCH   6  11
ATOM     11  O   UNL     1       8.127   4.056  17.638  0.00  0.00    +0.000 OA
ATOM     12  H   UNL     1       8.400   4.177  18.563  0.00  0.00    +0.000 HD
ENDBRANCH   6  11
BRANCH   4  13
ATOM     13  O   UNL     1       3.751   5.833  18.782  0.00  0.00    +0.000 OA
BRANCH  13  14
ATOM     14  C   UNL     1       2.931   6.923  18.915  0.00  0.00    +0.000 A 
ATOM     15  C   UNL     1       2.737   7.896  17.935  0.00  0.00    +0.000 A 
ATOM     16  C   UNL     1       1.867   8.964  18.167  0.00  0.00    +0.000 A 
ATOM     17  C   UNL     1       1.187   9.088  19.385  0.00  0.00    +0.000 A 
ATOM     18  C   UNL     1       0.303  10.153  19.617  0.00  0.00    +0.000 A 
ATOM     19  C   UNL     1      -0.365  10.270  20.835  0.00  0.00    +0.000 A 
ATOM     20  C   UNL     1      -0.152   9.327  21.837  0.00  0.00    +0.000 A 
ATOM     21  C   UNL     1       0.722   8.259  21.617  0.00  0.00    +0.000 A 
ATOM     22  C   UNL     1       1.399   8.123  20.395  0.00  0.00    +0.000 A 
ATOM     23  C   UNL     1       2.280   7.053  20.146  0.00  0.00    +0.000 A 
ENDBRANCH  13  14
ENDBRANCH   4  13
TORSDOF 5
ENDMDL
MODEL 3
REMARK VINA RESULT:      -7.0      1.780      3.095
REMARK  Name = 
REMARK  6 active torsions:
REMARK  status: ('A' for Active; 'I' for Inactive)
REMARK    1  A    between atoms: C_1  and  O_2
REMARK    2  A    between atoms: O_2  and  C_3
REMARK    3  A    between atoms: C_6  and  O_7
REMARK    4  A    between atoms: O_7  and  C_8
REMARK    5  A    between atoms: C_18  and  O_19
REMARK    6  A    between atoms: C_20  and  O_21
REMARK                            x       y       z     vdW  Elec       q    Type
REMARK                         _______ _______ _______ _____ _____    ______ ____
ROOT
ATOM      1  C   UNL     1       6.284   4.834  17.973  0.00  0.00    +0.000 C 
ATOM      2  C   UNL     1       6.074   6.313  17.648  0.00  0.00    +0.000 C 
ATOM      3  O   UNL     1       4.728   6.570  17.286  0.00  0.00    +0.000 OA
ATOM      4  C   UNL     1       3.819   6.362  18.368  0.00  0.00    +0.000 C 
ATOM      5  C   UNL     1       3.857   4.881  18.811  0.00  0.00    +0.000 C 
ATOM      6  C   UNL     1       5.307   4.432  19.099  0.00  0.00    +0.000 C 
ENDROOT
BRANCH   1   8
ATOM      7  C   UNL     1       8.146   5.610  19.266  0.00  0.00    +0.000 C 
ATOM      8  O   UNL     1       7.627   4.592  18.418  0.00  0.00    +0.000 OA
ENDBRANCH   1   8
BRANCH   5   9
ATOM      9  O   UNL     1       3.037   4.662  19.974  0.00  0.00    +0.000 OA
ATOM     10  H   UNL     1       3.328   5.266  20.679  0.00  0.00    +0.000 HD
ENDBRANCH   5   9
BRANCH   6  11
ATOM     11  O   UNL     1       5.350   3.014  19.328  0.00  0.00    +0.000 OA
ATOM     12  H   UNL     1       5.533   2.569  18.484  0.00  0.00    +0.000 HD
ENDBRANCH   6  11
BRANCH   4  13
ATOM     13  O   UNL     1       2.480   6.688  17.955  0.00  0.00    +0.000 OA
BRANCH  13  14
ATOM     14  C   UNL     1       1.947   7.820  18.514  0.00  0.00    +0.000 A 
ATOM     15  C   UNL     1       1.737   9.019  17.834  0.00  0.00    +0.000 A 
ATOM     16  C   UNL     1       1.174  10.113  18.495  0.00  0.00    +0.000 A 
ATOM     17  C   UNL     1       0.825  10.035  19.849  0.00  0.00    +0.000 A 
ATOM     18  C   UNL     1       0.247  11.128  20.513  0.00  0.00    +0.000 A 
ATOM     19  C   UNL     1      -0.092  11.042  21.862  0.00  0.00    +0.000 A 
ATOM     20  C   UNL     1       0.147   9.864  22.564  0.00  0.00    +0.000 A 
ATOM     21  C   UNL     1       0.716   8.766  21.914  0.00  0.00    +0.000 A 
ATOM     22  C   UNL     1       1.059   8.834  20.554  0.00  0.00    +0.000 A 
ATOM     23  C   UNL     1       1.629   7.740  19.874  0.00  0.00    +0.000 A 
ENDBRANCH  13  14
ENDBRANCH   4  13
TORSDOF 5
ENDMDL
MODEL 4
REMARK VINA RESULT:      -6.9      4.173      7.955
REMARK  Name = 
REMARK  6 active torsions:
REMARK  status: ('A' for Active; 'I' for Inactive)
REMARK    1  A    between atoms: C_1  and  O_2
REMARK    2  A    between atoms: O_2  and  C_3
REMARK    3  A    between atoms: C_6  and  O_7
REMARK    4  A    between atoms: O_7  and  C_8
REMARK    5  A    between atoms: C_18  and  O_19
REMARK    6  A    between atoms: C_20  and  O_21
REMARK                            x       y       z     vdW  Elec       q    Type
REMARK                         _______ _______ _______ _____ _____    ______ ____
ROOT
ATOM      1  C   UNL     1      -0.574  11.632  20.083  0.00  0.00    +0.000 C 
ATOM      2  C   UNL     1      -0.510  10.459  19.105  0.00  0.00    +0.000 C 
ATOM      3  O   UNL     1       0.715   9.758  19.228  0.00  0.00    +0.000 OA
ATOM      4  C   UNL     1       0.853   9.109  20.492  0.00  0.00    +0.000 C 
ATOM      5  C   UNL     1       0.857  10.161  21.627  0.00  0.00    +0.000 C 
ATOM      6  C   UNL     1      -0.371  11.092  21.515  0.00  0.00    +0.000 C 
ENDROOT
BRANCH   1   8
ATOM      7  C   UNL     1      -2.697  11.795  18.984  0.00  0.00    +0.000 C 
ATOM      8  O   UNL     1      -1.849  12.290  20.014  0.00  0.00    +0.000 OA
ENDBRANCH   1   8
BRANCH   5   9
ATOM      9  O   UNL     1       0.878   9.532  22.922  0.00  0.00    +0.000 OA
ATOM     10  H   UNL     1       1.733   9.082  23.036  0.00  0.00    +0.000 HD
ENDBRANCH   5   9
BRANCH   6  11
ATOM     11  O   UNL     1      -0.259  12.172  22.456  0.00  0.00    +0.000 OA
ATOM     12  H   UNL     1      -0.107  11.798  23.340  0.00  0.00    +0.000 HD
ENDBRANCH   6  11
BRANCH   4  13
ATOM     13  O   UNL     1       2.088   8.375  20.537  0.00  0.00    +0.000 OA
BRANCH  13  14
ATOM     14  C   UNL     1       2.092   7.180  19.864  0.00  0.00    +0.000 A 
ATOM     15  C   UNL     1       2.479   7.018  18.535  0.00  0.00    +0.000 A 
ATOM     16  C   UNL     1       2.457   5.752  17.945  0.00  0.00    +0.000 A 
ATOM     17  C   UNL     1       2.036   4.628  18.667  0.00  0.00    +0.000 A 
ATOM     18  C   UNL     1       2.026   3.353  18.082  0.00  0.00    +0.000 A 
ATOM     19  C   UNL     1       1.600   2.242  18.807  0.00  0.00    +0.000 A 
ATOM     20  C   UNL     1       1.174   2.394  20.124  0.00  0.00    +0.000 A 
ATOM     21  C   UNL     1       1.185   3.657  20.721  0.00  0.00    +0.000 A 
ATOM     22  C   UNL     1       1.616   4.786  20.006  0.00  0.00    +0.000 A 
ATOM     23  C   UNL     1       1.641   6.069  20.586  0.00  0.00    +0.000 A 
ENDBRANCH  13  14
ENDBRANCH   4  13
TORSDOF 5
ENDMDL
MODEL 5
REMARK VINA RESULT:      -6.9      3.186      6.971
REMARK  Name = 
REMARK  6 active torsions:
REMARK  status: ('A' for Active; 'I' for Inactive)
REMARK    1  A    between atoms: C_1  and  O_2
REMARK    2  A    between atoms: O_2  and  C_3
REMARK    3  A    between atoms: C_6  and  O_7
REMARK    4  A    between atoms: O_7  and  C_8
REMARK    5  A    between atoms: C_18  and  O_19
REMARK    6  A    between atoms: C_20  and  O_21
REMARK                            x       y       z     vdW  Elec       q    Type
REMARK                         _______ _______ _______ _____ _____    ______ ____
ROOT
ATOM      1  C   UNL     1       1.779   3.997  19.629  0.00  0.00    +0.000 C 
ATOM      2  C   UNL     1       1.768   4.666  18.254  0.00  0.00    +0.000 C 
ATOM      3  O   UNL     1       2.940   5.437  18.052  0.00  0.00    +0.000 OA
ATOM      4  C   UNL     1       4.121   4.637  17.994  0.00  0.00    +0.000 C 
ATOM      5  C   UNL     1       4.329   3.906  19.341  0.00  0.00    +0.000 C 
ATOM      6  C   UNL     1       3.053   3.135  19.749  0.00  0.00    +0.000 C 
ENDROOT
BRANCH   1   8
ATOM      7  C   UNL     1       0.529   2.117  18.826  0.00  0.00    +0.000 C 
ATOM      8  O   UNL     1       0.630   3.152  19.798  0.00  0.00    +0.000 OA
ENDBRANCH   1   8
BRANCH   5   9
ATOM      9  O   UNL     1       5.447   3.001  19.278  0.00  0.00    +0.000 OA
ATOM     10  H   UNL     1       5.150   2.117  19.556  0.00  0.00    +0.000 HD
ENDBRANCH   5   9
BRANCH   6  11
ATOM     11  O   UNL     1       3.193   2.616  21.081  0.00  0.00    +0.000 OA
ATOM     12  H   UNL     1       2.501   3.007  21.640  0.00  0.00    +0.000 HD
ENDBRANCH   6  11
BRANCH   4  13
ATOM     13  O   UNL     1       5.266   5.468  17.737  0.00  0.00    +0.000 OA
BRANCH  13  14
ATOM     14  C   UNL     1       5.885   5.266  16.530  0.00  0.00    +0.000 A 
ATOM     15  C   UNL     1       7.156   5.736  16.201  0.00  0.00    +0.000 A 
ATOM     16  C   UNL     1       7.702   5.464  14.944  0.00  0.00    +0.000 A 
ATOM     17  C   UNL     1       6.984   4.733  13.990  0.00  0.00    +0.000 A 
ATOM     18  C   UNL     1       7.535   4.447  12.731  0.00  0.00    +0.000 A 
ATOM     19  C   UNL     1       6.811   3.722  11.786  0.00  0.00    +0.000 A 
ATOM     20  C   UNL     1       5.525   3.280  12.087  0.00  0.00    +0.000 A 
ATOM     21  C   UNL     1       4.967   3.552  13.339  0.00  0.00    +0.000 A 
ATOM     22  C   UNL     1       5.685   4.277  14.304  0.00  0.00    +0.000 A 
ATOM     23  C   UNL     1       5.148   4.560  15.574  0.00  0.00    +0.000 A 
ENDBRANCH  13  14
ENDBRANCH   4  13
TORSDOF 5
ENDMDL
MODEL 6
REMARK VINA RESULT:      -6.8      2.637      4.103
REMARK  Name = 
REMARK  6 active torsions:
REMARK  status: ('A' for Active; 'I' for Inactive)
REMARK    1  A    between atoms: C_1  and  O_2
REMARK    2  A    between atoms: O_2  and  C_3
REMARK    3  A    between atoms: C_6  and  O_7
REMARK    4  A    between atoms: O_7  and  C_8
REMARK    5  A    between atoms: C_18  and  O_19
REMARK    6  A    between atoms: C_20  and  O_21
REMARK                            x       y       z     vdW  Elec       q    Type
REMARK                         _______ _______ _______ _____ _____    ______ ____
ROOT
ATOM      1  C   UNL     1       4.148   2.733  18.650  0.00  0.00    +0.000 C 
ATOM      2  C   UNL     1       4.639   3.948  19.437  0.00  0.00    +0.000 C 
ATOM      3  O   UNL     1       4.498   5.138  18.681  0.00  0.00    +0.000 OA
ATOM      4  C   UNL     1       3.132   5.470  18.428  0.00  0.00    +0.000 C 
ATOM      5  C   UNL     1       2.467   4.357  17.584  0.00  0.00    +0.000 C 
ATOM      6  C   UNL     1       2.680   2.973  18.239  0.00  0.00    +0.000 C 
ENDROOT
BRANCH   1   8
ATOM      7  C   UNL     1       4.713   1.757  20.764  0.00  0.00    +0.000 C 
ATOM      8  O   UNL     1       4.215   1.542  19.449  0.00  0.00    +0.000 OA
ENDBRANCH   1   8
BRANCH   5   9
ATOM      9  O   UNL     1       1.060   4.604  17.409  0.00  0.00    +0.000 OA
ATOM     10  H   UNL     1       0.608   3.753  17.277  0.00  0.00    +0.000 HD
ENDBRANCH   5   9
BRANCH   6  11
ATOM     11  O   UNL     1       2.221   1.934  17.358  0.00  0.00    +0.000 OA
ATOM     12  H   UNL     1       1.268   2.054  17.207  0.00  0.00    +0.000 HD
ENDBRANCH   6  11
BRANCH   4  13
ATOM     13  O   UNL     1       3.053   6.709  17.704  0.00  0.00    +0.000 OA
BRANCH  13  14
ATOM     14  C   UNL     1       2.327   7.703  18.308  0.00  0.00    +0.000 A 
ATOM     15  C   UNL     1       1.829   8.831  17.657  0.00  0.00    +0.000 A 
ATOM     16  C   UNL     1       1.088   9.781  18.365  0.00  0.00    +0.000 A 
ATOM     17  C   UNL     1       0.843   9.629  19.735  0.00  0.00    +0.000 A 
ATOM     18  C   UNL     1       0.087  10.574  20.445  0.00  0.00    +0.000 A 
ATOM     19  C   UNL     1      -0.147  10.416  21.810  0.00  0.00    +0.000 A 
ATOM     20  C   UNL     1       0.376   9.314  22.481  0.00  0.00    +0.000 A 
ATOM     21  C   UNL     1       1.125   8.362  21.785  0.00  0.00    +0.000 A 
ATOM     22  C   UNL     1       1.366   8.503  20.409  0.00  0.00    +0.000 A 
ATOM     23  C   UNL     1       2.113   7.556  19.682  0.00  0.00    +0.000 A 
ENDBRANCH  13  14
ENDBRANCH   4  13
TORSDOF 5
ENDMDL
MODEL 7
REMARK VINA RESULT:      -6.8      2.745      4.312
REMARK  Name = 
REMARK  6 active torsions:
REMARK  status: ('A' for Active; 'I' for Inactive)
REMARK    1  A    between atoms: C_1  and  O_2
REMARK    2  A    between atoms: O_2  and  C_3
REMARK    3  A    between atoms: C_6  and  O_7
REMARK    4  A    between atoms: O_7  and  C_8
REMARK    5  A    between atoms: C_18  and  O_19
REMARK    6  A    between atoms: C_20  and  O_21
REMARK                            x       y       z     vdW  Elec       q    Type
REMARK                         _______ _______ _______ _____ _____    ______ ____
ROOT
ATOM      1  C   UNL     1       6.674   3.885  13.651  0.00  0.00    +0.000 C 
ATOM      2  C   UNL     1       5.327   3.616  14.322  0.00  0.00    +0.000 C 
ATOM      3  O   UNL     1       5.451   3.611  15.733  0.00  0.00    +0.000 OA
ATOM      4  C   UNL     1       5.804   4.892  16.258  0.00  0.00    +0.000 C 
ATOM      5  C   UNL     1       7.189   5.319  15.718  0.00  0.00    +0.000 C 
ATOM      6  C   UNL     1       7.228   5.227  14.176  0.00  0.00    +0.000 C 
ENDROOT
BRANCH   1   8
ATOM      7  C   UNL     1       5.469   3.178  11.704  0.00  0.00    +0.000 C 
ATOM      8  O   UNL     1       6.530   3.971  12.225  0.00  0.00    +0.000 OA
ENDBRANCH   1   8
BRANCH   5   9
ATOM      9  O   UNL     1       7.524   6.656  16.136  0.00  0.00    +0.000 OA
ATOM     10  H   UNL     1       6.712   7.192  16.144  0.00  0.00    +0.000 HD
ENDBRANCH   5   9
BRANCH   6  11
ATOM     11  O   UNL     1       8.567   5.446  13.701  0.00  0.00    +0.000 OA
ATOM     12  H   UNL     1       8.889   4.625  13.294  0.00  0.00    +0.000 HD
ENDBRANCH   6  11
BRANCH   4  13
ATOM     13  O   UNL     1       5.865   4.835  17.694  0.00  0.00    +0.000 OA
BRANCH  13  14
ATOM     14  C   UNL     1       4.659   4.702  18.332  0.00  0.00    +0.000 A 
ATOM     15  C   UNL     1       3.536   5.490  18.083  0.00  0.00    +0.000 A 
ATOM     16  C   UNL     1       2.348   5.264  18.783  0.00  0.00    +0.000 A 
ATOM     17  C   UNL     1       2.264   4.257  19.752  0.00  0.00    +0.000 A 
ATOM     18  C   UNL     1       1.069   4.018  20.447  0.00  0.00    +0.000 A 
ATOM     19  C   UNL     1       0.997   3.017  21.415  0.00  0.00    +0.000 A 
ATOM     20  C   UNL     1       2.121   2.247  21.702  0.00  0.00    +0.000 A 
ATOM     21  C   UNL     1       3.316   2.470  21.013  0.00  0.00    +0.000 A 
ATOM     22  C   UNL     1       3.405   3.471  20.032  0.00  0.00    +0.000 A 
ATOM     23  C   UNL     1       4.595   3.713  19.320  0.00  0.00    +0.000 A 
ENDBRANCH  13  14
ENDBRANCH   4  13
TORSDOF 5
ENDMDL
MODEL 8
REMARK VINA RESULT:      -6.6      2.113      7.167
REMARK  Name = 
REMARK  6 active torsions:
REMARK  status: ('A' for Active; 'I' for Inactive)
REMARK    1  A    between atoms: C_1  and  O_2
REMARK    2  A    between atoms: O_2  and  C_3
REMARK    3  A    between atoms: C_6  and  O_7
REMARK    4  A    between atoms: O_7  and  C_8
REMARK    5  A    between atoms: C_18  and  O_19
REMARK    6  A    between atoms: C_20  and  O_21
REMARK                            x       y       z     vdW  Elec       q    Type
REMARK                         _______ _______ _______ _____ _____    ______ ____
ROOT
ATOM      1  C   UNL     1       2.076   5.624  20.437  0.00  0.00    +0.000 C 
ATOM      2  C   UNL     1       3.126   6.336  19.584  0.00  0.00    +0.000 C 
ATOM      3  O   UNL     1       4.157   5.446  19.192  0.00  0.00    +0.000 OA
ATOM      4  C   UNL     1       3.693   4.421  18.313  0.00  0.00    +0.000 C 
ATOM      5  C   UNL     1       2.637   3.548  19.032  0.00  0.00    +0.000 C 
ATOM      6  C   UNL     1       1.519   4.427  19.636  0.00  0.00    +0.000 C 
ENDROOT
BRANCH   1   8
ATOM      7  C   UNL     1       1.393   7.855  20.979  0.00  0.00    +0.000 C 
ATOM      8  O   UNL     1       0.992   6.507  20.762  0.00  0.00    +0.000 OA
ENDBRANCH   1   8
BRANCH   5   9
ATOM      9  O   UNL     1       2.064   2.577  18.137  0.00  0.00    +0.000 OA
ATOM     10  H   UNL     1       2.376   2.763  17.234  0.00  0.00    +0.000 HD
ENDBRANCH   5   9
BRANCH   6  11
ATOM     11  O   UNL     1       0.648   3.628  20.454  0.00  0.00    +0.000 OA
ATOM     12  H   UNL     1      -0.046   3.249  19.888  0.00  0.00    +0.000 HD
ENDBRANCH   6  11
BRANCH   4  13
ATOM     13  O   UNL     1       4.790   3.582  17.912  0.00  0.00    +0.000 OA
BRANCH  13  14
ATOM     14  C   UNL     1       5.557   4.064  16.883  0.00  0.00    +0.000 A 
ATOM     15  C   UNL     1       6.559   5.023  17.020  0.00  0.00    +0.000 A 
ATOM     16  C   UNL     1       7.293   5.438  15.905  0.00  0.00    +0.000 A 
ATOM     17  C   UNL     1       7.030   4.913  14.634  0.00  0.00    +0.000 A 
ATOM     18  C   UNL     1       7.775   5.317  13.515  0.00  0.00    +0.000 A 
ATOM     19  C   UNL     1       7.502   4.792  12.253  0.00  0.00    +0.000 A 
ATOM     20  C   UNL     1       6.479   3.862  12.094  0.00  0.00    +0.000 A 
ATOM     21  C   UNL     1       5.734   3.446  13.201  0.00  0.00    +0.000 A 
ATOM     22  C   UNL     1       5.998   3.961  14.480  0.00  0.00    +0.000 A 
ATOM     23  C   UNL     1       5.267   3.554  15.612  0.00  0.00    +0.000 A 
ENDBRANCH  13  14
ENDBRANCH   4  13
TORSDOF 5
ENDMDL
MODEL 9
REMARK VINA RESULT:      -6.5      2.913      4.186
REMARK  Name = 
REMARK  6 active torsions:
REMARK  status: ('A' for Active; 'I' for Inactive)
REMARK    1  A    between atoms: C_1  and  O_2
REMARK    2  A    between atoms: O_2  and  C_3
REMARK    3  A    between atoms: C_6  and  O_7
REMARK    4  A    between atoms: O_7  and  C_8
REMARK    5  A    between atoms: C_18  and  O_19
REMARK    6  A    between atoms: C_20  and  O_21
REMARK                            x       y       z     vdW  Elec       q    Type
REMARK                         _______ _______ _______ _____ _____    ______ ____
ROOT
ATOM      1  C   UNL     1       6.906   3.919  13.545  0.00  0.00    +0.000 C 
ATOM      2  C   UNL     1       5.634   3.430  14.237  0.00  0.00    +0.000 C 
ATOM      3  O   UNL     1       5.820   3.332  15.639  0.00  0.00    +0.000 OA
ATOM      4  C   UNL     1       6.034   4.602  16.255  0.00  0.00    +0.000 C 
ATOM      5  C   UNL     1       7.329   5.244  15.704  0.00  0.00    +0.000 C 
ATOM      6  C   UNL     1       7.311   5.276  14.159  0.00  0.00    +0.000 C 
ENDROOT
BRANCH   1   8
ATOM      7  C   UNL     1       5.597   3.342  11.623  0.00  0.00    +0.000 C 
ATOM      8  O   UNL     1       6.689   4.096  12.136  0.00  0.00    +0.000 OA
ENDBRANCH   1   8
BRANCH   5   9
ATOM      9  O   UNL     1       7.513   6.576  16.219  0.00  0.00    +0.000 OA
ATOM     10  H   UNL     1       6.650   7.027  16.232  0.00  0.00    +0.000 HD
ENDBRANCH   5   9
BRANCH   6  11
ATOM     11  O   UNL     1       8.589   5.701  13.658  0.00  0.00    +0.000 OA
ATOM     12  H   UNL     1       8.504   5.882  12.707  0.00  0.00    +0.000 HD
ENDBRANCH   6  11
BRANCH   4  13
ATOM     13  O   UNL     1       6.165   4.444  17.678  0.00  0.00    +0.000 OA
BRANCH  13  14
ATOM     14  C   UNL     1       4.991   4.463  18.386  0.00  0.00    +0.000 A 
ATOM     15  C   UNL     1       4.655   5.422  19.340  0.00  0.00    +0.000 A 
ATOM     16  C   UNL     1       3.424   5.357  19.999  0.00  0.00    +0.000 A 
ATOM     17  C   UNL     1       2.515   4.328  19.727  0.00  0.00    +0.000 A 
ATOM     18  C   UNL     1       1.272   4.268  20.376  0.00  0.00    +0.000 A 
ATOM     19  C   UNL     1       0.376   3.236  20.102  0.00  0.00    +0.000 A 
ATOM     20  C   UNL     1       0.714   2.249  19.179  0.00  0.00    +0.000 A 
ATOM     21  C   UNL     1       1.945   2.301  18.521  0.00  0.00    +0.000 A 
ATOM     22  C   UNL     1       2.858   3.336  18.781  0.00  0.00    +0.000 A 
ATOM     23  C   UNL     1       4.102   3.413  18.127  0.00  0.00    +0.000 A 
ENDBRANCH  13  14
ENDBRANCH   4  13
TORSDOF 5
ENDMDL
