MODEL 1
REMARK VINA RESULT:      -7.3      0.000      0.000
REMARK  Name = 
REMARK  4 active torsions:
REMARK  status: ('A' for Active; 'I' for Inactive)
REMARK    1  A    between atoms: C_1  and  C_2
REMARK    2  A    between atoms: C_5  and  N_6
REMARK    3  A    between atoms: C_7  and  C_8
REMARK    4  A    between atoms: C_13  and  O_14
REMARK                            x       y       z     vdW  Elec       q    Type
REMARK                         _______ _______ _______ _____ _____    ______ ____
ROOT
ATOM      1  N   UNL     1       4.872   5.042  16.244  0.00  0.00    +0.000 NA
ATOM      2  C   UNL     1       5.377   4.011  15.644  0.00  0.00    +0.000 C 
ENDROOT
BRANCH   1   7
ATOM      3  C   UNL     1       1.817   4.469  21.069  0.00  0.00    +0.000 C 
ATOM      4  C   UNL     1       2.630   4.599  19.811  0.00  0.00    +0.000 A 
ATOM      5  C   UNL     1       3.620   5.589  19.731  0.00  0.00    +0.000 A 
ATOM      6  C   UNL     1       4.385   5.751  18.568  0.00  0.00    +0.000 A 
ATOM      7  C   UNL     1       4.192   4.918  17.465  0.00  0.00    +0.000 A 
ATOM      8  C   UNL     1       3.200   3.936  17.541  0.00  0.00    +0.000 A 
ATOM      9  C   UNL     1       2.427   3.775  18.696  0.00  0.00    +0.000 A 
ATOM     10 BR   UNL     1       1.098   2.416  18.678  0.00  0.00    +0.000 Br
ENDBRANCH   1   7
BRANCH   2  11
ATOM     11  C   UNL     1       6.066   4.160  14.340  0.00  0.00    +0.000 A 
ATOM     12  C   UNL     1       5.604   3.438  13.231  0.00  0.00    +0.000 A 
ATOM     13  C   UNL     1       6.244   3.553  11.998  0.00  0.00    +0.000 A 
ATOM     14  C   UNL     1       7.347   4.393  11.864  0.00  0.00    +0.000 A 
ATOM     15  C   UNL     1       7.816   5.117  12.963  0.00  0.00    +0.000 A 
ATOM     16  C   UNL     1       7.175   5.000  14.200  0.00  0.00    +0.000 A 
BRANCH  16  17
ATOM     17  O   UNL     1       7.640   5.714  15.271  0.00  0.00    +0.000 OA
ATOM     18  H   UNL     1       8.044   6.535  14.949  0.00  0.00    +0.000 HD
ENDBRANCH  16  17
ENDBRANCH   2  11
TORSDOF 3
ENDMDL
MODEL 2
REMARK VINA RESULT:      -7.1      2.712      6.944
REMARK  Name = 
REMARK  4 active torsions:
REMARK  status: ('A' for Active; 'I' for Inactive)
REMARK    1  A    between atoms: C_1  and  C_2
REMARK    2  A    between atoms: C_5  and  N_6
REMARK    3  A    between atoms: C_7  and  C_8
REMARK    4  A    between atoms: C_13  and  O_14
REMARK                            x       y       z     vdW  Elec       q    Type
REMARK                         _______ _______ _______ _____ _____    ______ ____
ROOT
ATOM      1  N   UNL     1       4.703   3.661  17.354  0.00  0.00    +0.000 NA
ATOM      2  C   UNL     1       4.039   4.478  18.107  0.00  0.00    +0.000 C 
ENDROOT
BRANCH   1   7
ATOM      3  C   UNL     1       7.973   5.259  12.916  0.00  0.00    +0.000 C 
ATOM      4  C   UNL     1       7.099   4.855  14.071  0.00  0.00    +0.000 A 
ATOM      5  C   UNL     1       7.399   5.325  15.358  0.00  0.00    +0.000 A 
ATOM      6  C   UNL     1       6.617   4.957  16.460  0.00  0.00    +0.000 A 
ATOM      7  C   UNL     1       5.509   4.124  16.302  0.00  0.00    +0.000 A 
ATOM      8  C   UNL     1       5.213   3.648  15.022  0.00  0.00    +0.000 A 
ATOM      9  C   UNL     1       5.995   4.006  13.918  0.00  0.00    +0.000 A 
ATOM     10 BR   UNL     1       5.506   3.286  12.227  0.00  0.00    +0.000 Br
ENDBRANCH   1   7
BRANCH   2  11
ATOM     11  C   UNL     1       3.171   3.965  19.195  0.00  0.00    +0.000 A 
ATOM     12  C   UNL     1       1.891   4.511  19.367  0.00  0.00    +0.000 A 
ATOM     13  C   UNL     1       1.063   4.053  20.391  0.00  0.00    +0.000 A 
ATOM     14  C   UNL     1       1.506   3.046  21.245  0.00  0.00    +0.000 A 
ATOM     15  C   UNL     1       2.780   2.497  21.081  0.00  0.00    +0.000 A 
ATOM     16  C   UNL     1       3.611   2.957  20.056  0.00  0.00    +0.000 A 
BRANCH  16  17
ATOM     17  O   UNL     1       4.857   2.412  19.902  0.00  0.00    +0.000 OA
ATOM     18  H   UNL     1       5.091   1.929  20.711  0.00  0.00    +0.000 HD
ENDBRANCH  16  17
ENDBRANCH   2  11
TORSDOF 3
ENDMDL
MODEL 3
REMARK VINA RESULT:      -7.0      2.751      6.964
REMARK  Name = 
REMARK  4 active torsions:
REMARK  status: ('A' for Active; 'I' for Inactive)
REMARK    1  A    between atoms: C_1  and  C_2
REMARK    2  A    between atoms: C_5  and  N_6
REMARK    3  A    between atoms: C_7  and  C_8
REMARK    4  A    between atoms: C_13  and  O_14
REMARK                            x       y       z     vdW  Elec       q    Type
REMARK                         _______ _______ _______ _____ _____    ______ ____
ROOT
ATOM      1  N   UNL     1       4.607   3.878  17.258  0.00  0.00    +0.000 NA
ATOM      2  C   UNL     1       3.478   4.471  17.481  0.00  0.00    +0.000 C 
ENDROOT
BRANCH   1   7
ATOM      3  C   UNL     1       8.046   5.229  12.866  0.00  0.00    +0.000 C 
ATOM      4  C   UNL     1       7.129   4.890  14.008  0.00  0.00    +0.000 A 
ATOM      5  C   UNL     1       7.383   5.427  15.278  0.00  0.00    +0.000 A 
ATOM      6  C   UNL     1       6.559   5.120  16.369  0.00  0.00    +0.000 A 
ATOM      7  C   UNL     1       5.453   4.283  16.214  0.00  0.00    +0.000 A 
ATOM      8  C   UNL     1       5.204   3.740  14.950  0.00  0.00    +0.000 A 
ATOM      9  C   UNL     1       6.027   4.037  13.859  0.00  0.00    +0.000 A 
ATOM     10 BR   UNL     1       5.598   3.230  12.192  0.00  0.00    +0.000 Br
ENDBRANCH   1   7
BRANCH   2  11
ATOM     11  C   UNL     1       2.586   4.008  18.571  0.00  0.00    +0.000 A 
ATOM     12  C   UNL     1       2.211   4.906  19.580  0.00  0.00    +0.000 A 
ATOM     13  C   UNL     1       1.384   4.490  20.622  0.00  0.00    +0.000 A 
ATOM     14  C   UNL     1       0.922   3.176  20.660  0.00  0.00    +0.000 A 
ATOM     15  C   UNL     1       1.290   2.274  19.659  0.00  0.00    +0.000 A 
ATOM     16  C   UNL     1       2.122   2.691  18.616  0.00  0.00    +0.000 A 
BRANCH  16  17
ATOM     17  O   UNL     1       2.476   1.801  17.639  0.00  0.00    +0.000 OA
ATOM     18  H   UNL     1       3.301   2.100  17.225  0.00  0.00    +0.000 HD
ENDBRANCH  16  17
ENDBRANCH   2  11
TORSDOF 3
ENDMDL
MODEL 4
REMARK VINA RESULT:      -7.0      1.108      1.110
REMARK  Name = 
REMARK  4 active torsions:
REMARK  status: ('A' for Active; 'I' for Inactive)
REMARK    1  A    between atoms: C_1  and  C_2
REMARK    2  A    between atoms: C_5  and  N_6
REMARK    3  A    between atoms: C_7  and  C_8
REMARK    4  A    between atoms: C_13  and  O_14
REMARK                            x       y       z     vdW  Elec       q    Type
REMARK                         _______ _______ _______ _____ _____    ______ ____
ROOT
ATOM      1  N   UNL     1       4.923   5.143  16.277  0.00  0.00    +0.000 NA
ATOM      2  C   UNL     1       5.409   4.098  15.687  0.00  0.00    +0.000 C 
ENDROOT
BRANCH   1   7
ATOM      3  C   UNL     1       2.143   4.421  21.246  0.00  0.00    +0.000 C 
ATOM      4  C   UNL     1       2.891   4.616  19.956  0.00  0.00    +0.000 A 
ATOM      5  C   UNL     1       2.641   5.758  19.182  0.00  0.00    +0.000 A 
ATOM      6  C   UNL     1       3.307   5.965  17.966  0.00  0.00    +0.000 A 
ATOM      7  C   UNL     1       4.250   5.045  17.504  0.00  0.00    +0.000 A 
ATOM      8  C   UNL     1       4.494   3.903  18.271  0.00  0.00    +0.000 A 
ATOM      9  C   UNL     1       3.827   3.687  19.482  0.00  0.00    +0.000 A 
ATOM     10 BR   UNL     1       4.230   2.090  20.432  0.00  0.00    +0.000 Br
ENDBRANCH   1   7
BRANCH   2  11
ATOM     11  C   UNL     1       6.091   4.220  14.376  0.00  0.00    +0.000 A 
ATOM     12  C   UNL     1       5.617   3.481  13.284  0.00  0.00    +0.000 A 
ATOM     13  C   UNL     1       6.250   3.571  12.045  0.00  0.00    +0.000 A 
ATOM     14  C   UNL     1       7.358   4.402  11.889  0.00  0.00    +0.000 A 
ATOM     15  C   UNL     1       7.837   5.142  12.972  0.00  0.00    +0.000 A 
ATOM     16  C   UNL     1       7.203   5.050  14.215  0.00  0.00    +0.000 A 
BRANCH  16  17
ATOM     17  O   UNL     1       7.679   5.780  15.270  0.00  0.00    +0.000 OA
ATOM     18  H   UNL     1       7.987   6.641  14.943  0.00  0.00    +0.000 HD
ENDBRANCH  16  17
ENDBRANCH   2  11
TORSDOF 3
ENDMDL
MODEL 5
REMARK VINA RESULT:      -6.9      2.595      6.824
REMARK  Name = 
REMARK  4 active torsions:
REMARK  status: ('A' for Active; 'I' for Inactive)
REMARK    1  A    between atoms: C_1  and  C_2
REMARK    2  A    between atoms: C_5  and  N_6
REMARK    3  A    between atoms: C_7  and  C_8
REMARK    4  A    between atoms: C_13  and  O_14
REMARK                            x       y       z     vdW  Elec       q    Type
REMARK                         _______ _______ _______ _____ _____    ______ ____
ROOT
ATOM      1  N   UNL     1       4.703   4.083  17.335  0.00  0.00    +0.000 NA
ATOM      2  C   UNL     1       3.482   4.503  17.425  0.00  0.00    +0.000 C 
ENDROOT
BRANCH   1   7
ATOM      3  C   UNL     1       7.980   5.146  12.744  0.00  0.00    +0.000 C 
ATOM      4  C   UNL     1       7.105   4.882  13.938  0.00  0.00    +0.000 A 
ATOM      5  C   UNL     1       7.447   5.441  15.179  0.00  0.00    +0.000 A 
ATOM      6  C   UNL     1       6.664   5.203  16.316  0.00  0.00    +0.000 A 
ATOM      7  C   UNL     1       5.514   4.417  16.239  0.00  0.00    +0.000 A 
ATOM      8  C   UNL     1       5.176   3.853  15.006  0.00  0.00    +0.000 A 
ATOM      9  C   UNL     1       5.958   4.081  13.867  0.00  0.00    +0.000 A 
ATOM     10 BR   UNL     1       5.408   3.251  12.248  0.00  0.00    +0.000 Br
ENDBRANCH   1   7
BRANCH   2  11
ATOM     11  C   UNL     1       2.633   4.114  18.577  0.00  0.00    +0.000 A 
ATOM     12  C   UNL     1       1.634   3.148  18.398  0.00  0.00    +0.000 A 
ATOM     13  C   UNL     1       0.815   2.775  19.463  0.00  0.00    +0.000 A 
ATOM     14  C   UNL     1       0.993   3.362  20.714  0.00  0.00    +0.000 A 
ATOM     15  C   UNL     1       1.986   4.326  20.902  0.00  0.00    +0.000 A 
ATOM     16  C   UNL     1       2.805   4.701  19.833  0.00  0.00    +0.000 A 
BRANCH  16  17
ATOM     17  O   UNL     1       3.777   5.645  20.027  0.00  0.00    +0.000 OA
ATOM     18  H   UNL     1       3.984   6.062  19.175  0.00  0.00    +0.000 HD
ENDBRANCH  16  17
ENDBRANCH   2  11
TORSDOF 3
ENDMDL
MODEL 6
REMARK VINA RESULT:      -6.9      1.331      1.726
REMARK  Name = 
REMARK  4 active torsions:
REMARK  status: ('A' for Active; 'I' for Inactive)
REMARK    1  A    between atoms: C_1  and  C_2
REMARK    2  A    between atoms: C_5  and  N_6
REMARK    3  A    between atoms: C_7  and  C_8
REMARK    4  A    between atoms: C_13  and  O_14
REMARK                            x       y       z     vdW  Elec       q    Type
REMARK                         _______ _______ _______ _____ _____    ______ ____
ROOT
ATOM      1  N   UNL     1       4.468   4.255  16.251  0.00  0.00    +0.000 NA
ATOM      2  C   UNL     1       5.483   3.587  15.803  0.00  0.00    +0.000 C 
ENDROOT
BRANCH   1   7
ATOM      3  C   UNL     1       1.786   2.891  21.139  0.00  0.00    +0.000 C 
ATOM      4  C   UNL     1       2.468   3.253  19.848  0.00  0.00    +0.000 A 
ATOM      5  C   UNL     1       3.012   2.237  19.049  0.00  0.00    +0.000 A 
ATOM      6  C   UNL     1       3.669   2.537  17.849  0.00  0.00    +0.000 A 
ATOM      7  C   UNL     1       3.782   3.857  17.409  0.00  0.00    +0.000 A 
ATOM      8  C   UNL     1       3.247   4.871  18.208  0.00  0.00    +0.000 A 
ATOM      9  C   UNL     1       2.597   4.578  19.412  0.00  0.00    +0.000 A 
ATOM     10 BR   UNL     1       1.921   6.040  20.421  0.00  0.00    +0.000 Br
ENDBRANCH   1   7
BRANCH   2  11
ATOM     11  C   UNL     1       6.175   4.008  14.562  0.00  0.00    +0.000 A 
ATOM     12  C   UNL     1       5.861   3.374  13.352  0.00  0.00    +0.000 A 
ATOM     13  C   UNL     1       6.508   3.745  12.174  0.00  0.00    +0.000 A 
ATOM     14  C   UNL     1       7.468   4.754  12.196  0.00  0.00    +0.000 A 
ATOM     15  C   UNL     1       7.787   5.392  13.397  0.00  0.00    +0.000 A 
ATOM     16  C   UNL     1       7.140   5.018  14.579  0.00  0.00    +0.000 A 
BRANCH  16  17
ATOM     17  O   UNL     1       7.458   5.650  15.750  0.00  0.00    +0.000 OA
ATOM     18  H   UNL     1       7.615   4.981  16.436  0.00  0.00    +0.000 HD
ENDBRANCH  16  17
ENDBRANCH   2  11
TORSDOF 3
ENDMDL
MODEL 7
REMARK VINA RESULT:      -6.7      2.868      7.003
REMARK  Name = 
REMARK  4 active torsions:
REMARK  status: ('A' for Active; 'I' for Inactive)
REMARK    1  A    between atoms: C_1  and  C_2
REMARK    2  A    between atoms: C_5  and  N_6
REMARK    3  A    between atoms: C_7  and  C_8
REMARK    4  A    between atoms: C_13  and  O_14
REMARK                            x       y       z     vdW  Elec       q    Type
REMARK                         _______ _______ _______ _____ _____    ______ ____
ROOT
ATOM      1  N   UNL     1       4.690   3.660  17.248  0.00  0.00    +0.000 NA
ATOM      2  C   UNL     1       3.749   4.393  17.754  0.00  0.00    +0.000 C 
ENDROOT
BRANCH   1   7
ATOM      3  C   UNL     1       8.037   5.299  12.883  0.00  0.00    +0.000 C 
ATOM      4  C   UNL     1       7.143   4.884  14.019  0.00  0.00    +0.000 A 
ATOM      5  C   UNL     1       7.392   5.379  15.307  0.00  0.00    +0.000 A 
ATOM      6  C   UNL     1       6.590   5.001  16.392  0.00  0.00    +0.000 A 
ATOM      7  C   UNL     1       5.511   4.134  16.213  0.00  0.00    +0.000 A 
ATOM      8  C   UNL     1       5.267   3.633  14.932  0.00  0.00    +0.000 A 
ATOM      9  C   UNL     1       6.069   4.001  13.845  0.00  0.00    +0.000 A 
ATOM     10 BR   UNL     1       5.650   3.246  12.152  0.00  0.00    +0.000 Br
ENDBRANCH   1   7
BRANCH   2  11
ATOM     11  C   UNL     1       2.874   3.862  18.826  0.00  0.00    +0.000 A 
ATOM     12  C   UNL     1       3.430   3.543  20.072  0.00  0.00    +0.000 A 
ATOM     13  C   UNL     1       2.629   3.031  21.092  0.00  0.00    +0.000 A 
ATOM     14  C   UNL     1       1.266   2.838  20.873  0.00  0.00    +0.000 A 
ATOM     15  C   UNL     1       0.703   3.152  19.634  0.00  0.00    +0.000 A 
ATOM     16  C   UNL     1       1.507   3.664  18.612  0.00  0.00    +0.000 A 
BRANCH  16  17
ATOM     17  O   UNL     1       0.946   3.971  17.402  0.00  0.00    +0.000 OA
ATOM     18  H   UNL     1       0.168   3.408  17.265  0.00  0.00    +0.000 HD
ENDBRANCH  16  17
ENDBRANCH   2  11
TORSDOF 3
ENDMDL
MODEL 8
REMARK VINA RESULT:      -6.5      2.059      2.280
REMARK  Name = 
REMARK  4 active torsions:
REMARK  status: ('A' for Active; 'I' for Inactive)
REMARK    1  A    between atoms: C_1  and  C_2
REMARK    2  A    between atoms: C_5  and  N_6
REMARK    3  A    between atoms: C_7  and  C_8
REMARK    4  A    between atoms: C_13  and  O_14
REMARK                            x       y       z     vdW  Elec       q    Type
REMARK                         _______ _______ _______ _____ _____    ______ ____
ROOT
ATOM      1  N   UNL     1       4.870   5.857  16.222  0.00  0.00    +0.000 NA
ATOM      2  C   UNL     1       4.942   4.688  15.670  0.00  0.00    +0.000 C 
ENDROOT
BRANCH   1   7
ATOM      3  C   UNL     1       1.690   7.104  20.834  0.00  0.00    +0.000 C 
ATOM      4  C   UNL     1       2.503   6.771  19.614  0.00  0.00    +0.000 A 
ATOM      5  C   UNL     1       3.272   5.598  19.599  0.00  0.00    +0.000 A 
ATOM      6  C   UNL     1       4.055   5.264  18.486  0.00  0.00    +0.000 A 
ATOM      7  C   UNL     1       4.076   6.084  17.357  0.00  0.00    +0.000 A 
ATOM      8  C   UNL     1       3.316   7.256  17.374  0.00  0.00    +0.000 A 
ATOM      9  C   UNL     1       2.538   7.599  18.485  0.00  0.00    +0.000 A 
ATOM     10 BR   UNL     1       1.557   9.226  18.399  0.00  0.00    +0.000 Br
ENDBRANCH   1   7
BRANCH   2  11
ATOM     11  C   UNL     1       5.764   4.477  14.455  0.00  0.00    +0.000 A 
ATOM     12  C   UNL     1       5.269   3.668  13.422  0.00  0.00    +0.000 A 
ATOM     13  C   UNL     1       6.030   3.445  12.275  0.00  0.00    +0.000 A 
ATOM     14  C   UNL     1       7.287   4.032  12.151  0.00  0.00    +0.000 A 
ATOM     15  C   UNL     1       7.789   4.839  13.175  0.00  0.00    +0.000 A 
ATOM     16  C   UNL     1       7.026   5.061  14.326  0.00  0.00    +0.000 A 
BRANCH  16  17
ATOM     17  O   UNL     1       7.525   5.854  15.323  0.00  0.00    +0.000 OA
ATOM     18  H   UNL     1       7.108   6.729  15.266  0.00  0.00    +0.000 HD
ENDBRANCH  16  17
ENDBRANCH   2  11
TORSDOF 3
ENDMDL
MODEL 9
REMARK VINA RESULT:      -6.4      5.032      6.320
REMARK  Name = 
REMARK  4 active torsions:
REMARK  status: ('A' for Active; 'I' for Inactive)
REMARK    1  A    between atoms: C_1  and  C_2
REMARK    2  A    between atoms: C_5  and  N_6
REMARK    3  A    between atoms: C_7  and  C_8
REMARK    4  A    between atoms: C_13  and  O_14
REMARK                            x       y       z     vdW  Elec       q    Type
REMARK                         _______ _______ _______ _____ _____    ______ ____
ROOT
ATOM      1  N   UNL     1       2.477   6.505  18.735  0.00  0.00    +0.000 NA
ATOM      2  C   UNL     1       2.181   5.489  19.482  0.00  0.00    +0.000 C 
ENDROOT
BRANCH   1   7
ATOM      3  C   UNL     1       0.371  11.649  20.163  0.00  0.00    +0.000 C 
ATOM      4  C   UNL     1       0.943  10.307  19.801  0.00  0.00    +0.000 A 
ATOM      5  C   UNL     1       1.406  10.085  18.496  0.00  0.00    +0.000 A 
ATOM      6  C   UNL     1       1.930   8.842  18.118  0.00  0.00    +0.000 A 
ATOM      7  C   UNL     1       2.018   7.796  19.038  0.00  0.00    +0.000 A 
ATOM      8  C   UNL     1       1.549   8.013  20.337  0.00  0.00    +0.000 A 
ATOM      9  C   UNL     1       1.019   9.250  20.718  0.00  0.00    +0.000 A 
ATOM     10 BR   UNL     1       0.400   9.424  22.507  0.00  0.00    +0.000 Br
ENDBRANCH   1   7
BRANCH   2  11
ATOM     11  C   UNL     1       2.651   4.129  19.127  0.00  0.00    +0.000 A 
ATOM     12  C   UNL     1       3.652   3.524  19.900  0.00  0.00    +0.000 A 
ATOM     13  C   UNL     1       4.118   2.250  19.577  0.00  0.00    +0.000 A 
ATOM     14  C   UNL     1       3.586   1.573  18.483  0.00  0.00    +0.000 A 
ATOM     15  C   UNL     1       2.588   2.167  17.706  0.00  0.00    +0.000 A 
ATOM     16  C   UNL     1       2.122   3.445  18.029  0.00  0.00    +0.000 A 
BRANCH  16  17
ATOM     17  O   UNL     1       1.144   4.019  17.264  0.00  0.00    +0.000 OA
ATOM     18  H   UNL     1       1.388   4.941  17.080  0.00  0.00    +0.000 HD
ENDBRANCH  16  17
ENDBRANCH   2  11
TORSDOF 3
ENDMDL
