MODEL 1
REMARK VINA RESULT:      -6.3      0.000      0.000
REMARK  Name = 
REMARK  1 active torsions:
REMARK  status: ('A' for Active; 'I' for Inactive)
REMARK    1  A    between atoms: N_12  and  C_13
REMARK                            x       y       z     vdW  Elec       q    Type
REMARK                         _______ _______ _______ _____ _____    ______ ____
ROOT
ATOM      1  O   UNL     1       3.193   7.401  17.226  0.00  0.00    +0.000 OA
ATOM      2  C   UNL     1       3.281   6.660  18.201  0.00  0.00    +0.000 C 
ATOM      3  C   UNL     1       3.127   7.195  19.598  0.00  0.00    +0.000 C 
ATOM      4  S   UNL     1       1.623   6.553  20.300  0.00  0.00    +0.000 S 
ATOM      5  C   UNL     1       1.893   4.825  19.892  0.00  0.00    +0.000 A 
ATOM      6  C   UNL     1       1.078   3.965  20.658  0.00  0.00    +0.000 A 
ATOM      7  C   UNL     1       1.121   2.597  20.478  0.00  0.00    +0.000 A 
ATOM      8  C   UNL     1       1.973   2.083  19.517  0.00  0.00    +0.000 A 
ATOM      9  C   UNL     1       2.805   2.920  18.739  0.00  0.00    +0.000 A 
ATOM     10 CL   UNL     1       3.655   2.009  17.534  0.00  0.00    +0.000 Cl
ATOM     11  C   UNL     1       2.812   4.335  18.912  0.00  0.00    +0.000 A 
ATOM     12  N   UNL     1       3.606   5.299  18.126  0.00  0.00    +0.000 N 
ENDROOT
BRANCH  12  13
ATOM     13  C   UNL     1       4.843   4.923  17.388  0.00  0.00    +0.000 C 
ATOM     14  C   UNL     1       5.480   5.965  16.436  0.00  0.00    +0.000 C 
ATOM     15  C   UNL     1       6.347   7.037  17.097  0.00  0.00    +0.000 C 
ATOM     16  C   UNL     1       7.344   6.471  18.097  0.00  0.00    +0.000 C 
ATOM     17  C   UNL     1       6.708   5.483  19.066  0.00  0.00    +0.000 C 
ATOM     18  C   UNL     1       5.926   4.384  18.347  0.00  0.00    +0.000 C 
ENDBRANCH  12  13
TORSDOF 1
ENDMDL
MODEL 2
REMARK VINA RESULT:      -6.2      1.094      1.378
REMARK  Name = 
REMARK  1 active torsions:
REMARK  status: ('A' for Active; 'I' for Inactive)
REMARK    1  A    between atoms: N_12  and  C_13
REMARK                            x       y       z     vdW  Elec       q    Type
REMARK                         _______ _______ _______ _____ _____    ______ ____
ROOT
ATOM      1  O   UNL     1       4.168   6.583  16.612  0.00  0.00    +0.000 OA
ATOM      2  C   UNL     1       4.052   6.092  17.731  0.00  0.00    +0.000 C 
ATOM      3  C   UNL     1       3.919   6.961  18.950  0.00  0.00    +0.000 C 
ATOM      4  S   UNL     1       2.279   6.777  19.617  0.00  0.00    +0.000 S 
ATOM      5  C   UNL     1       2.234   4.981  19.632  0.00  0.00    +0.000 A 
ATOM      6  C   UNL     1       1.223   4.484  20.481  0.00  0.00    +0.000 A 
ATOM      7  C   UNL     1       1.011   3.126  20.615  0.00  0.00    +0.000 A 
ATOM      8  C   UNL     1       1.804   2.258  19.886  0.00  0.00    +0.000 A 
ATOM      9  C   UNL     1       2.829   2.728  19.033  0.00  0.00    +0.000 A 
ATOM     10 CL   UNL     1       3.558   1.423  18.155  0.00  0.00    +0.000 Cl
ATOM     11  C   UNL     1       3.099   4.120  18.887  0.00  0.00    +0.000 A 
ATOM     12  N   UNL     1       4.111   4.716  17.994  0.00  0.00    +0.000 N 
ENDROOT
BRANCH  12  13
ATOM     13  C   UNL     1       5.294   3.966  17.492  0.00  0.00    +0.000 C 
ATOM     14  C   UNL     1       5.408   3.701  15.970  0.00  0.00    +0.000 C 
ATOM     15  C   UNL     1       5.937   4.860  15.124  0.00  0.00    +0.000 C 
ATOM     16  C   UNL     1       7.189   5.503  15.702  0.00  0.00    +0.000 C 
ATOM     17  C   UNL     1       7.060   5.810  17.188  0.00  0.00    +0.000 C 
ATOM     18  C   UNL     1       6.612   4.593  17.996  0.00  0.00    +0.000 C 
ENDBRANCH  12  13
TORSDOF 1
ENDMDL
MODEL 3
REMARK VINA RESULT:      -5.8      2.491      3.404
REMARK  Name = 
REMARK  1 active torsions:
REMARK  status: ('A' for Active; 'I' for Inactive)
REMARK    1  A    between atoms: N_12  and  C_13
REMARK                            x       y       z     vdW  Elec       q    Type
REMARK                         _______ _______ _______ _____ _____    ______ ____
ROOT
ATOM      1  O   UNL     1       6.393   4.025  18.625  0.00  0.00    +0.000 OA
ATOM      2  C   UNL     1       5.166   4.078  18.628  0.00  0.00    +0.000 C 
ATOM      3  C   UNL     1       4.339   2.873  18.981  0.00  0.00    +0.000 C 
ATOM      4  S   UNL     1       3.518   3.169  20.532  0.00  0.00    +0.000 S 
ATOM      5  C   UNL     1       2.850   4.789  20.138  0.00  0.00    +0.000 A 
ATOM      6  C   UNL     1       1.798   5.154  21.005  0.00  0.00    +0.000 A 
ATOM      7  C   UNL     1       1.164   6.375  20.880  0.00  0.00    +0.000 A 
ATOM      8  C   UNL     1       1.592   7.243  19.892  0.00  0.00    +0.000 A 
ATOM      9  C   UNL     1       2.639   6.902  19.006  0.00  0.00    +0.000 A 
ATOM     10 CL   UNL     1       3.041   8.234  17.972  0.00  0.00    +0.000 Cl
ATOM     11  C   UNL     1       3.300   5.641  19.082  0.00  0.00    +0.000 A 
ATOM     12  N   UNL     1       4.429   5.204  18.238  0.00  0.00    +0.000 N 
ENDROOT
BRANCH  12  13
ATOM     13  C   UNL     1       4.721   5.793  16.903  0.00  0.00    +0.000 C 
ATOM     14  C   UNL     1       6.001   6.649  16.738  0.00  0.00    +0.000 C 
ATOM     15  C   UNL     1       7.306   5.876  16.547  0.00  0.00    +0.000 C 
ATOM     16  C   UNL     1       7.202   4.771  15.506  0.00  0.00    +0.000 C 
ATOM     17  C   UNL     1       5.970   3.897  15.697  0.00  0.00    +0.000 C 
ATOM     18  C   UNL     1       4.685   4.718  15.795  0.00  0.00    +0.000 C 
ENDBRANCH  12  13
TORSDOF 1
ENDMDL
MODEL 4
REMARK VINA RESULT:      -5.6      1.950      4.844
REMARK  Name = 
REMARK  1 active torsions:
REMARK  status: ('A' for Active; 'I' for Inactive)
REMARK    1  A    between atoms: N_12  and  C_13
REMARK                            x       y       z     vdW  Elec       q    Type
REMARK                         _______ _______ _______ _____ _____    ______ ____
ROOT
ATOM      1  O   UNL     1       3.097   5.505  20.539  0.00  0.00    +0.000 OA
ATOM      2  C   UNL     1       3.015   5.542  19.315  0.00  0.00    +0.000 C 
ATOM      3  C   UNL     1       2.444   6.742  18.612  0.00  0.00    +0.000 C 
ATOM      4  S   UNL     1       3.744   7.557  17.710  0.00  0.00    +0.000 S 
ATOM      5  C   UNL     1       4.401   6.105  16.882  0.00  0.00    +0.000 A 
ATOM      6  C   UNL     1       5.196   6.444  15.768  0.00  0.00    +0.000 A 
ATOM      7  C   UNL     1       5.810   5.468  15.009  0.00  0.00    +0.000 A 
ATOM      8  C   UNL     1       5.642   4.144  15.373  0.00  0.00    +0.000 A 
ATOM      9  C   UNL     1       4.846   3.774  16.482  0.00  0.00    +0.000 A 
ATOM     10 CL   UNL     1       4.934   2.068  16.772  0.00  0.00    +0.000 Cl
ATOM     11  C   UNL     1       4.171   4.748  17.274  0.00  0.00    +0.000 A 
ATOM     12  N   UNL     1       3.355   4.475  18.472  0.00  0.00    +0.000 N 
ENDROOT
BRANCH  12  13
ATOM     13  C   UNL     1       2.730   3.152  18.745  0.00  0.00    +0.000 C 
ATOM     14  C   UNL     1       3.259   2.317  19.938  0.00  0.00    +0.000 C 
ATOM     15  C   UNL     1       2.735   2.713  21.319  0.00  0.00    +0.000 C 
ATOM     16  C   UNL     1       1.226   2.898  21.357  0.00  0.00    +0.000 C 
ATOM     17  C   UNL     1       0.710   3.760  20.213  0.00  0.00    +0.000 C 
ATOM     18  C   UNL     1       1.194   3.268  18.850  0.00  0.00    +0.000 C 
ENDBRANCH  12  13
TORSDOF 1
ENDMDL
MODEL 5
REMARK VINA RESULT:      -5.6      2.671      5.415
REMARK  Name = 
REMARK  1 active torsions:
REMARK  status: ('A' for Active; 'I' for Inactive)
REMARK    1  A    between atoms: N_12  and  C_13
REMARK                            x       y       z     vdW  Elec       q    Type
REMARK                         _______ _______ _______ _____ _____    ______ ____
ROOT
ATOM      1  O   UNL     1       1.864   2.366  17.239  0.00  0.00    +0.000 OA
ATOM      2  C   UNL     1       2.772   3.063  17.683  0.00  0.00    +0.000 C 
ATOM      3  C   UNL     1       4.164   2.517  17.839  0.00  0.00    +0.000 C 
ATOM      4  S   UNL     1       5.238   3.331  16.677  0.00  0.00    +0.000 S 
ATOM      5  C   UNL     1       4.754   5.019  17.054  0.00  0.00    +0.000 A 
ATOM      6  C   UNL     1       5.703   5.958  16.596  0.00  0.00    +0.000 A 
ATOM      7  C   UNL     1       5.504   7.313  16.770  0.00  0.00    +0.000 A 
ATOM      8  C   UNL     1       4.344   7.736  17.394  0.00  0.00    +0.000 A 
ATOM      9  C   UNL     1       3.379   6.818  17.868  0.00  0.00    +0.000 A 
ATOM     10 CL   UNL     1       1.980   7.642  18.476  0.00  0.00    +0.000 Cl
ATOM     11  C   UNL     1       3.559   5.410  17.734  0.00  0.00    +0.000 A 
ATOM     12  N   UNL     1       2.598   4.372  18.153  0.00  0.00    +0.000 N 
ENDROOT
BRANCH  12  13
ATOM     13  C   UNL     1       1.551   4.602  19.185  0.00  0.00    +0.000 C 
ATOM     14  C   UNL     1       0.592   3.437  19.537  0.00  0.00    +0.000 C 
ATOM     15  C   UNL     1       1.140   2.386  20.504  0.00  0.00    +0.000 C 
ATOM     16  C   UNL     1       1.806   2.989  21.731  0.00  0.00    +0.000 C 
ATOM     17  C   UNL     1       2.786   4.102  21.383  0.00  0.00    +0.000 C 
ATOM     18  C   UNL     1       2.160   5.168  20.486  0.00  0.00    +0.000 C 
ENDBRANCH  12  13
TORSDOF 1
ENDMDL
MODEL 6
REMARK VINA RESULT:      -5.5      1.196      1.411
REMARK  Name = 
REMARK  1 active torsions:
REMARK  status: ('A' for Active; 'I' for Inactive)
REMARK    1  A    between atoms: N_12  and  C_13
REMARK                            x       y       z     vdW  Elec       q    Type
REMARK                         _______ _______ _______ _____ _____    ______ ____
ROOT
ATOM      1  O   UNL     1       4.217   6.303  16.550  0.00  0.00    +0.000 OA
ATOM      2  C   UNL     1       4.040   6.150  17.755  0.00  0.00    +0.000 C 
ATOM      3  C   UNL     1       3.497   7.264  18.606  0.00  0.00    +0.000 C 
ATOM      4  S   UNL     1       1.864   6.823  19.163  0.00  0.00    +0.000 S 
ATOM      5  C   UNL     1       2.259   5.177  19.764  0.00  0.00    +0.000 A 
ATOM      6  C   UNL     1       1.274   4.684  20.646  0.00  0.00    +0.000 A 
ATOM      7  C   UNL     1       1.382   3.425  21.201  0.00  0.00    +0.000 A 
ATOM      8  C   UNL     1       2.474   2.645  20.863  0.00  0.00    +0.000 A 
ATOM      9  C   UNL     1       3.479   3.115  19.987  0.00  0.00    +0.000 A 
ATOM     10 CL   UNL     1       4.642   1.875  19.648  0.00  0.00    +0.000 Cl
ATOM     11  C   UNL     1       3.421   4.420  19.415  0.00  0.00    +0.000 A 
ATOM     12  N   UNL     1       4.390   4.990  18.459  0.00  0.00    +0.000 N 
ENDROOT
BRANCH  12  13
ATOM     13  C   UNL     1       5.787   4.496  18.327  0.00  0.00    +0.000 C 
ATOM     14  C   UNL     1       6.332   4.194  16.908  0.00  0.00    +0.000 C 
ATOM     15  C   UNL     1       6.812   5.401  16.103  0.00  0.00    +0.000 C 
ATOM     16  C   UNL     1       7.722   6.328  16.895  0.00  0.00    +0.000 C 
ATOM     17  C   UNL     1       7.163   6.666  18.271  0.00  0.00    +0.000 C 
ATOM     18  C   UNL     1       6.781   5.418  19.065  0.00  0.00    +0.000 C 
ENDBRANCH  12  13
TORSDOF 1
ENDMDL
MODEL 7
REMARK VINA RESULT:      -5.5      9.678     12.242
REMARK  Name = 
REMARK  1 active torsions:
REMARK  status: ('A' for Active; 'I' for Inactive)
REMARK    1  A    between atoms: N_12  and  C_13
REMARK                            x       y       z     vdW  Elec       q    Type
REMARK                         _______ _______ _______ _____ _____    ______ ____
ROOT
ATOM      1  O   UNL     1       9.985  13.630  21.716  0.00  0.00    +0.000 OA
ATOM      2  C   UNL     1       9.505  14.154  20.715  0.00  0.00    +0.000 C 
ATOM      3  C   UNL     1       8.065  14.584  20.680  0.00  0.00    +0.000 C 
ATOM      4  S   UNL     1       7.993  16.361  20.618  0.00  0.00    +0.000 S 
ATOM      5  C   UNL     1       9.163  16.597  19.276  0.00  0.00    +0.000 A 
ATOM      6  C   UNL     1       9.047  17.874  18.690  0.00  0.00    +0.000 A 
ATOM      7  C   UNL     1       9.874  18.259  17.653  0.00  0.00    +0.000 A 
ATOM      8  C   UNL     1      10.833  17.367  17.207  0.00  0.00    +0.000 A 
ATOM      9  C   UNL     1      10.968  16.078  17.772  0.00  0.00    +0.000 A 
ATOM     10 CL   UNL     1      12.333  15.244  17.105  0.00  0.00    +0.000 Cl
ATOM     11  C   UNL     1      10.116  15.631  18.824  0.00  0.00    +0.000 A 
ATOM     12  N   UNL     1      10.199  14.328  19.510  0.00  0.00    +0.000 N 
ENDROOT
BRANCH  12  13
ATOM     13  C   UNL     1      10.844  13.131  18.905  0.00  0.00    +0.000 C 
ATOM     14  C   UNL     1      11.092  11.893  19.803  0.00  0.00    +0.000 C 
ATOM     15  C   UNL     1       9.889  10.977  20.031  0.00  0.00    +0.000 C 
ATOM     16  C   UNL     1       9.145  10.632  18.750  0.00  0.00    +0.000 C 
ATOM     17  C   UNL     1       8.857  11.856  17.889  0.00  0.00    +0.000 C 
ATOM     18  C   UNL     1      10.111  12.686  17.621  0.00  0.00    +0.000 C 
ENDBRANCH  12  13
TORSDOF 1
ENDMDL
MODEL 8
REMARK VINA RESULT:      -5.4      9.165     10.544
REMARK  Name = 
REMARK  1 active torsions:
REMARK  status: ('A' for Active; 'I' for Inactive)
REMARK    1  A    between atoms: N_12  and  C_13
REMARK                            x       y       z     vdW  Elec       q    Type
REMARK                         _______ _______ _______ _____ _____    ______ ____
ROOT
ATOM      1  O   UNL     1       8.062  13.197  17.576  0.00  0.00    +0.000 OA
ATOM      2  C   UNL     1       8.533  13.760  18.560  0.00  0.00    +0.000 C 
ATOM      3  C   UNL     1       9.129  15.136  18.455  0.00  0.00    +0.000 C 
ATOM      4  S   UNL     1       8.094  16.283  19.339  0.00  0.00    +0.000 S 
ATOM      5  C   UNL     1       7.952  15.344  20.863  0.00  0.00    +0.000 A 
ATOM      6  C   UNL     1       7.525  16.146  21.942  0.00  0.00    +0.000 A 
ATOM      7  C   UNL     1       7.334  15.606  23.198  0.00  0.00    +0.000 A 
ATOM      8  C   UNL     1       7.557  14.252  23.377  0.00  0.00    +0.000 A 
ATOM      9  C   UNL     1       7.991  13.425  22.315  0.00  0.00    +0.000 A 
ATOM     10 CL   UNL     1       8.053  11.764  22.803  0.00  0.00    +0.000 Cl
ATOM     11  C   UNL     1       8.228  13.948  21.010  0.00  0.00    +0.000 A 
ATOM     12  N   UNL     1       8.638  13.169  19.827  0.00  0.00    +0.000 N 
ENDROOT
BRANCH  12  13
ATOM     13  C   UNL     1       9.318  11.848  19.919  0.00  0.00    +0.000 C 
ATOM     14  C   UNL     1       9.541  11.039  18.617  0.00  0.00    +0.000 C 
ATOM     15  C   UNL     1      10.738  11.458  17.763  0.00  0.00    +0.000 C 
ATOM     16  C   UNL     1      12.017  11.637  18.568  0.00  0.00    +0.000 C 
ATOM     17  C   UNL     1      11.809  12.474  19.823  0.00  0.00    +0.000 C 
ATOM     18  C   UNL     1      10.656  11.958  20.682  0.00  0.00    +0.000 C 
ENDBRANCH  12  13
TORSDOF 1
ENDMDL
MODEL 9
REMARK VINA RESULT:      -5.3      9.676     11.063
REMARK  Name = 
REMARK  1 active torsions:
REMARK  status: ('A' for Active; 'I' for Inactive)
REMARK    1  A    between atoms: N_12  and  C_13
REMARK                            x       y       z     vdW  Elec       q    Type
REMARK                         _______ _______ _______ _____ _____    ______ ____
ROOT
ATOM      1  O   UNL     1       8.555  14.456  18.115  0.00  0.00    +0.000 OA
ATOM      2  C   UNL     1       9.189  14.550  19.162  0.00  0.00    +0.000 C 
ATOM      3  C   UNL     1      10.180  15.661  19.372  0.00  0.00    +0.000 C 
ATOM      4  S   UNL     1       9.563  16.758  20.629  0.00  0.00    +0.000 S 
ATOM      5  C   UNL     1       9.156  15.507  21.852  0.00  0.00    +0.000 A 
ATOM      6  C   UNL     1       9.012  16.056  23.144  0.00  0.00    +0.000 A 
ATOM      7  C   UNL     1       8.678  15.260  24.222  0.00  0.00    +0.000 A 
ATOM      8  C   UNL     1       8.473  13.908  24.007  0.00  0.00    +0.000 A 
ATOM      9  C   UNL     1       8.617  13.331  22.725  0.00  0.00    +0.000 A 
ATOM     10 CL   UNL     1       8.167  11.657  22.741  0.00  0.00    +0.000 Cl
ATOM     11  C   UNL     1       8.988  14.111  21.591  0.00  0.00    +0.000 A 
ATOM     12  N   UNL     1       9.122  13.618  20.207  0.00  0.00    +0.000 N 
ENDROOT
BRANCH  12  13
ATOM     13  C   UNL     1       9.360  12.188  19.874  0.00  0.00    +0.000 C 
ATOM     14  C   UNL     1       9.382  11.770  18.382  0.00  0.00    +0.000 C 
ATOM     15  C   UNL     1      10.686  12.037  17.629  0.00  0.00    +0.000 C 
ATOM     16  C   UNL     1      11.921  11.571  18.385  0.00  0.00    +0.000 C 
ATOM     17  C   UNL     1      11.925  12.023  19.840  0.00  0.00    +0.000 C 
ATOM     18  C   UNL     1      10.633  11.654  20.567  0.00  0.00    +0.000 C 
ENDBRANCH  12  13
TORSDOF 1
ENDMDL
