MODEL 1
REMARK VINA RESULT:      -6.4      0.000      0.000
REMARK  Name = 
REMARK  10 active torsions:
REMARK  status: ('A' for Active; 'I' for Inactive)
REMARK    1  A    between atoms: C_1  and  O_2
REMARK    2  A    between atoms: O_2  and  C_3
REMARK    3  A    between atoms: C_6  and  C_7
REMARK    4  A    between atoms: C_8  and  C_9
REMARK    5  A    between atoms: C_11  and  O_12
REMARK    6  A    between atoms: O_12  and  C_13
REMARK    7  A    between atoms: C_14  and  O_15
REMARK    8  A    between atoms: O_15  and  C_16
REMARK    9  A    between atoms: C_17  and  O_18
REMARK   10  A    between atoms: O_18  and  C_19
REMARK                            x       y       z     vdW  Elec       q    Type
REMARK                         _______ _______ _______ _____ _____    ______ ____
ROOT
ATOM      1  C   UNL     1       3.202   5.141  17.935  0.00  0.00    +0.000 A 
ATOM      2  C   UNL     1       2.825   4.523  19.125  0.00  0.00    +0.000 A 
ATOM      3  C   UNL     1       2.345   5.288  20.196  0.00  0.00    +0.000 A 
ATOM      4  C   UNL     1       2.199   6.686  20.057  0.00  0.00    +0.000 A 
ATOM      5  C   UNL     1       2.515   7.304  18.829  0.00  0.00    +0.000 A 
ATOM      6  C   UNL     1       3.019   6.519  17.781  0.00  0.00    +0.000 A 
ENDROOT
BRANCH   1   8
ATOM      7  C   UNL     1       5.225   4.487  16.566  0.00  0.00    +0.000 C 
ATOM      8  C   UNL     1       3.935   4.388  16.915  0.00  0.00    +0.000 C 
BRANCH   7  12
ATOM      9  C   UNL     1       7.939   7.195  18.280  0.00  0.00    +0.000 A 
ATOM     10  C   UNL     1       7.798   5.938  18.859  0.00  0.00    +0.000 A 
ATOM     11  C   UNL     1       6.945   5.005  18.271  0.00  0.00    +0.000 A 
ATOM     12  C   UNL     1       6.245   5.369  17.125  0.00  0.00    +0.000 A 
ATOM     13  N   UNL     1       6.342   6.587  16.554  0.00  0.00    +0.000 NA
ATOM     14  C   UNL     1       7.191   7.465  17.141  0.00  0.00    +0.000 A 
BRANCH   9  16
ATOM     15  C   UNL     1       8.444   9.499  18.205  0.00  0.00    +0.000 C 
ATOM     16  O   UNL     1       8.712   8.214  18.756  0.00  0.00    +0.000 OA
ENDBRANCH   9  16
ENDBRANCH   7  12
ENDBRANCH   1   8
BRANCH   3  17
ATOM     17  O   UNL     1       2.017   4.742  21.417  0.00  0.00    +0.000 OA
ATOM     18  C   UNL     1       2.191   3.333  21.535  0.00  0.00    +0.000 C 
ENDBRANCH   3  17
BRANCH   4  19
ATOM     19  O   UNL     1       1.695   7.346  21.160  0.00  0.00    +0.000 OA
ATOM     20  C   UNL     1       0.342   7.786  21.069  0.00  0.00    +0.000 C 
ENDBRANCH   4  19
BRANCH   5  21
ATOM     21  O   UNL     1       2.321   8.657  18.724  0.00  0.00    +0.000 OA
ATOM     22  C   UNL     1       1.394   9.130  17.754  0.00  0.00    +0.000 C 
ENDBRANCH   5  21
TORSDOF 6
ENDMDL
MODEL 2
REMARK VINA RESULT:      -6.2      1.415      1.895
REMARK  Name = 
REMARK  10 active torsions:
REMARK  status: ('A' for Active; 'I' for Inactive)
REMARK    1  A    between atoms: C_1  and  O_2
REMARK    2  A    between atoms: O_2  and  C_3
REMARK    3  A    between atoms: C_6  and  C_7
REMARK    4  A    between atoms: C_8  and  C_9
REMARK    5  A    between atoms: C_11  and  O_12
REMARK    6  A    between atoms: O_12  and  C_13
REMARK    7  A    between atoms: C_14  and  O_15
REMARK    8  A    between atoms: O_15  and  C_16
REMARK    9  A    between atoms: C_17  and  O_18
REMARK   10  A    between atoms: O_18  and  C_19
REMARK                            x       y       z     vdW  Elec       q    Type
REMARK                         _______ _______ _______ _____ _____    ______ ____
ROOT
ATOM      1  C   UNL     1       4.351   4.058  17.075  0.00  0.00    +0.000 A 
ATOM      2  C   UNL     1       4.176   3.024  17.991  0.00  0.00    +0.000 A 
ATOM      3  C   UNL     1       3.470   3.247  19.181  0.00  0.00    +0.000 A 
ATOM      4  C   UNL     1       2.893   4.512  19.434  0.00  0.00    +0.000 A 
ATOM      5  C   UNL     1       3.012   5.540  18.474  0.00  0.00    +0.000 A 
ATOM      6  C   UNL     1       3.747   5.298  17.304  0.00  0.00    +0.000 A 
ENDROOT
BRANCH   1   8
ATOM      7  C   UNL     1       6.486   4.489  15.789  0.00  0.00    +0.000 C 
ATOM      8  C   UNL     1       5.293   3.904  15.964  0.00  0.00    +0.000 C 
BRANCH   7  12
ATOM      9  C   UNL     1       8.182   7.332  18.374  0.00  0.00    +0.000 A 
ATOM     10  C   UNL     1       8.028   6.027  18.830  0.00  0.00    +0.000 A 
ATOM     11  C   UNL     1       7.521   5.056  17.967  0.00  0.00    +0.000 A 
ATOM     12  C   UNL     1       7.166   5.430  16.675  0.00  0.00    +0.000 A 
ATOM     13  N   UNL     1       7.281   6.691  16.211  0.00  0.00    +0.000 NA
ATOM     14  C   UNL     1       7.792   7.608  17.069  0.00  0.00    +0.000 A 
BRANCH   9  16
ATOM     15  C   UNL     1       8.619   9.650  18.448  0.00  0.00    +0.000 C 
ATOM     16  O   UNL     1       8.637   8.389  19.108  0.00  0.00    +0.000 OA
ENDBRANCH   9  16
ENDBRANCH   7  12
ENDBRANCH   1   8
BRANCH   3  17
ATOM     17  O   UNL     1       3.319   2.284  20.152  0.00  0.00    +0.000 OA
ATOM     18  C   UNL     1       4.496   1.941  20.877  0.00  0.00    +0.000 C 
ENDBRANCH   3  17
BRANCH   4  19
ATOM     19  O   UNL     1       2.198   4.624  20.620  0.00  0.00    +0.000 OA
ATOM     20  C   UNL     1       0.795   4.376  20.556  0.00  0.00    +0.000 C 
ENDBRANCH   4  19
BRANCH   5  21
ATOM     21  O   UNL     1       2.404   6.739  18.741  0.00  0.00    +0.000 OA
ATOM     22  C   UNL     1       2.695   7.843  17.893  0.00  0.00    +0.000 C 
ENDBRANCH   5  21
TORSDOF 6
ENDMDL
MODEL 3
REMARK VINA RESULT:      -6.2      2.936      4.911
REMARK  Name = 
REMARK  10 active torsions:
REMARK  status: ('A' for Active; 'I' for Inactive)
REMARK    1  A    between atoms: C_1  and  O_2
REMARK    2  A    between atoms: O_2  and  C_3
REMARK    3  A    between atoms: C_6  and  C_7
REMARK    4  A    between atoms: C_8  and  C_9
REMARK    5  A    between atoms: C_11  and  O_12
REMARK    6  A    between atoms: O_12  and  C_13
REMARK    7  A    between atoms: C_14  and  O_15
REMARK    8  A    between atoms: O_15  and  C_16
REMARK    9  A    between atoms: C_17  and  O_18
REMARK   10  A    between atoms: O_18  and  C_19
REMARK                            x       y       z     vdW  Elec       q    Type
REMARK                         _______ _______ _______ _____ _____    ______ ____
ROOT
ATOM      1  C   UNL     1       5.494   5.518  18.436  0.00  0.00    +0.000 A 
ATOM      2  C   UNL     1       4.421   6.371  18.187  0.00  0.00    +0.000 A 
ATOM      3  C   UNL     1       3.106   5.901  18.297  0.00  0.00    +0.000 A 
ATOM      4  C   UNL     1       2.862   4.571  18.705  0.00  0.00    +0.000 A 
ATOM      5  C   UNL     1       3.947   3.726  19.025  0.00  0.00    +0.000 A 
ATOM      6  C   UNL     1       5.254   4.214  18.881  0.00  0.00    +0.000 A 
ENDROOT
BRANCH   1   8
ATOM      7  C   UNL     1       7.495   5.779  16.913  0.00  0.00    +0.000 C 
ATOM      8  C   UNL     1       6.855   5.925  18.081  0.00  0.00    +0.000 C 
BRANCH   7  12
ATOM      9  C   UNL     1       6.301   3.903  13.351  0.00  0.00    +0.000 A 
ATOM     10  C   UNL     1       5.649   3.562  14.532  0.00  0.00    +0.000 A 
ATOM     11  C   UNL     1       5.992   4.217  15.715  0.00  0.00    +0.000 A 
ATOM     12  C   UNL     1       6.993   5.183  15.678  0.00  0.00    +0.000 A 
ATOM     13  N   UNL     1       7.658   5.517  14.555  0.00  0.00    +0.000 NA
ATOM     14  C   UNL     1       7.291   4.875  13.419  0.00  0.00    +0.000 A 
BRANCH   9  16
ATOM     15  C   UNL     1       4.729   3.145  11.762  0.00  0.00    +0.000 C 
ATOM     16  O   UNL     1       6.091   3.333  12.128  0.00  0.00    +0.000 OA
ENDBRANCH   9  16
ENDBRANCH   7  12
ENDBRANCH   1   8
BRANCH   3  17
ATOM     17  O   UNL     1       2.008   6.677  18.003  0.00  0.00    +0.000 OA
ATOM     18  C   UNL     1       2.178   8.082  18.164  0.00  0.00    +0.000 C 
ENDBRANCH   3  17
BRANCH   4  19
ATOM     19  O   UNL     1       1.534   4.211  18.806  0.00  0.00    +0.000 OA
ATOM     20  C   UNL     1       0.977   4.212  20.119  0.00  0.00    +0.000 C 
ENDBRANCH   4  19
BRANCH   5  21
ATOM     21  O   UNL     1       3.665   2.455  19.454  0.00  0.00    +0.000 OA
ATOM     22  C   UNL     1       4.136   2.060  20.737  0.00  0.00    +0.000 C 
ENDBRANCH   5  21
TORSDOF 6
ENDMDL
MODEL 4
REMARK VINA RESULT:      -6.2      2.863      5.963
REMARK  Name = 
REMARK  10 active torsions:
REMARK  status: ('A' for Active; 'I' for Inactive)
REMARK    1  A    between atoms: C_1  and  O_2
REMARK    2  A    between atoms: O_2  and  C_3
REMARK    3  A    between atoms: C_6  and  C_7
REMARK    4  A    between atoms: C_8  and  C_9
REMARK    5  A    between atoms: C_11  and  O_12
REMARK    6  A    between atoms: O_12  and  C_13
REMARK    7  A    between atoms: C_14  and  O_15
REMARK    8  A    between atoms: O_15  and  C_16
REMARK    9  A    between atoms: C_17  and  O_18
REMARK   10  A    between atoms: O_18  and  C_19
REMARK                            x       y       z     vdW  Elec       q    Type
REMARK                         _______ _______ _______ _____ _____    ______ ____
ROOT
ATOM      1  C   UNL     1       3.062   6.405  17.945  0.00  0.00    +0.000 A 
ATOM      2  C   UNL     1       2.141   5.361  17.950  0.00  0.00    +0.000 A 
ATOM      3  C   UNL     1       2.551   4.059  18.266  0.00  0.00    +0.000 A 
ATOM      4  C   UNL     1       3.895   3.810  18.626  0.00  0.00    +0.000 A 
ATOM      5  C   UNL     1       4.814   4.879  18.688  0.00  0.00    +0.000 A 
ATOM      6  C   UNL     1       4.382   6.168  18.341  0.00  0.00    +0.000 A 
ENDROOT
BRANCH   1   8
ATOM      7  C   UNL     1       2.107   8.747  17.974  0.00  0.00    +0.000 C 
ATOM      8  C   UNL     1       2.698   7.705  17.374  0.00  0.00    +0.000 C 
BRANCH   7  12
ATOM      9  C   UNL     1       0.596   9.073  21.879  0.00  0.00    +0.000 A 
ATOM     10  C   UNL     1       1.192   7.876  21.494  0.00  0.00    +0.000 A 
ATOM     11  C   UNL     1       1.752   7.768  20.221  0.00  0.00    +0.000 A 
ATOM     12  C   UNL     1       1.680   8.863  19.365  0.00  0.00    +0.000 A 
ATOM     13  N   UNL     1       1.088  10.027  19.700  0.00  0.00    +0.000 NA
ATOM     14  C   UNL     1       0.568  10.105  20.950  0.00  0.00    +0.000 A 
BRANCH   9  16
ATOM     15  C   UNL     1      -0.913  10.419  23.096  0.00  0.00    +0.000 C 
ATOM     16  O   UNL     1      -0.012   9.316  23.076  0.00  0.00    +0.000 OA
ENDBRANCH   9  16
ENDBRANCH   7  12
ENDBRANCH   1   8
BRANCH   3  17
ATOM     17  O   UNL     1       1.702   2.977  18.227  0.00  0.00    +0.000 OA
ATOM     18  C   UNL     1       0.815   2.842  19.334  0.00  0.00    +0.000 C 
ENDBRANCH   3  17
BRANCH   4  19
ATOM     19  O   UNL     1       4.194   2.501  18.944  0.00  0.00    +0.000 OA
ATOM     20  C   UNL     1       4.366   2.210  20.329  0.00  0.00    +0.000 C 
ENDBRANCH   4  19
BRANCH   5  21
ATOM     21  O   UNL     1       6.097   4.600  19.080  0.00  0.00    +0.000 OA
ATOM     22  C   UNL     1       7.037   5.667  19.111  0.00  0.00    +0.000 C 
ENDBRANCH   5  21
TORSDOF 6
ENDMDL
MODEL 5
REMARK VINA RESULT:      -6.1      1.223      3.084
REMARK  Name = 
REMARK  10 active torsions:
REMARK  status: ('A' for Active; 'I' for Inactive)
REMARK    1  A    between atoms: C_1  and  O_2
REMARK    2  A    between atoms: O_2  and  C_3
REMARK    3  A    between atoms: C_6  and  C_7
REMARK    4  A    between atoms: C_8  and  C_9
REMARK    5  A    between atoms: C_11  and  O_12
REMARK    6  A    between atoms: O_12  and  C_13
REMARK    7  A    between atoms: C_14  and  O_15
REMARK    8  A    between atoms: O_15  and  C_16
REMARK    9  A    between atoms: C_17  and  O_18
REMARK   10  A    between atoms: O_18  and  C_19
REMARK                            x       y       z     vdW  Elec       q    Type
REMARK                         _______ _______ _______ _____ _____    ______ ____
ROOT
ATOM      1  C   UNL     1       4.279   4.179  17.420  0.00  0.00    +0.000 A 
ATOM      2  C   UNL     1       3.720   5.454  17.449  0.00  0.00    +0.000 A 
ATOM      3  C   UNL     1       2.629   5.728  18.284  0.00  0.00    +0.000 A 
ATOM      4  C   UNL     1       2.119   4.721  19.134  0.00  0.00    +0.000 A 
ATOM      5  C   UNL     1       2.728   3.449  19.155  0.00  0.00    +0.000 A 
ATOM      6  C   UNL     1       3.802   3.193  18.291  0.00  0.00    +0.000 A 
ENDROOT
BRANCH   1   8
ATOM      7  C   UNL     1       6.468   4.322  16.161  0.00  0.00    +0.000 C 
ATOM      8  C   UNL     1       5.243   3.822  16.377  0.00  0.00    +0.000 C 
BRANCH   7  12
ATOM      9  C   UNL     1       8.220   7.421  18.388  0.00  0.00    +0.000 A 
ATOM     10  C   UNL     1       8.105   6.165  18.974  0.00  0.00    +0.000 A 
ATOM     11  C   UNL     1       7.579   5.108  18.230  0.00  0.00    +0.000 A 
ATOM     12  C   UNL     1       7.168   5.351  16.923  0.00  0.00    +0.000 A 
ATOM     13  N   UNL     1       7.244   6.562  16.336  0.00  0.00    +0.000 NA
ATOM     14  C   UNL     1       7.775   7.564  17.080  0.00  0.00    +0.000 A 
BRANCH   9  16
ATOM     15  C   UNL     1       8.567   9.751  18.244  0.00  0.00    +0.000 C 
ATOM     16  O   UNL     1       8.688   8.549  18.997  0.00  0.00    +0.000 OA
ENDBRANCH   9  16
ENDBRANCH   7  12
ENDBRANCH   1   8
BRANCH   3  17
ATOM     17  O   UNL     1       1.995   6.950  18.309  0.00  0.00    +0.000 OA
ATOM     18  C   UNL     1       2.751   8.053  17.819  0.00  0.00    +0.000 C 
ENDBRANCH   3  17
BRANCH   4  19
ATOM     19  O   UNL     1       1.059   5.096  19.934  0.00  0.00    +0.000 OA
ATOM     20  C   UNL     1       1.361   5.987  21.006  0.00  0.00    +0.000 C 
ENDBRANCH   4  19
BRANCH   5  21
ATOM     21  O   UNL     1       2.227   2.513  20.023  0.00  0.00    +0.000 OA
ATOM     22  C   UNL     1       2.664   2.549  21.376  0.00  0.00    +0.000 C 
ENDBRANCH   5  21
TORSDOF 6
ENDMDL
MODEL 6
REMARK VINA RESULT:      -6.1      3.620      5.717
REMARK  Name = 
REMARK  10 active torsions:
REMARK  status: ('A' for Active; 'I' for Inactive)
REMARK    1  A    between atoms: C_1  and  O_2
REMARK    2  A    between atoms: O_2  and  C_3
REMARK    3  A    between atoms: C_6  and  C_7
REMARK    4  A    between atoms: C_8  and  C_9
REMARK    5  A    between atoms: C_11  and  O_12
REMARK    6  A    between atoms: O_12  and  C_13
REMARK    7  A    between atoms: C_14  and  O_15
REMARK    8  A    between atoms: O_15  and  C_16
REMARK    9  A    between atoms: C_17  and  O_18
REMARK   10  A    between atoms: O_18  and  C_19
REMARK                            x       y       z     vdW  Elec       q    Type
REMARK                         _______ _______ _______ _____ _____    ______ ____
ROOT
ATOM      1  C   UNL     1       1.666   8.991  18.491  0.00  0.00    +0.000 A 
ATOM      2  C   UNL     1       1.726   9.261  19.855  0.00  0.00    +0.000 A 
ATOM      3  C   UNL     1       0.726  10.027  20.468  0.00  0.00    +0.000 A 
ATOM      4  C   UNL     1      -0.374  10.490  19.711  0.00  0.00    +0.000 A 
ATOM      5  C   UNL     1      -0.471  10.158  18.343  0.00  0.00    +0.000 A 
ATOM      6  C   UNL     1       0.559   9.413  17.748  0.00  0.00    +0.000 A 
ENDROOT
BRANCH   1   8
ATOM      7  C   UNL     1       3.269   7.152  17.825  0.00  0.00    +0.000 C 
ATOM      8  C   UNL     1       2.824   8.416  17.803  0.00  0.00    +0.000 C 
BRANCH   7  12
ATOM      9  C   UNL     1       1.428   4.047  19.971  0.00  0.00    +0.000 A 
ATOM     10  C   UNL     1       1.334   4.043  18.583  0.00  0.00    +0.000 A 
ATOM     11  C   UNL     1       1.987   5.033  17.850  0.00  0.00    +0.000 A 
ATOM     12  C   UNL     1       2.703   6.009  18.536  0.00  0.00    +0.000 A 
ATOM     13  N   UNL     1       2.794   6.054  19.880  0.00  0.00    +0.000 NA
ATOM     14  C   UNL     1       2.161   5.068  20.563  0.00  0.00    +0.000 A 
BRANCH   9  16
ATOM     15  C   UNL     1       1.670   2.581  21.804  0.00  0.00    +0.000 C 
ATOM     16  O   UNL     1       0.825   3.163  20.817  0.00  0.00    +0.000 OA
ENDBRANCH   9  16
ENDBRANCH   7  12
ENDBRANCH   1   8
BRANCH   3  17
ATOM     17  O   UNL     1       0.763  10.380  21.798  0.00  0.00    +0.000 OA
ATOM     18  C   UNL     1       0.401   9.359  22.723  0.00  0.00    +0.000 C 
ENDBRANCH   3  17
BRANCH   4  19
ATOM     19  O   UNL     1      -1.317  11.214  20.410  0.00  0.00    +0.000 OA
ATOM     20  C   UNL     1      -1.249  12.632  20.280  0.00  0.00    +0.000 C 
ENDBRANCH   4  19
BRANCH   5  21
ATOM     21  O   UNL     1      -1.573  10.593  17.654  0.00  0.00    +0.000 OA
ATOM     22  C   UNL     1      -2.700   9.730  17.575  0.00  0.00    +0.000 C 
ENDBRANCH   5  21
TORSDOF 6
ENDMDL
MODEL 7
REMARK VINA RESULT:      -6.1      2.762      5.984
REMARK  Name = 
REMARK  10 active torsions:
REMARK  status: ('A' for Active; 'I' for Inactive)
REMARK    1  A    between atoms: C_1  and  O_2
REMARK    2  A    between atoms: O_2  and  C_3
REMARK    3  A    between atoms: C_6  and  C_7
REMARK    4  A    between atoms: C_8  and  C_9
REMARK    5  A    between atoms: C_11  and  O_12
REMARK    6  A    between atoms: O_12  and  C_13
REMARK    7  A    between atoms: C_14  and  O_15
REMARK    8  A    between atoms: O_15  and  C_16
REMARK    9  A    between atoms: C_17  and  O_18
REMARK   10  A    between atoms: O_18  and  C_19
REMARK                            x       y       z     vdW  Elec       q    Type
REMARK                         _______ _______ _______ _____ _____    ______ ____
ROOT
ATOM      1  C   UNL     1       3.227   6.351  17.962  0.00  0.00    +0.000 A 
ATOM      2  C   UNL     1       2.266   5.344  17.975  0.00  0.00    +0.000 A 
ATOM      3  C   UNL     1       2.608   4.047  18.379  0.00  0.00    +0.000 A 
ATOM      4  C   UNL     1       3.921   3.767  18.821  0.00  0.00    +0.000 A 
ATOM      5  C   UNL     1       4.877   4.803  18.874  0.00  0.00    +0.000 A 
ATOM      6  C   UNL     1       4.515   6.086  18.438  0.00  0.00    +0.000 A 
ENDROOT
BRANCH   1   8
ATOM      7  C   UNL     1       2.238   8.671  17.769  0.00  0.00    +0.000 C 
ATOM      8  C   UNL     1       2.944   7.630  17.307  0.00  0.00    +0.000 C 
BRANCH   7  12
ATOM      9  C   UNL     1       0.585   9.150  21.599  0.00  0.00    +0.000 A 
ATOM     10  C   UNL     1       0.227  10.052  20.604  0.00  0.00    +0.000 A 
ATOM     11  C   UNL     1       0.720   9.876  19.311  0.00  0.00    +0.000 A 
ATOM     12  C   UNL     1       1.573   8.805  19.062  0.00  0.00    +0.000 A 
ATOM     13  N   UNL     1       1.957   7.928  20.011  0.00  0.00    +0.000 NA
ATOM     14  C   UNL     1       1.447   8.118  21.253  0.00  0.00    +0.000 A 
BRANCH   9  16
ATOM     15  C   UNL     1      -0.854  10.117  23.201  0.00  0.00    +0.000 C 
ATOM     16  O   UNL     1       0.203   9.210  22.908  0.00  0.00    +0.000 OA
ENDBRANCH   9  16
ENDBRANCH   7  12
ENDBRANCH   1   8
BRANCH   3  17
ATOM     17  O   UNL     1       1.719   2.996  18.353  0.00  0.00    +0.000 OA
ATOM     18  C   UNL     1       0.724   2.998  19.373  0.00  0.00    +0.000 C 
ENDBRANCH   3  17
BRANCH   4  19
ATOM     19  O   UNL     1       4.151   2.467  19.221  0.00  0.00    +0.000 OA
ATOM     20  C   UNL     1       4.136   2.227  20.627  0.00  0.00    +0.000 C 
ENDBRANCH   4  19
BRANCH   5  21
ATOM     21  O   UNL     1       6.128   4.498  19.345  0.00  0.00    +0.000 OA
ATOM     22  C   UNL     1       7.110   5.526  19.358  0.00  0.00    +0.000 C 
ENDBRANCH   5  21
TORSDOF 6
ENDMDL
MODEL 8
REMARK VINA RESULT:      -6.0      2.212      6.136
REMARK  Name = 
REMARK  10 active torsions:
REMARK  status: ('A' for Active; 'I' for Inactive)
REMARK    1  A    between atoms: C_1  and  O_2
REMARK    2  A    between atoms: O_2  and  C_3
REMARK    3  A    between atoms: C_6  and  C_7
REMARK    4  A    between atoms: C_8  and  C_9
REMARK    5  A    between atoms: C_11  and  O_12
REMARK    6  A    between atoms: O_12  and  C_13
REMARK    7  A    between atoms: C_14  and  O_15
REMARK    8  A    between atoms: O_15  and  C_16
REMARK    9  A    between atoms: C_17  and  O_18
REMARK   10  A    between atoms: O_18  and  C_19
REMARK                            x       y       z     vdW  Elec       q    Type
REMARK                         _______ _______ _______ _____ _____    ______ ____
ROOT
ATOM      1  C   UNL     1       4.744   3.928  17.491  0.00  0.00    +0.000 A 
ATOM      2  C   UNL     1       5.257   4.347  16.267  0.00  0.00    +0.000 A 
ATOM      3  C   UNL     1       6.335   5.242  16.222  0.00  0.00    +0.000 A 
ATOM      4  C   UNL     1       6.935   5.686  17.422  0.00  0.00    +0.000 A 
ATOM      5  C   UNL     1       6.459   5.208  18.662  0.00  0.00    +0.000 A 
ATOM      6  C   UNL     1       5.362   4.334  18.678  0.00  0.00    +0.000 A 
ENDROOT
BRANCH   1   8
ATOM      7  C   UNL     1       2.315   3.582  18.107  0.00  0.00    +0.000 C 
ATOM      8  C   UNL     1       3.472   3.203  17.546  0.00  0.00    +0.000 C 
BRANCH   7  12
ATOM      9  C   UNL     1       1.707   7.131  20.269  0.00  0.00    +0.000 A 
ATOM     10  C   UNL     1       2.088   7.223  18.934  0.00  0.00    +0.000 A 
ATOM     11  C   UNL     1       2.238   6.056  18.183  0.00  0.00    +0.000 A 
ATOM     12  C   UNL     1       2.018   4.830  18.803  0.00  0.00    +0.000 A 
ATOM     13  N   UNL     1       1.671   4.708  20.100  0.00  0.00    +0.000 NA
ATOM     14  C   UNL     1       1.517   5.860  20.797  0.00  0.00    +0.000 A 
BRANCH   9  16
ATOM     15  C   UNL     1       0.717   9.237  20.663  0.00  0.00    +0.000 C 
ATOM     16  O   UNL     1       1.547   8.178  21.129  0.00  0.00    +0.000 OA
ENDBRANCH   9  16
ENDBRANCH   7  12
ENDBRANCH   1   8
BRANCH   3  17
ATOM     17  O   UNL     1       6.845   5.740  15.045  0.00  0.00    +0.000 OA
ATOM     18  C   UNL     1       6.961   4.809  13.974  0.00  0.00    +0.000 C 
ENDBRANCH   3  17
BRANCH   4  19
ATOM     19  O   UNL     1       8.003   6.546  17.272  0.00  0.00    +0.000 OA
ATOM     20  C   UNL     1       7.749   7.923  17.538  0.00  0.00    +0.000 C 
ENDBRANCH   4  19
BRANCH   5  21
ATOM     21  O   UNL     1       7.094   5.634  19.800  0.00  0.00    +0.000 OA
ATOM     22  C   UNL     1       8.421   5.182  20.037  0.00  0.00    +0.000 C 
ENDBRANCH   5  21
TORSDOF 6
ENDMDL
MODEL 9
REMARK VINA RESULT:      -6.0      2.815      4.134
REMARK  Name = 
REMARK  10 active torsions:
REMARK  status: ('A' for Active; 'I' for Inactive)
REMARK    1  A    between atoms: C_1  and  O_2
REMARK    2  A    between atoms: O_2  and  C_3
REMARK    3  A    between atoms: C_6  and  C_7
REMARK    4  A    between atoms: C_8  and  C_9
REMARK    5  A    between atoms: C_11  and  O_12
REMARK    6  A    between atoms: O_12  and  C_13
REMARK    7  A    between atoms: C_14  and  O_15
REMARK    8  A    between atoms: O_15  and  C_16
REMARK    9  A    between atoms: C_17  and  O_18
REMARK   10  A    between atoms: O_18  and  C_19
REMARK                            x       y       z     vdW  Elec       q    Type
REMARK                         _______ _______ _______ _____ _____    ______ ____
ROOT
ATOM      1  C   UNL     1       5.151   5.226  19.155  0.00  0.00    +0.000 A 
ATOM      2  C   UNL     1       5.045   3.838  19.150  0.00  0.00    +0.000 A 
ATOM      3  C   UNL     1       3.886   3.217  19.633  0.00  0.00    +0.000 A 
ATOM      4  C   UNL     1       2.801   4.000  20.086  0.00  0.00    +0.000 A 
ATOM      5  C   UNL     1       2.881   5.408  20.027  0.00  0.00    +0.000 A 
ATOM      6  C   UNL     1       4.063   6.004  19.564  0.00  0.00    +0.000 A 
ENDROOT
BRANCH   1   8
ATOM      7  C   UNL     1       7.091   5.996  17.727  0.00  0.00    +0.000 C 
ATOM      8  C   UNL     1       6.442   5.866  18.892  0.00  0.00    +0.000 C 
BRANCH   7  12
ATOM      9  C   UNL     1       5.858   4.414  14.038  0.00  0.00    +0.000 A 
ATOM     10  C   UNL     1       4.973   5.223  14.743  0.00  0.00    +0.000 A 
ATOM     11  C   UNL     1       5.385   5.805  15.942  0.00  0.00    +0.000 A 
ATOM     12  C   UNL     1       6.671   5.542  16.405  0.00  0.00    +0.000 A 
ATOM     13  N   UNL     1       7.542   4.743  15.757  0.00  0.00    +0.000 NA
ATOM     14  C   UNL     1       7.116   4.206  14.587  0.00  0.00    +0.000 A 
BRANCH   9  16
ATOM     15  C   UNL     1       6.719   3.444  12.067  0.00  0.00    +0.000 C 
ATOM     16  O   UNL     1       5.588   3.760  12.871  0.00  0.00    +0.000 OA
ENDBRANCH   9  16
ENDBRANCH   7  12
ENDBRANCH   1   8
BRANCH   3  17
ATOM     17  O   UNL     1       3.747   1.849  19.712  0.00  0.00    +0.000 OA
ATOM     18  C   UNL     1       3.791   1.147  18.474  0.00  0.00    +0.000 C 
ENDBRANCH   3  17
BRANCH   4  19
ATOM     19  O   UNL     1       1.696   3.296  20.520  0.00  0.00    +0.000 OA
ATOM     20  C   UNL     1       0.742   2.940  19.522  0.00  0.00    +0.000 C 
ENDBRANCH   4  19
BRANCH   5  21
ATOM     21  O   UNL     1       1.791   6.130  20.440  0.00  0.00    +0.000 OA
ATOM     22  C   UNL     1       1.839   7.546  20.320  0.00  0.00    +0.000 C 
ENDBRANCH   5  21
TORSDOF 6
ENDMDL
