MODEL 1
REMARK VINA RESULT:      -6.4      0.000      0.000
REMARK  Name = 
REMARK  6 active torsions:
REMARK  status: ('A' for Active; 'I' for Inactive)
REMARK    1  A    between atoms: C_1  and  C_2
REMARK    2  A    between atoms: C_2  and  C_3
REMARK    3  A    between atoms: C_2  and  C_4
REMARK    4  A    between atoms: C_4  and  N_5
REMARK    5  A    between atoms: C_10  and  C_11
REMARK    6  A    between atoms: C_18  and  O_19
REMARK                            x       y       z     vdW  Elec       q    Type
REMARK                         _______ _______ _______ _____ _____    ______ ____
ROOT
ATOM      1  N   UNL     1      -0.739  10.298  18.623  0.00  0.00    +0.000 N 
ATOM      2  C   UNL     1      -0.880  10.522  20.018  0.00  0.00    +0.000 A 
ATOM      3  C   UNL     1       0.137  11.403  20.352  0.00  0.00    +0.000 A 
ATOM      4  C   UNL     1       0.786  11.633  19.153  0.00  0.00    +0.000 A 
ATOM      5  N   UNL     1       0.372  10.898  18.124  0.00  0.00    +0.000 NA
ATOM      6  C   UNL     1       1.254  13.050  19.067  0.00  0.00    +0.000 C 
ATOM      7  C   UNL     1       2.504  13.143  18.200  0.00  0.00    +0.000 C 
ATOM      8  C   UNL     1      -0.012  13.784  18.510  0.00  0.00    +0.000 C 
ATOM      9  C   UNL     1      -0.454  14.921  19.436  0.00  0.00    +0.000 C 
ATOM     10  C   UNL     1       0.238  15.860  20.463  0.00  0.00    +0.000 C 
ATOM     11  C   UNL     1       0.304  17.135  19.548  0.00  0.00    +0.000 A 
ATOM     12  C   UNL     1      -0.908  17.469  18.881  0.00  0.00    +0.000 A 
ATOM     13  C   UNL     1      -0.895  17.844  17.538  0.00  0.00    +0.000 A 
ATOM     14  C   UNL     1       0.327  18.048  16.912  0.00  0.00    +0.000 A 
ATOM     15  C   UNL     1       1.527  17.910  17.615  0.00  0.00    +0.000 A 
ATOM     16  C   UNL     1       1.529  17.425  18.939  0.00  0.00    +0.000 A 
ATOM     17  C   UNL     1       2.787  17.137  19.698  0.00  0.00    +0.000 C 
ATOM     18  C   UNL     1       2.835  15.822  20.520  0.00  0.00    +0.000 C 
ATOM     19  C   UNL     1       1.516  15.086  20.944  0.00  0.00    +0.000 C 
ATOM     20  C   UNL     1       1.524  13.450  20.602  0.00  0.00    +0.000 C 
ATOM     21  C   UNL     1       0.495  12.447  21.397  0.00  0.00    +0.000 C 
ENDROOT
BRANCH  14  22
ATOM     22  O   UNL     1       0.373  18.344  15.575  0.00  0.00    +0.000 OA
ATOM     23  H   UNL     1      -0.504  18.186  15.193  0.00  0.00    +0.000 HD
ENDBRANCH  14  22
BRANCH   1  24
ATOM     24  C   UNL     1      -1.777   9.919  17.659  0.00  0.00    +0.000 C 
BRANCH  24  26
ATOM     25  C   UNL     1      -2.951  10.757  15.578  0.00  0.00    +0.000 C 
ATOM     26  C   UNL     1      -2.535  11.099  17.006  0.00  0.00    +0.000 C 
ATOM     27  C   UNL     1      -3.781  11.510  17.807  0.00  0.00    +0.000 C 
ENDBRANCH  24  26
ENDBRANCH   1  24
TORSDOF 3
ENDMDL
MODEL 2
REMARK VINA RESULT:      -6.3      4.184      5.511
REMARK  Name = 
REMARK  6 active torsions:
REMARK  status: ('A' for Active; 'I' for Inactive)
REMARK    1  A    between atoms: C_1  and  C_2
REMARK    2  A    between atoms: C_2  and  C_3
REMARK    3  A    between atoms: C_2  and  C_4
REMARK    4  A    between atoms: C_4  and  N_5
REMARK    5  A    between atoms: C_10  and  C_11
REMARK    6  A    between atoms: C_18  and  O_19
REMARK                            x       y       z     vdW  Elec       q    Type
REMARK                         _______ _______ _______ _____ _____    ______ ____
ROOT
ATOM      1  N   UNL     1      -1.434  10.909  18.286  0.00  0.00    +0.000 N 
ATOM      2  C   UNL     1      -0.602  10.361  19.297  0.00  0.00    +0.000 A 
ATOM      3  C   UNL     1      -0.344  11.409  20.167  0.00  0.00    +0.000 A 
ATOM      4  C   UNL     1      -1.033  12.474  19.618  0.00  0.00    +0.000 A 
ATOM      5  N   UNL     1      -1.593  12.249  18.433  0.00  0.00    +0.000 NA
ATOM      6  C   UNL     1      -1.606  13.343  20.692  0.00  0.00    +0.000 C 
ATOM      7  C   UNL     1      -1.708  14.785  20.208  0.00  0.00    +0.000 C 
ATOM      8  C   UNL     1      -2.968  12.634  20.999  0.00  0.00    +0.000 C 
ATOM      9  C   UNL     1      -3.082  12.256  22.479  0.00  0.00    +0.000 C 
ATOM     10  C   UNL     1      -2.501  12.790  23.817  0.00  0.00    +0.000 C 
ATOM     11  C   UNL     1      -3.787  13.550  24.300  0.00  0.00    +0.000 A 
ATOM     12  C   UNL     1      -5.000  12.809  24.218  0.00  0.00    +0.000 A 
ATOM     13  C   UNL     1      -6.160  13.404  23.724  0.00  0.00    +0.000 A 
ATOM     14  C   UNL     1      -6.156  14.769  23.474  0.00  0.00    +0.000 A 
ATOM     15  C   UNL     1      -5.024  15.546  23.736  0.00  0.00    +0.000 A 
ATOM     16  C   UNL     1      -3.814  14.938  24.128  0.00  0.00    +0.000 A 
ATOM     17  C   UNL     1      -2.538  15.701  24.300  0.00  0.00    +0.000 C 
ATOM     18  C   UNL     1      -1.246  15.063  23.727  0.00  0.00    +0.000 C 
ATOM     19  C   UNL     1      -1.168  13.524  23.432  0.00  0.00    +0.000 C 
ATOM     20  C   UNL     1      -0.573  13.162  21.913  0.00  0.00    +0.000 C 
ATOM     21  C   UNL     1       0.044  11.670  21.613  0.00  0.00    +0.000 C 
ENDROOT
BRANCH  14  22
ATOM     22  O   UNL     1      -7.257  15.369  22.919  0.00  0.00    +0.000 OA
ATOM     23  H   UNL     1      -7.007  15.734  22.056  0.00  0.00    +0.000 HD
ENDBRANCH  14  22
BRANCH   1  24
ATOM     24  C   UNL     1      -2.416  10.214  17.448  0.00  0.00    +0.000 C 
BRANCH  24  26
ATOM     25  C   UNL     1      -3.043  10.382  15.000  0.00  0.00    +0.000 C 
ATOM     26  C   UNL     1      -3.084  11.082  16.355  0.00  0.00    +0.000 C 
ATOM     27  C   UNL     1      -4.542  11.432  16.694  0.00  0.00    +0.000 C 
ENDBRANCH  24  26
ENDBRANCH   1  24
TORSDOF 3
ENDMDL
MODEL 3
REMARK VINA RESULT:      -6.3      4.216      6.758
REMARK  Name = 
REMARK  6 active torsions:
REMARK  status: ('A' for Active; 'I' for Inactive)
REMARK    1  A    between atoms: C_1  and  C_2
REMARK    2  A    between atoms: C_2  and  C_3
REMARK    3  A    between atoms: C_2  and  C_4
REMARK    4  A    between atoms: C_4  and  N_5
REMARK    5  A    between atoms: C_10  and  C_11
REMARK    6  A    between atoms: C_18  and  O_19
REMARK                            x       y       z     vdW  Elec       q    Type
REMARK                         _______ _______ _______ _____ _____    ______ ____
ROOT
ATOM      1  N   UNL     1      -0.498  12.220  21.779  0.00  0.00    +0.000 N 
ATOM      2  C   UNL     1      -1.245  11.568  22.794  0.00  0.00    +0.000 A 
ATOM      3  C   UNL     1      -2.322  12.404  23.050  0.00  0.00    +0.000 A 
ATOM      4  C   UNL     1      -2.136  13.462  22.181  0.00  0.00    +0.000 A 
ATOM      5  N   UNL     1      -0.996  13.451  21.495  0.00  0.00    +0.000 NA
ATOM      6  C   UNL     1      -3.448  13.960  21.666  0.00  0.00    +0.000 C 
ATOM      7  C   UNL     1      -3.359  15.447  21.342  0.00  0.00    +0.000 C 
ATOM      8  C   UNL     1      -3.703  13.015  20.443  0.00  0.00    +0.000 C 
ATOM      9  C   UNL     1      -5.042  12.282  20.572  0.00  0.00    +0.000 C 
ATOM     10  C   UNL     1      -6.405  12.556  21.266  0.00  0.00    +0.000 C 
ATOM     11  C   UNL     1      -7.195  12.992  19.980  0.00  0.00    +0.000 A 
ATOM     12  C   UNL     1      -7.053  12.129  18.856  0.00  0.00    +0.000 A 
ATOM     13  C   UNL     1      -6.848  12.657  17.582  0.00  0.00    +0.000 A 
ATOM     14  C   UNL     1      -6.955  14.029  17.402  0.00  0.00    +0.000 A 
ATOM     15  C   UNL     1      -7.287  14.871  18.466  0.00  0.00    +0.000 A 
ATOM     16  C   UNL     1      -7.385  14.362  19.778  0.00  0.00    +0.000 A 
ATOM     17  C   UNL     1      -7.613  15.233  20.974  0.00  0.00    +0.000 C 
ATOM     18  C   UNL     1      -6.766  14.938  22.240  0.00  0.00    +0.000 C 
ATOM     19  C   UNL     1      -6.084  13.540  22.446  0.00  0.00    +0.000 C 
ATOM     20  C   UNL     1      -4.470  13.639  22.867  0.00  0.00    +0.000 C 
ATOM     21  C   UNL     1      -3.739  12.363  23.598  0.00  0.00    +0.000 C 
ENDROOT
BRANCH  14  22
ATOM     22  O   UNL     1      -6.686  14.584  16.178  0.00  0.00    +0.000 OA
ATOM     23  H   UNL     1      -5.728  14.705  16.097  0.00  0.00    +0.000 HD
ENDBRANCH  14  22
BRANCH   1  24
ATOM     24  C   UNL     1       0.384  11.615  20.776  0.00  0.00    +0.000 C 
BRANCH  24  26
ATOM     25  C   UNL     1      -1.182  10.590  19.070  0.00  0.00    +0.000 C 
ATOM     26  C   UNL     1      -0.137  10.302  20.144  0.00  0.00    +0.000 C 
ATOM     27  C   UNL     1       0.993   9.459  19.531  0.00  0.00    +0.000 C 
ENDBRANCH  24  26
ENDBRANCH   1  24
TORSDOF 3
ENDMDL
MODEL 4
REMARK VINA RESULT:      -6.0      3.849      5.040
REMARK  Name = 
REMARK  6 active torsions:
REMARK  status: ('A' for Active; 'I' for Inactive)
REMARK    1  A    between atoms: C_1  and  C_2
REMARK    2  A    between atoms: C_2  and  C_3
REMARK    3  A    between atoms: C_2  and  C_4
REMARK    4  A    between atoms: C_4  and  N_5
REMARK    5  A    between atoms: C_10  and  C_11
REMARK    6  A    between atoms: C_18  and  O_19
REMARK                            x       y       z     vdW  Elec       q    Type
REMARK                         _______ _______ _______ _____ _____    ______ ____
ROOT
ATOM      1  N   UNL     1      -0.626  10.634  18.719  0.00  0.00    +0.000 N 
ATOM      2  C   UNL     1      -0.468   9.978  19.968  0.00  0.00    +0.000 A 
ATOM      3  C   UNL     1      -0.395  10.993  20.909  0.00  0.00    +0.000 A 
ATOM      4  C   UNL     1      -0.518  12.149  20.161  0.00  0.00    +0.000 A 
ATOM      5  N   UNL     1      -0.534  11.983  18.841  0.00  0.00    +0.000 NA
ATOM      6  C   UNL     1      -1.298  13.183  20.910  0.00  0.00    +0.000 C 
ATOM      7  C   UNL     1      -0.856  14.581  20.496  0.00  0.00    +0.000 C 
ATOM      8  C   UNL     1      -2.775  12.806  20.551  0.00  0.00    +0.000 C 
ATOM      9  C   UNL     1      -3.609  12.547  21.810  0.00  0.00    +0.000 C 
ATOM     10  C   UNL     1      -3.574  13.019  23.290  0.00  0.00    +0.000 C 
ATOM     11  C   UNL     1      -4.739  14.068  23.190  0.00  0.00    +0.000 A 
ATOM     12  C   UNL     1      -5.922  13.604  22.547  0.00  0.00    +0.000 A 
ATOM     13  C   UNL     1      -6.583  14.407  21.619  0.00  0.00    +0.000 A 
ATOM     14  C   UNL     1      -6.170  15.722  21.458  0.00  0.00    +0.000 A 
ATOM     15  C   UNL     1      -5.128  16.248  22.228  0.00  0.00    +0.000 A 
ATOM     16  C   UNL     1      -4.381  15.415  23.086  0.00  0.00    +0.000 A 
ATOM     17  C   UNL     1      -3.178  15.891  23.838  0.00  0.00    +0.000 C 
ATOM     18  C   UNL     1      -1.941  14.956  23.866  0.00  0.00    +0.000 C 
ATOM     19  C   UNL     1      -2.083  13.422  23.567  0.00  0.00    +0.000 C 
ATOM     20  C   UNL     1      -0.976  12.853  22.452  0.00  0.00    +0.000 C 
ATOM     21  C   UNL     1      -0.636  11.247  22.388  0.00  0.00    +0.000 C 
ENDROOT
BRANCH  14  22
ATOM     22  O   UNL     1      -6.751  16.513  20.502  0.00  0.00    +0.000 OA
ATOM     23  H   UNL     1      -7.600  16.119  20.249  0.00  0.00    +0.000 HD
ENDBRANCH  14  22
BRANCH   1  24
ATOM     24  C   UNL     1      -1.265  10.122  17.503  0.00  0.00    +0.000 C 
BRANCH  24  26
ATOM     25  C   UNL     1      -2.772  10.708  15.554  0.00  0.00    +0.000 C 
ATOM     26  C   UNL     1      -2.532  10.885  17.051  0.00  0.00    +0.000 C 
ATOM     27  C   UNL     1      -3.790  10.440  17.816  0.00  0.00    +0.000 C 
ENDBRANCH  24  26
ENDBRANCH   1  24
TORSDOF 3
ENDMDL
MODEL 5
REMARK VINA RESULT:      -6.0      8.505     10.210
REMARK  Name = 
REMARK  6 active torsions:
REMARK  status: ('A' for Active; 'I' for Inactive)
REMARK    1  A    between atoms: C_1  and  C_2
REMARK    2  A    between atoms: C_2  and  C_3
REMARK    3  A    between atoms: C_2  and  C_4
REMARK    4  A    between atoms: C_4  and  N_5
REMARK    5  A    between atoms: C_10  and  C_11
REMARK    6  A    between atoms: C_18  and  O_19
REMARK                            x       y       z     vdW  Elec       q    Type
REMARK                         _______ _______ _______ _____ _____    ______ ____
ROOT
ATOM      1  N   UNL     1      10.546  12.597  17.913  0.00  0.00    +0.000 N 
ATOM      2  C   UNL     1      11.743  13.156  18.432  0.00  0.00    +0.000 A 
ATOM      3  C   UNL     1      11.384  14.405  18.916  0.00  0.00    +0.000 A 
ATOM      4  C   UNL     1      10.029  14.485  18.657  0.00  0.00    +0.000 A 
ATOM      5  N   UNL     1       9.517  13.481  17.949  0.00  0.00    +0.000 NA
ATOM      6  C   UNL     1       9.323  15.216  19.754  0.00  0.00    +0.000 C 
ATOM      7  C   UNL     1       8.088  15.924  19.209  0.00  0.00    +0.000 C 
ATOM      8  C   UNL     1       9.046  14.072  20.787  0.00  0.00    +0.000 C 
ATOM      9  C   UNL     1       9.642  14.400  22.160  0.00  0.00    +0.000 C 
ATOM     10  C   UNL     1       9.985  15.694  22.949  0.00  0.00    +0.000 C 
ATOM     11  C   UNL     1       8.744  15.673  23.910  0.00  0.00    +0.000 A 
ATOM     12  C   UNL     1       8.482  14.423  24.540  0.00  0.00    +0.000 A 
ATOM     13  C   UNL     1       7.180  13.932  24.622  0.00  0.00    +0.000 A 
ATOM     14  C   UNL     1       6.130  14.753  24.235  0.00  0.00    +0.000 A 
ATOM     15  C   UNL     1       6.362  16.059  23.795  0.00  0.00    +0.000 A 
ATOM     16  C   UNL     1       7.679  16.526  23.603  0.00  0.00    +0.000 A 
ATOM     17  C   UNL     1       7.990  17.868  23.016  0.00  0.00    +0.000 C 
ATOM     18  C   UNL     1       9.122  17.936  21.958  0.00  0.00    +0.000 C 
ATOM     19  C   UNL     1      10.204  16.804  21.860  0.00  0.00    +0.000 C 
ATOM     20  C   UNL     1      10.439  16.235  20.307  0.00  0.00    +0.000 C 
ATOM     21  C   UNL     1      11.830  15.447  19.929  0.00  0.00    +0.000 C 
ENDROOT
BRANCH  14  22
ATOM     22  O   UNL     1       4.847  14.273  24.234  0.00  0.00    +0.000 OA
ATOM     23  H   UNL     1       4.668  13.867  25.097  0.00  0.00    +0.000 HD
ENDBRANCH  14  22
BRANCH   1  24
ATOM     24  C   UNL     1      10.197  11.180  17.773  0.00  0.00    +0.000 C 
BRANCH  24  26
ATOM     25  C   UNL     1       8.459   9.375  18.138  0.00  0.00    +0.000 C 
ATOM     26  C   UNL     1       9.014  10.702  18.648  0.00  0.00    +0.000 C 
ATOM     27  C   UNL     1       9.405  10.547  20.127  0.00  0.00    +0.000 C 
ENDBRANCH  24  26
ENDBRANCH   1  24
TORSDOF 3
ENDMDL
MODEL 6
REMARK VINA RESULT:      -6.0      4.397      5.693
REMARK  Name = 
REMARK  6 active torsions:
REMARK  status: ('A' for Active; 'I' for Inactive)
REMARK    1  A    between atoms: C_1  and  C_2
REMARK    2  A    between atoms: C_2  and  C_3
REMARK    3  A    between atoms: C_2  and  C_4
REMARK    4  A    between atoms: C_4  and  N_5
REMARK    5  A    between atoms: C_10  and  C_11
REMARK    6  A    between atoms: C_18  and  O_19
REMARK                            x       y       z     vdW  Elec       q    Type
REMARK                         _______ _______ _______ _____ _____    ______ ____
ROOT
ATOM      1  N   UNL     1      -1.146  11.659  18.379  0.00  0.00    +0.000 N 
ATOM      2  C   UNL     1      -0.852  10.741  19.422  0.00  0.00    +0.000 A 
ATOM      3  C   UNL     1      -0.733  11.514  20.567  0.00  0.00    +0.000 A 
ATOM      4  C   UNL     1      -0.966  12.803  20.125  0.00  0.00    +0.000 A 
ATOM      5  N   UNL     1      -1.093  12.946  18.808  0.00  0.00    +0.000 NA
ATOM      6  C   UNL     1      -1.713  13.588  21.155  0.00  0.00    +0.000 C 
ATOM      7  C   UNL     1      -1.362  15.068  21.049  0.00  0.00    +0.000 C 
ATOM      8  C   UNL     1      -3.201  13.221  20.834  0.00  0.00    +0.000 C 
ATOM      9  C   UNL     1      -3.909  12.631  22.058  0.00  0.00    +0.000 C 
ATOM     10  C   UNL     1      -3.759  12.748  23.600  0.00  0.00    +0.000 C 
ATOM     11  C   UNL     1      -4.966  13.723  23.842  0.00  0.00    +0.000 A 
ATOM     12  C   UNL     1      -6.184  13.354  23.203  0.00  0.00    +0.000 A 
ATOM     13  C   UNL     1      -6.955  14.312  22.545  0.00  0.00    +0.000 A 
ATOM     14  C   UNL     1      -6.606  15.650  22.667  0.00  0.00    +0.000 A 
ATOM     15  C   UNL     1      -5.520  16.042  23.454  0.00  0.00    +0.000 A 
ATOM     16  C   UNL     1      -4.670  15.076  24.031  0.00  0.00    +0.000 A 
ATOM     17  C   UNL     1      -3.422  15.432  24.778  0.00  0.00    +0.000 C 
ATOM     18  C   UNL     1      -2.154  14.588  24.487  0.00  0.00    +0.000 C 
ATOM     19  C   UNL     1      -2.265  13.160  23.847  0.00  0.00    +0.000 C 
ATOM     20  C   UNL     1      -1.243  12.929  22.545  0.00  0.00    +0.000 C 
ATOM     21  C   UNL     1      -0.850  11.404  22.079  0.00  0.00    +0.000 C 
ENDROOT
BRANCH  14  22
ATOM     22  O   UNL     1      -7.300  16.606  21.973  0.00  0.00    +0.000 OA
ATOM     23  H   UNL     1      -7.092  16.516  21.030  0.00  0.00    +0.000 HD
ENDBRANCH  14  22
BRANCH   1  24
ATOM     24  C   UNL     1      -1.872  11.407  17.131  0.00  0.00    +0.000 C 
BRANCH  24  26
ATOM     25  C   UNL     1      -4.155  10.555  17.818  0.00  0.00    +0.000 C 
ATOM     26  C   UNL     1      -2.829  10.192  17.157  0.00  0.00    +0.000 C 
ATOM     27  C   UNL     1      -3.106   9.634  15.751  0.00  0.00    +0.000 C 
ENDBRANCH  24  26
ENDBRANCH   1  24
TORSDOF 3
ENDMDL
MODEL 7
REMARK VINA RESULT:      -5.9      8.260     10.626
REMARK  Name = 
REMARK  6 active torsions:
REMARK  status: ('A' for Active; 'I' for Inactive)
REMARK    1  A    between atoms: C_1  and  C_2
REMARK    2  A    between atoms: C_2  and  C_3
REMARK    3  A    between atoms: C_2  and  C_4
REMARK    4  A    between atoms: C_4  and  N_5
REMARK    5  A    between atoms: C_10  and  C_11
REMARK    6  A    between atoms: C_18  and  O_19
REMARK                            x       y       z     vdW  Elec       q    Type
REMARK                         _______ _______ _______ _____ _____    ______ ____
ROOT
ATOM      1  N   UNL     1      10.977  13.984  18.042  0.00  0.00    +0.000 N 
ATOM      2  C   UNL     1      11.770  14.888  18.796  0.00  0.00    +0.000 A 
ATOM      3  C   UNL     1      10.866  15.657  19.514  0.00  0.00    +0.000 A 
ATOM      4  C   UNL     1       9.633  15.156  19.141  0.00  0.00    +0.000 A 
ATOM      5  N   UNL     1       9.651  14.242  18.174  0.00  0.00    +0.000 NA
ATOM      6  C   UNL     1       8.685  15.169  20.298  0.00  0.00    +0.000 C 
ATOM      7  C   UNL     1       7.252  15.328  19.805  0.00  0.00    +0.000 C 
ATOM      8  C   UNL     1       9.011  13.811  21.008  0.00  0.00    +0.000 C 
ATOM      9  C   UNL     1       9.403  14.025  22.473  0.00  0.00    +0.000 C 
ATOM     10  C   UNL     1       9.101  15.085  23.568  0.00  0.00    +0.000 C 
ATOM     11  C   UNL     1       8.040  14.246  24.366  0.00  0.00    +0.000 A 
ATOM     12  C   UNL     1       8.422  12.906  24.662  0.00  0.00    +0.000 A 
ATOM     13  C   UNL     1       7.516  11.860  24.495  0.00  0.00    +0.000 A 
ATOM     14  C   UNL     1       6.194  12.161  24.200  0.00  0.00    +0.000 A 
ATOM     15  C   UNL     1       5.763  13.487  24.097  0.00  0.00    +0.000 A 
ATOM     16  C   UNL     1       6.692  14.547  24.153  0.00  0.00    +0.000 A 
ATOM     17  C   UNL     1       6.310  15.976  23.924  0.00  0.00    +0.000 C 
ATOM     18  C   UNL     1       7.251  16.829  23.033  0.00  0.00    +0.000 C 
ATOM     19  C   UNL     1       8.740  16.400  22.791  0.00  0.00    +0.000 C 
ATOM     20  C   UNL     1       9.188  16.417  21.181  0.00  0.00    +0.000 C 
ATOM     21  C   UNL     1      10.778  16.495  20.778  0.00  0.00    +0.000 C 
ENDROOT
BRANCH  14  22
ATOM     22  O   UNL     1       5.298  11.154  23.957  0.00  0.00    +0.000 OA
ATOM     23  H   UNL     1       5.774  10.309  23.958  0.00  0.00    +0.000 HD
ENDBRANCH  14  22
BRANCH   1  24
ATOM     24  C   UNL     1      11.346  12.655  17.546  0.00  0.00    +0.000 C 
BRANCH  24  26
ATOM     25  C   UNL     1      11.914  11.982  19.921  0.00  0.00    +0.000 C 
ATOM     26  C   UNL     1      11.305  11.522  18.600  0.00  0.00    +0.000 C 
ATOM     27  C   UNL     1       9.878  11.012  18.856  0.00  0.00    +0.000 C 
ENDBRANCH  24  26
ENDBRANCH   1  24
TORSDOF 3
ENDMDL
MODEL 8
REMARK VINA RESULT:      -5.8      3.483      7.322
REMARK  Name = 
REMARK  6 active torsions:
REMARK  status: ('A' for Active; 'I' for Inactive)
REMARK    1  A    between atoms: C_1  and  C_2
REMARK    2  A    between atoms: C_2  and  C_3
REMARK    3  A    between atoms: C_2  and  C_4
REMARK    4  A    between atoms: C_4  and  N_5
REMARK    5  A    between atoms: C_10  and  C_11
REMARK    6  A    between atoms: C_18  and  O_19
REMARK                            x       y       z     vdW  Elec       q    Type
REMARK                         _______ _______ _______ _____ _____    ______ ____
ROOT
ATOM      1  N   UNL     1       3.857  16.315  20.303  0.00  0.00    +0.000 N 
ATOM      2  C   UNL     1       2.591  16.955  20.367  0.00  0.00    +0.000 A 
ATOM      3  C   UNL     1       1.744  16.170  19.601  0.00  0.00    +0.000 A 
ATOM      4  C   UNL     1       2.554  15.143  19.154  0.00  0.00    +0.000 A 
ATOM      5  N   UNL     1       3.847  15.259  19.448  0.00  0.00    +0.000 NA
ATOM      6  C   UNL     1       1.796  13.856  19.098  0.00  0.00    +0.000 C 
ATOM      7  C   UNL     1       2.362  12.955  18.007  0.00  0.00    +0.000 C 
ATOM      8  C   UNL     1       1.943  13.321  20.563  0.00  0.00    +0.000 C 
ATOM      9  C   UNL     1       0.577  13.069  21.208  0.00  0.00    +0.000 C 
ATOM     10  C   UNL     1      -0.849  12.714  20.703  0.00  0.00    +0.000 C 
ATOM     11  C   UNL     1      -0.813  11.187  21.071  0.00  0.00    +0.000 A 
ATOM     12  C   UNL     1      -0.355  10.889  22.386  0.00  0.00    +0.000 A 
ATOM     13  C   UNL     1       0.542   9.844  22.602  0.00  0.00    +0.000 A 
ATOM     14  C   UNL     1       0.849   8.998  21.545  0.00  0.00    +0.000 A 
ATOM     15  C   UNL     1       0.253   9.166  20.292  0.00  0.00    +0.000 A 
ATOM     16  C   UNL     1      -0.568  10.283  20.034  0.00  0.00    +0.000 A 
ATOM     17  C   UNL     1      -1.131  10.584  18.680  0.00  0.00    +0.000 C 
ATOM     18  C   UNL     1      -1.077  12.057  18.199  0.00  0.00    +0.000 C 
ATOM     19  C   UNL     1      -0.912  13.234  19.223  0.00  0.00    +0.000 C 
ATOM     20  C   UNL     1       0.284  14.323  18.804  0.00  0.00    +0.000 C 
ATOM     21  C   UNL     1       0.269  15.836  19.443  0.00  0.00    +0.000 C 
ENDROOT
BRANCH  14  22
ATOM     22  O   UNL     1       1.783   8.009  21.707  0.00  0.00    +0.000 OA
ATOM     23  H   UNL     1       2.661   8.418  21.759  0.00  0.00    +0.000 HD
ENDBRANCH  14  22
BRANCH   1  24
ATOM     24  C   UNL     1       4.945  16.362  21.284  0.00  0.00    +0.000 C 
BRANCH  24  26
ATOM     25  C   UNL     1       7.110  15.152  21.795  0.00  0.00    +0.000 C 
ATOM     26  C   UNL     1       5.603  14.999  21.606  0.00  0.00    +0.000 C 
ATOM     27  C   UNL     1       5.004  14.340  22.859  0.00  0.00    +0.000 C 
ENDBRANCH  24  26
ENDBRANCH   1  24
TORSDOF 3
ENDMDL
MODEL 9
REMARK VINA RESULT:      -5.8      6.821      9.662
REMARK  Name = 
REMARK  6 active torsions:
REMARK  status: ('A' for Active; 'I' for Inactive)
REMARK    1  A    between atoms: C_1  and  C_2
REMARK    2  A    between atoms: C_2  and  C_3
REMARK    3  A    between atoms: C_2  and  C_4
REMARK    4  A    between atoms: C_4  and  N_5
REMARK    5  A    between atoms: C_10  and  C_11
REMARK    6  A    between atoms: C_18  and  O_19
REMARK                            x       y       z     vdW  Elec       q    Type
REMARK                         _______ _______ _______ _____ _____    ______ ____
ROOT
ATOM      1  N   UNL     1       5.070  16.980  21.062  0.00  0.00    +0.000 N 
ATOM      2  C   UNL     1       5.655  17.849  20.103  0.00  0.00    +0.000 A 
ATOM      3  C   UNL     1       7.023  17.649  20.214  0.00  0.00    +0.000 A 
ATOM      4  C   UNL     1       7.140  16.693  21.206  0.00  0.00    +0.000 A 
ATOM      5  N   UNL     1       6.009  16.360  21.822  0.00  0.00    +0.000 NA
ATOM      6  C   UNL     1       8.268  15.758  20.908  0.00  0.00    +0.000 C 
ATOM      7  C   UNL     1       8.862  15.216  22.203  0.00  0.00    +0.000 C 
ATOM      8  C   UNL     1       7.582  14.697  19.982  0.00  0.00    +0.000 C 
ATOM      9  C   UNL     1       8.304  14.578  18.636  0.00  0.00    +0.000 C 
ATOM     10  C   UNL     1       9.750  14.811  18.118  0.00  0.00    +0.000 C 
ATOM     11  C   UNL     1      10.182  13.303  18.057  0.00  0.00    +0.000 A 
ATOM     12  C   UNL     1       9.257  12.430  17.417  0.00  0.00    +0.000 A 
ATOM     13  C   UNL     1       8.953  11.189  17.976  0.00  0.00    +0.000 A 
ATOM     14  C   UNL     1       9.688  10.750  19.068  0.00  0.00    +0.000 A 
ATOM     15  C   UNL     1      10.734  11.518  19.587  0.00  0.00    +0.000 A 
ATOM     16  C   UNL     1      10.976  12.819  19.101  0.00  0.00    +0.000 A 
ATOM     17  C   UNL     1      11.997  13.736  19.701  0.00  0.00    +0.000 C 
ATOM     18  C   UNL     1      11.586  15.217  19.911  0.00  0.00    +0.000 C 
ATOM     19  C   UNL     1      10.391  15.843  19.113  0.00  0.00    +0.000 C 
ATOM     20  C   UNL     1       9.302  16.668  20.076  0.00  0.00    +0.000 C 
ATOM     21  C   UNL     1       8.301  17.784  19.403  0.00  0.00    +0.000 C 
ENDROOT
BRANCH  14  22
ATOM     22  O   UNL     1       9.364   9.570  19.684  0.00  0.00    +0.000 OA
ATOM     23  H   UNL     1       9.134   9.756  20.607  0.00  0.00    +0.000 HD
ENDBRANCH  14  22
BRANCH   1  24
ATOM     24  C   UNL     1       3.733  16.380  21.041  0.00  0.00    +0.000 C 
BRANCH  24  26
ATOM     25  C   UNL     1       2.351  14.259  21.017  0.00  0.00    +0.000 C 
ATOM     26  C   UNL     1       3.684  14.891  20.626  0.00  0.00    +0.000 C 
ATOM     27  C   UNL     1       3.908  14.695  19.118  0.00  0.00    +0.000 C 
ENDBRANCH  24  26
ENDBRANCH   1  24
TORSDOF 3
ENDMDL
