MODEL 1
REMARK VINA RESULT:      -7.8      0.000      0.000
REMARK  Name = 
REMARK  8 active torsions:
REMARK  status: ('A' for Active; 'I' for Inactive)
REMARK    1  A    between atoms: C_1  and  C_2
REMARK    2  A    between atoms: C_2  and  C_3
REMARK    3  A    between atoms: C_2  and  C_4
REMARK    4  A    between atoms: C_2  and  O_5
REMARK    5  A    between atoms: O_5  and  C_6
REMARK    6  A    between atoms: C_10  and  C_11
REMARK    7  A    between atoms: C_11  and  C_13
REMARK    8  A    between atoms: C_18  and  O_19
REMARK                            x       y       z     vdW  Elec       q    Type
REMARK                         _______ _______ _______ _____ _____    ______ ____
ROOT
ATOM      1  C   UNL     1       4.290   3.736  19.591  0.00  0.00    +0.000 C 
ATOM      2  O   UNL     1       5.000   2.820  19.985  0.00  0.00    +0.000 OA
ATOM      3  N   UNL     1       4.736   4.556  18.536  0.00  0.00    +0.000 N 
ATOM      4  C   UNL     1       5.940   4.444  17.865  0.00  0.00    +0.000 A 
ATOM      5  C   UNL     1       5.916   5.359  16.825  0.00  0.00    +0.000 A 
ATOM      6  C   UNL     1       4.705   6.051  17.026  0.00  0.00    +0.000 A 
ATOM      7  N   UNL     1       3.984   5.579  18.043  0.00  0.00    +0.000 NA
ENDROOT
BRANCH   5   8
ATOM      8  C   UNL     1       6.875   5.594  15.761  0.00  0.00    +0.000 C 
ATOM      9  O   UNL     1       7.821   6.354  15.925  0.00  0.00    +0.000 OA
BRANCH   8  10
ATOM     10  C   UNL     1       6.723   4.919  14.443  0.00  0.00    +0.000 A 
ATOM     11  C   UNL     1       5.672   3.996  14.306  0.00  0.00    +0.000 A 
ATOM     12  C   UNL     1       5.462   3.338  13.095  0.00  0.00    +0.000 A 
ATOM     13  C   UNL     1       6.303   3.589  12.012  0.00  0.00    +0.000 A 
ATOM     14  C   UNL     1       7.374   4.472  12.146  0.00  0.00    +0.000 A 
ATOM     15  C   UNL     1       7.598   5.115  13.365  0.00  0.00    +0.000 A 
BRANCH  15  16
ATOM     16  O   UNL     1       8.705   5.904  13.497  0.00  0.00    +0.000 OA
ATOM     17  H   UNL     1       8.495   6.819  13.246  0.00  0.00    +0.000 HD
ENDBRANCH  15  16
ENDBRANCH   8  10
ENDBRANCH   5   8
BRANCH   1  18
ATOM     18  O   UNL     1       3.053   4.109  20.036  0.00  0.00    +0.000 OA
BRANCH  18  20
ATOM     19  C   UNL     1       2.246   1.997  19.105  0.00  0.00    +0.000 C 
ATOM     20  C   UNL     1       2.032   3.088  20.160  0.00  0.00    +0.000 C 
ATOM     21  C   UNL     1       0.638   3.722  20.068  0.00  0.00    +0.000 C 
ATOM     22  C   UNL     1       2.179   2.420  21.542  0.00  0.00    +0.000 C 
ENDBRANCH  18  20
ENDBRANCH   1  18
TORSDOF 5
ENDMDL
MODEL 2
REMARK VINA RESULT:      -7.8      1.105      1.438
REMARK  Name = 
REMARK  8 active torsions:
REMARK  status: ('A' for Active; 'I' for Inactive)
REMARK    1  A    between atoms: C_1  and  C_2
REMARK    2  A    between atoms: C_2  and  C_3
REMARK    3  A    between atoms: C_2  and  C_4
REMARK    4  A    between atoms: C_2  and  O_5
REMARK    5  A    between atoms: O_5  and  C_6
REMARK    6  A    between atoms: C_10  and  C_11
REMARK    7  A    between atoms: C_11  and  C_13
REMARK    8  A    between atoms: C_18  and  O_19
REMARK                            x       y       z     vdW  Elec       q    Type
REMARK                         _______ _______ _______ _____ _____    ______ ____
ROOT
ATOM      1  C   UNL     1       3.249   2.855  18.324  0.00  0.00    +0.000 C 
ATOM      2  O   UNL     1       2.466   2.493  17.456  0.00  0.00    +0.000 OA
ATOM      3  N   UNL     1       4.437   3.516  17.955  0.00  0.00    +0.000 N 
ATOM      4  C   UNL     1       4.843   3.813  16.667  0.00  0.00    +0.000 A 
ATOM      5  C   UNL     1       5.996   4.575  16.766  0.00  0.00    +0.000 A 
ATOM      6  C   UNL     1       6.265   4.583  18.150  0.00  0.00    +0.000 A 
ATOM      7  N   UNL     1       5.339   3.957  18.876  0.00  0.00    +0.000 NA
ENDROOT
BRANCH   5   8
ATOM      8  C   UNL     1       6.778   5.230  15.734  0.00  0.00    +0.000 C 
ATOM      9  O   UNL     1       7.481   6.197  15.997  0.00  0.00    +0.000 OA
BRANCH   8  10
ATOM     10  C   UNL     1       6.739   4.739  14.328  0.00  0.00    +0.000 A 
ATOM     11  C   UNL     1       5.752   3.793  14.002  0.00  0.00    +0.000 A 
ATOM     12  C   UNL     1       5.647   3.302  12.701  0.00  0.00    +0.000 A 
ATOM     13  C   UNL     1       6.531   3.744  11.717  0.00  0.00    +0.000 A 
ATOM     14  C   UNL     1       7.540   4.652  12.038  0.00  0.00    +0.000 A 
ATOM     15  C   UNL     1       7.659   5.128  13.344  0.00  0.00    +0.000 A 
BRANCH  15  16
ATOM     16  O   UNL     1       8.710   5.944  13.652  0.00  0.00    +0.000 OA
ATOM     17  H   UNL     1       9.161   5.621  14.451  0.00  0.00    +0.000 HD
ENDBRANCH  15  16
ENDBRANCH   8  10
ENDBRANCH   5   8
BRANCH   1  18
ATOM     18  O   UNL     1       3.144   2.717  19.679  0.00  0.00    +0.000 OA
BRANCH  18  20
ATOM     19  C   UNL     1       0.707   2.916  19.713  0.00  0.00    +0.000 C 
ATOM     20  C   UNL     1       2.030   3.357  20.350  0.00  0.00    +0.000 C 
ATOM     21  C   UNL     1       2.207   4.880  20.331  0.00  0.00    +0.000 C 
ATOM     22  C   UNL     1       2.009   2.881  21.817  0.00  0.00    +0.000 C 
ENDBRANCH  18  20
ENDBRANCH   1  18
TORSDOF 5
ENDMDL
MODEL 3
REMARK VINA RESULT:      -7.7      0.850      1.357
REMARK  Name = 
REMARK  8 active torsions:
REMARK  status: ('A' for Active; 'I' for Inactive)
REMARK    1  A    between atoms: C_1  and  C_2
REMARK    2  A    between atoms: C_2  and  C_3
REMARK    3  A    between atoms: C_2  and  C_4
REMARK    4  A    between atoms: C_2  and  O_5
REMARK    5  A    between atoms: O_5  and  C_6
REMARK    6  A    between atoms: C_10  and  C_11
REMARK    7  A    between atoms: C_11  and  C_13
REMARK    8  A    between atoms: C_18  and  O_19
REMARK                            x       y       z     vdW  Elec       q    Type
REMARK                         _______ _______ _______ _____ _____    ______ ____
ROOT
ATOM      1  C   UNL     1       2.806   4.811  18.555  0.00  0.00    +0.000 C 
ATOM      2  O   UNL     1       1.901   5.182  17.820  0.00  0.00    +0.000 OA
ATOM      3  N   UNL     1       4.129   4.787  18.071  0.00  0.00    +0.000 N 
ATOM      4  C   UNL     1       4.543   5.148  16.802  0.00  0.00    +0.000 A 
ATOM      5  C   UNL     1       5.927   5.099  16.794  0.00  0.00    +0.000 A 
ATOM      6  C   UNL     1       6.244   4.586  18.068  0.00  0.00    +0.000 A 
ATOM      7  N   UNL     1       5.179   4.399  18.847  0.00  0.00    +0.000 NA
ENDROOT
BRANCH   5   8
ATOM      8  C   UNL     1       6.872   5.470  15.756  0.00  0.00    +0.000 C 
ATOM      9  O   UNL     1       7.753   6.292  15.974  0.00  0.00    +0.000 OA
BRANCH   8  10
ATOM     10  C   UNL     1       6.786   4.860  14.400  0.00  0.00    +0.000 A 
ATOM     11  C   UNL     1       5.777   3.905  14.184  0.00  0.00    +0.000 A 
ATOM     12  C   UNL     1       5.628   3.305  12.935  0.00  0.00    +0.000 A 
ATOM     13  C   UNL     1       6.489   3.646  11.893  0.00  0.00    +0.000 A 
ATOM     14  C   UNL     1       7.520   4.561  12.105  0.00  0.00    +0.000 A 
ATOM     15  C   UNL     1       7.682   5.147  13.362  0.00  0.00    +0.000 A 
BRANCH  15  16
ATOM     16  O   UNL     1       8.753   5.969  13.568  0.00  0.00    +0.000 OA
ATOM     17  H   UNL     1       9.580   5.494  13.381  0.00  0.00    +0.000 HD
ENDBRANCH  15  16
ENDBRANCH   8  10
ENDBRANCH   5   8
BRANCH   1  18
ATOM     18  O   UNL     1       2.733   4.394  19.855  0.00  0.00    +0.000 OA
BRANCH  18  20
ATOM     19  C   UNL     1       2.469   2.103  19.040  0.00  0.00    +0.000 C 
ATOM     20  C   UNL     1       2.106   3.117  20.132  0.00  0.00    +0.000 C 
ATOM     21  C   UNL     1       0.590   3.295  20.280  0.00  0.00    +0.000 C 
ATOM     22  C   UNL     1       2.671   2.576  21.461  0.00  0.00    +0.000 C 
ENDBRANCH  18  20
ENDBRANCH   1  18
TORSDOF 5
ENDMDL
MODEL 4
REMARK VINA RESULT:      -7.6      0.894      1.091
REMARK  Name = 
REMARK  8 active torsions:
REMARK  status: ('A' for Active; 'I' for Inactive)
REMARK    1  A    between atoms: C_1  and  C_2
REMARK    2  A    between atoms: C_2  and  C_3
REMARK    3  A    between atoms: C_2  and  C_4
REMARK    4  A    between atoms: C_2  and  O_5
REMARK    5  A    between atoms: O_5  and  C_6
REMARK    6  A    between atoms: C_10  and  C_11
REMARK    7  A    between atoms: C_11  and  C_13
REMARK    8  A    between atoms: C_18  and  O_19
REMARK                            x       y       z     vdW  Elec       q    Type
REMARK                         _______ _______ _______ _____ _____    ______ ____
ROOT
ATOM      1  C   UNL     1       4.138   2.912  19.337  0.00  0.00    +0.000 C 
ATOM      2  O   UNL     1       5.028   2.522  20.083  0.00  0.00    +0.000 OA
ATOM      3  N   UNL     1       4.471   3.662  18.192  0.00  0.00    +0.000 N 
ATOM      4  C   UNL     1       5.744   4.029  17.795  0.00  0.00    +0.000 A 
ATOM      5  C   UNL     1       5.626   4.639  16.557  0.00  0.00    +0.000 A 
ATOM      6  C   UNL     1       4.233   4.695  16.350  0.00  0.00    +0.000 A 
ATOM      7  N   UNL     1       3.528   4.109  17.317  0.00  0.00    +0.000 NA
ENDROOT
BRANCH   5   8
ATOM      8  C   UNL     1       6.651   5.125  15.651  0.00  0.00    +0.000 C 
ATOM      9  O   UNL     1       7.495   5.927  16.030  0.00  0.00    +0.000 OA
BRANCH   8  10
ATOM     10  C   UNL     1       6.693   4.661  14.236  0.00  0.00    +0.000 A 
ATOM     11  C   UNL     1       5.747   3.698  13.844  0.00  0.00    +0.000 A 
ATOM     12  C   UNL     1       5.719   3.229  12.531  0.00  0.00    +0.000 A 
ATOM     13  C   UNL     1       6.638   3.712  11.601  0.00  0.00    +0.000 A 
ATOM     14  C   UNL     1       7.607   4.638  11.987  0.00  0.00    +0.000 A 
ATOM     15  C   UNL     1       7.649   5.091  13.306  0.00  0.00    +0.000 A 
BRANCH  15  16
ATOM     16  O   UNL     1       8.663   5.927  13.680  0.00  0.00    +0.000 OA
ATOM     17  H   UNL     1       8.307   6.804  13.905  0.00  0.00    +0.000 HD
ENDBRANCH  15  16
ENDBRANCH   8  10
ENDBRANCH   5   8
BRANCH   1  18
ATOM     18  O   UNL     1       2.789   2.719  19.444  0.00  0.00    +0.000 OA
BRANCH  18  20
ATOM     19  C   UNL     1       0.593   3.634  20.008  0.00  0.00    +0.000 C 
ATOM     20  C   UNL     1       2.061   3.494  20.428  0.00  0.00    +0.000 C 
ATOM     21  C   UNL     1       2.739   4.855  20.636  0.00  0.00    +0.000 C 
ATOM     22  C   UNL     1       2.081   2.724  21.764  0.00  0.00    +0.000 C 
ENDBRANCH  18  20
ENDBRANCH   1  18
TORSDOF 5
ENDMDL
MODEL 5
REMARK VINA RESULT:      -7.5      0.861      1.719
REMARK  Name = 
REMARK  8 active torsions:
REMARK  status: ('A' for Active; 'I' for Inactive)
REMARK    1  A    between atoms: C_1  and  C_2
REMARK    2  A    between atoms: C_2  and  C_3
REMARK    3  A    between atoms: C_2  and  C_4
REMARK    4  A    between atoms: C_2  and  O_5
REMARK    5  A    between atoms: O_5  and  C_6
REMARK    6  A    between atoms: C_10  and  C_11
REMARK    7  A    between atoms: C_11  and  C_13
REMARK    8  A    between atoms: C_18  and  O_19
REMARK                            x       y       z     vdW  Elec       q    Type
REMARK                         _______ _______ _______ _____ _____    ______ ____
ROOT
ATOM      1  C   UNL     1       3.189   5.477  19.113  0.00  0.00    +0.000 C 
ATOM      2  O   UNL     1       2.377   6.265  18.646  0.00  0.00    +0.000 OA
ATOM      3  N   UNL     1       4.370   5.194  18.400  0.00  0.00    +0.000 N 
ATOM      4  C   UNL     1       4.735   5.725  17.176  0.00  0.00    +0.000 A 
ATOM      5  C   UNL     1       6.019   5.282  16.904  0.00  0.00    +0.000 A 
ATOM      6  C   UNL     1       6.293   4.399  17.968  0.00  0.00    +0.000 A 
ATOM      7  N   UNL     1       5.318   4.339  18.874  0.00  0.00    +0.000 NA
ENDROOT
BRANCH   5   8
ATOM      8  C   UNL     1       6.912   5.611  15.807  0.00  0.00    +0.000 C 
ATOM      9  O   UNL     1       7.798   6.445  15.948  0.00  0.00    +0.000 OA
BRANCH   8  10
ATOM     10  C   UNL     1       6.764   4.944  14.484  0.00  0.00    +0.000 A 
ATOM     11  C   UNL     1       5.713   4.021  14.340  0.00  0.00    +0.000 A 
ATOM     12  C   UNL     1       5.507   3.371  13.124  0.00  0.00    +0.000 A 
ATOM     13  C   UNL     1       6.350   3.630  12.045  0.00  0.00    +0.000 A 
ATOM     14  C   UNL     1       7.421   4.512  12.187  0.00  0.00    +0.000 A 
ATOM     15  C   UNL     1       7.641   5.148  13.410  0.00  0.00    +0.000 A 
BRANCH  15  16
ATOM     16  O   UNL     1       8.748   5.936  13.550  0.00  0.00    +0.000 OA
ATOM     17  H   UNL     1       9.053   5.923  14.473  0.00  0.00    +0.000 HD
ENDBRANCH  15  16
ENDBRANCH   8  10
ENDBRANCH   5   8
BRANCH   1  18
ATOM     18  O   UNL     1       3.130   4.788  20.292  0.00  0.00    +0.000 OA
BRANCH  18  20
ATOM     19  C   UNL     1       0.750   4.245  20.432  0.00  0.00    +0.000 C 
ATOM     20  C   UNL     1       2.183   3.698  20.403  0.00  0.00    +0.000 C 
ATOM     21  C   UNL     1       2.504   2.842  21.635  0.00  0.00    +0.000 C 
ATOM     22  C   UNL     1       2.307   2.815  19.144  0.00  0.00    +0.000 C 
ENDBRANCH  18  20
ENDBRANCH   1  18
TORSDOF 5
ENDMDL
MODEL 6
REMARK VINA RESULT:      -7.4      1.158      1.364
REMARK  Name = 
REMARK  8 active torsions:
REMARK  status: ('A' for Active; 'I' for Inactive)
REMARK    1  A    between atoms: C_1  and  C_2
REMARK    2  A    between atoms: C_2  and  C_3
REMARK    3  A    between atoms: C_2  and  C_4
REMARK    4  A    between atoms: C_2  and  O_5
REMARK    5  A    between atoms: O_5  and  C_6
REMARK    6  A    between atoms: C_10  and  C_11
REMARK    7  A    between atoms: C_11  and  C_13
REMARK    8  A    between atoms: C_18  and  O_19
REMARK                            x       y       z     vdW  Elec       q    Type
REMARK                         _______ _______ _______ _____ _____    ______ ____
ROOT
ATOM      1  C   UNL     1       3.001   3.102  18.102  0.00  0.00    +0.000 C 
ATOM      2  O   UNL     1       3.262   1.910  18.002  0.00  0.00    +0.000 OA
ATOM      3  N   UNL     1       3.873   4.053  17.536  0.00  0.00    +0.000 N 
ATOM      4  C   UNL     1       5.045   3.785  16.853  0.00  0.00    +0.000 A 
ATOM      5  C   UNL     1       5.516   4.991  16.360  0.00  0.00    +0.000 A 
ATOM      6  C   UNL     1       4.621   5.937  16.898  0.00  0.00    +0.000 A 
ATOM      7  N   UNL     1       3.629   5.392  17.601  0.00  0.00    +0.000 NA
ENDROOT
BRANCH   5   8
ATOM      8  C   UNL     1       6.649   5.272  15.497  0.00  0.00    +0.000 C 
ATOM      9  O   UNL     1       7.584   5.957  15.892  0.00  0.00    +0.000 OA
BRANCH   8  10
ATOM     10  C   UNL     1       6.696   4.736  14.109  0.00  0.00    +0.000 A 
ATOM     11  C   UNL     1       5.740   3.766  13.759  0.00  0.00    +0.000 A 
ATOM     12  C   UNL     1       5.715   3.231  12.471  0.00  0.00    +0.000 A 
ATOM     13  C   UNL     1       6.647   3.653  11.524  0.00  0.00    +0.000 A 
ATOM     14  C   UNL     1       7.626   4.585  11.871  0.00  0.00    +0.000 A 
ATOM     15  C   UNL     1       7.664   5.105  13.165  0.00  0.00    +0.000 A 
BRANCH  15  16
ATOM     16  O   UNL     1       8.687   5.945  13.504  0.00  0.00    +0.000 OA
ATOM     17  H   UNL     1       8.688   6.722  12.920  0.00  0.00    +0.000 HD
ENDBRANCH  15  16
ENDBRANCH   8  10
ENDBRANCH   5   8
BRANCH   1  18
ATOM     18  O   UNL     1       1.929   3.694  18.709  0.00  0.00    +0.000 OA
BRANCH  18  20
ATOM     19  C   UNL     1       3.308   3.434  20.712  0.00  0.00    +0.000 C 
ATOM     20  C   UNL     1       1.922   3.781  20.155  0.00  0.00    +0.000 C 
ATOM     21  C   UNL     1       0.821   2.881  20.733  0.00  0.00    +0.000 C 
ATOM     22  C   UNL     1       1.624   5.241  20.553  0.00  0.00    +0.000 C 
ENDBRANCH  18  20
ENDBRANCH   1  18
TORSDOF 5
ENDMDL
MODEL 7
REMARK VINA RESULT:      -7.3      1.350      1.678
REMARK  Name = 
REMARK  8 active torsions:
REMARK  status: ('A' for Active; 'I' for Inactive)
REMARK    1  A    between atoms: C_1  and  C_2
REMARK    2  A    between atoms: C_2  and  C_3
REMARK    3  A    between atoms: C_2  and  C_4
REMARK    4  A    between atoms: C_2  and  O_5
REMARK    5  A    between atoms: O_5  and  C_6
REMARK    6  A    between atoms: C_10  and  C_11
REMARK    7  A    between atoms: C_11  and  C_13
REMARK    8  A    between atoms: C_18  and  O_19
REMARK                            x       y       z     vdW  Elec       q    Type
REMARK                         _______ _______ _______ _____ _____    ______ ____
ROOT
ATOM      1  C   UNL     1       3.313   2.639  18.696  0.00  0.00    +0.000 C 
ATOM      2  O   UNL     1       2.855   1.739  18.005  0.00  0.00    +0.000 OA
ATOM      3  N   UNL     1       4.062   3.667  18.091  0.00  0.00    +0.000 N 
ATOM      4  C   UNL     1       4.357   3.781  16.745  0.00  0.00    +0.000 A 
ATOM      5  C   UNL     1       4.997   4.997  16.568  0.00  0.00    +0.000 A 
ATOM      6  C   UNL     1       5.142   5.485  17.882  0.00  0.00    +0.000 A 
ATOM      7  N   UNL     1       4.584   4.703  18.805  0.00  0.00    +0.000 NA
ENDROOT
BRANCH   5   8
ATOM      8  C   UNL     1       5.436   5.657  15.351  0.00  0.00    +0.000 C 
ATOM      9  O   UNL     1       5.453   6.879  15.271  0.00  0.00    +0.000 OA
BRANCH   8  10
ATOM     10  C   UNL     1       5.870   4.860  14.171  0.00  0.00    +0.000 A 
ATOM     11  C   UNL     1       4.936   3.969  13.615  0.00  0.00    +0.000 A 
ATOM     12  C   UNL     1       5.270   3.202  12.499  0.00  0.00    +0.000 A 
ATOM     13  C   UNL     1       6.540   3.311  11.935  0.00  0.00    +0.000 A 
ATOM     14  C   UNL     1       7.489   4.161  12.502  0.00  0.00    +0.000 A 
ATOM     15  C   UNL     1       7.162   4.914  13.631  0.00  0.00    +0.000 A 
BRANCH  15  16
ATOM     16  O   UNL     1       8.136   5.668  14.220  0.00  0.00    +0.000 OA
ATOM     17  H   UNL     1       8.916   5.118  14.410  0.00  0.00    +0.000 HD
ENDBRANCH  15  16
ENDBRANCH   8  10
ENDBRANCH   5   8
BRANCH   1  18
ATOM     18  O   UNL     1       3.202   2.819  20.046  0.00  0.00    +0.000 OA
BRANCH  18  20
ATOM     19  C   UNL     1       1.946   4.767  20.827  0.00  0.00    +0.000 C 
ATOM     20  C   UNL     1       1.926   3.254  20.578  0.00  0.00    +0.000 C 
ATOM     21  C   UNL     1       1.585   2.460  21.846  0.00  0.00    +0.000 C 
ATOM     22  C   UNL     1       0.840   2.981  19.518  0.00  0.00    +0.000 C 
ENDBRANCH  18  20
ENDBRANCH   1  18
TORSDOF 5
ENDMDL
MODEL 8
REMARK VINA RESULT:      -7.2      5.055      7.668
REMARK  Name = 
REMARK  8 active torsions:
REMARK  status: ('A' for Active; 'I' for Inactive)
REMARK    1  A    between atoms: C_1  and  C_2
REMARK    2  A    between atoms: C_2  and  C_3
REMARK    3  A    between atoms: C_2  and  C_4
REMARK    4  A    between atoms: C_2  and  O_5
REMARK    5  A    between atoms: O_5  and  C_6
REMARK    6  A    between atoms: C_10  and  C_11
REMARK    7  A    between atoms: C_11  and  C_13
REMARK    8  A    between atoms: C_18  and  O_19
REMARK                            x       y       z     vdW  Elec       q    Type
REMARK                         _______ _______ _______ _____ _____    ______ ____
ROOT
ATOM      1  C   UNL     1       0.664  10.142  20.150  0.00  0.00    +0.000 C 
ATOM      2  O   UNL     1       0.265   9.813  21.259  0.00  0.00    +0.000 OA
ATOM      3  N   UNL     1       1.416   9.230  19.384  0.00  0.00    +0.000 N 
ATOM      4  C   UNL     1       1.776   7.948  19.758  0.00  0.00    +0.000 A 
ATOM      5  C   UNL     1       2.392   7.361  18.665  0.00  0.00    +0.000 A 
ATOM      6  C   UNL     1       2.458   8.408  17.724  0.00  0.00    +0.000 A 
ATOM      7  N   UNL     1       1.874   9.532  18.137  0.00  0.00    +0.000 NA
ENDROOT
BRANCH   5   8
ATOM      8  C   UNL     1       2.875   6.004  18.478  0.00  0.00    +0.000 C 
ATOM      9  O   UNL     1       3.777   5.763  17.687  0.00  0.00    +0.000 OA
BRANCH   8  10
ATOM     10  C   UNL     1       2.276   4.876  19.243  0.00  0.00    +0.000 A 
ATOM     11  C   UNL     1       2.620   4.762  20.602  0.00  0.00    +0.000 A 
ATOM     12  C   UNL     1       2.085   3.738  21.382  0.00  0.00    +0.000 A 
ATOM     13  C   UNL     1       1.209   2.815  20.813  0.00  0.00    +0.000 A 
ATOM     14  C   UNL     1       0.892   2.893  19.457  0.00  0.00    +0.000 A 
ATOM     15  C   UNL     1       1.444   3.905  18.670  0.00  0.00    +0.000 A 
BRANCH  15  16
ATOM     16  O   UNL     1       1.190   3.904  17.328  0.00  0.00    +0.000 OA
ATOM     17  H   UNL     1       1.097   2.991  17.006  0.00  0.00    +0.000 HD
ENDBRANCH  15  16
ENDBRANCH   8  10
ENDBRANCH   5   8
BRANCH   1  18
ATOM     18  O   UNL     1       0.480  11.326  19.493  0.00  0.00    +0.000 OA
BRANCH  18  20
ATOM     19  C   UNL     1      -1.584  10.465  18.504  0.00  0.00    +0.000 C 
ATOM     20  C   UNL     1      -0.865  11.686  19.090  0.00  0.00    +0.000 C 
ATOM     21  C   UNL     1      -0.825  12.864  18.108  0.00  0.00    +0.000 C 
ATOM     22  C   UNL     1      -1.649  12.117  20.346  0.00  0.00    +0.000 C 
ENDBRANCH  18  20
ENDBRANCH   1  18
TORSDOF 5
ENDMDL
MODEL 9
REMARK VINA RESULT:      -7.0      4.067      5.687
REMARK  Name = 
REMARK  8 active torsions:
REMARK  status: ('A' for Active; 'I' for Inactive)
REMARK    1  A    between atoms: C_1  and  C_2
REMARK    2  A    between atoms: C_2  and  C_3
REMARK    3  A    between atoms: C_2  and  C_4
REMARK    4  A    between atoms: C_2  and  O_5
REMARK    5  A    between atoms: O_5  and  C_6
REMARK    6  A    between atoms: C_10  and  C_11
REMARK    7  A    between atoms: C_11  and  C_13
REMARK    8  A    between atoms: C_18  and  O_19
REMARK                            x       y       z     vdW  Elec       q    Type
REMARK                         _______ _______ _______ _____ _____    ______ ____
ROOT
ATOM      1  C   UNL     1       1.825   9.001  18.534  0.00  0.00    +0.000 C 
ATOM      2  O   UNL     1       2.110   9.409  17.415  0.00  0.00    +0.000 OA
ATOM      3  N   UNL     1       2.154   7.680  18.896  0.00  0.00    +0.000 N 
ATOM      4  C   UNL     1       2.785   6.745  18.096  0.00  0.00    +0.000 A 
ATOM      5  C   UNL     1       3.028   5.631  18.883  0.00  0.00    +0.000 A 
ATOM      6  C   UNL     1       2.402   5.950  20.105  0.00  0.00    +0.000 A 
ATOM      7  N   UNL     1       1.878   7.175  20.130  0.00  0.00    +0.000 NA
ENDROOT
BRANCH   5   8
ATOM      8  C   UNL     1       3.744   4.406  18.577  0.00  0.00    +0.000 C 
ATOM      9  O   UNL     1       3.382   3.334  19.047  0.00  0.00    +0.000 OA
BRANCH   8  10
ATOM     10  C   UNL     1       4.939   4.428  17.689  0.00  0.00    +0.000 A 
ATOM     11  C   UNL     1       4.740   4.124  16.331  0.00  0.00    +0.000 A 
ATOM     12  C   UNL     1       5.811   4.141  15.439  0.00  0.00    +0.000 A 
ATOM     13  C   UNL     1       7.091   4.454  15.895  0.00  0.00    +0.000 A 
ATOM     14  C   UNL     1       7.308   4.718  17.247  0.00  0.00    +0.000 A 
ATOM     15  C   UNL     1       6.240   4.680  18.144  0.00  0.00    +0.000 A 
BRANCH  15  16
ATOM     16  O   UNL     1       6.495   4.852  19.476  0.00  0.00    +0.000 OA
ATOM     17  H   UNL     1       7.349   4.449  19.707  0.00  0.00    +0.000 HD
ENDBRANCH  15  16
ENDBRANCH   8  10
ENDBRANCH   5   8
BRANCH   1  18
ATOM     18  O   UNL     1       1.206   9.668  19.554  0.00  0.00    +0.000 OA
BRANCH  18  20
ATOM     19  C   UNL     1      -0.731  10.118  18.131  0.00  0.00    +0.000 C 
ATOM     20  C   UNL     1       0.206  10.661  19.217  0.00  0.00    +0.000 C 
ATOM     21  C   UNL     1       0.883  11.972  18.798  0.00  0.00    +0.000 C 
ATOM     22  C   UNL     1      -0.654  10.928  20.469  0.00  0.00    +0.000 C 
ENDBRANCH  18  20
ENDBRANCH   1  18
TORSDOF 5
ENDMDL
