MODEL 1
REMARK VINA RESULT:      -7.6      0.000      0.000
REMARK  Name = 
REMARK  9 active torsions:
REMARK  status: ('A' for Active; 'I' for Inactive)
REMARK    1  A    between atoms: C_2  and  O_3
REMARK    2  A    between atoms: C_2  and  C_16
REMARK    3  A    between atoms: O_3  and  C_4
REMARK    4  A    between atoms: C_6  and  C_7
REMARK    5  A    between atoms: C_7  and  O_9
REMARK    6  A    between atoms: C_10  and  O_11
REMARK    7  A    between atoms: C_12  and  O_13
REMARK    8  A    between atoms: C_14  and  O_15
REMARK    9  A    between atoms: C_21  and  O_22
REMARK                            x       y       z     vdW  Elec       q    Type
REMARK                         _______ _______ _______ _____ _____    ______ ____
ROOT
ATOM      1  C   UNL     1       3.202   2.929  17.724  0.00  0.00    +0.000 C 
ATOM      2  O   UNL     1       3.940   1.972  18.495  0.00  0.00    +0.000 OA
ATOM      3  C   UNL     1       4.077   2.359  19.880  0.00  0.00    +0.000 C 
ATOM      4  C   UNL     1       2.702   2.464  20.554  0.00  0.00    +0.000 C 
ATOM      5  C   UNL     1       1.813   3.446  19.766  0.00  0.00    +0.000 C 
ATOM      6  C   UNL     1       1.769   3.070  18.277  0.00  0.00    +0.000 C 
ENDROOT
BRANCH   3   7
ATOM      7  C   UNL     1       4.950   1.300  20.554  0.00  0.00    +0.000 C 
ATOM      8  O   UNL     1       5.396   1.370  21.690  0.00  0.00    +0.000 OA
BRANCH   7   9
ATOM      9  O   UNL     1       5.234   0.261  19.726  0.00  0.00    +0.000 OA
ATOM     10  H   UNL     1       5.030  -0.581  20.194  0.00  0.00    +0.000 HD
ENDBRANCH   7   9
ENDBRANCH   3   7
BRANCH   4  11
ATOM     11  O   UNL     1       2.788   2.892  21.914  0.00  0.00    +0.000 OA
ATOM     12  H   UNL     1       1.952   3.308  22.182  0.00  0.00    +0.000 HD
ENDBRANCH   4  11
BRANCH   5  13
ATOM     13  O   UNL     1       0.489   3.492  20.316  0.00  0.00    +0.000 OA
ATOM     14  H   UNL     1       0.273   2.620  20.689  0.00  0.00    +0.000 HD
ENDBRANCH   5  13
BRANCH   6  15
ATOM     15  O   UNL     1       1.028   4.044  17.529  0.00  0.00    +0.000 OA
ATOM     16  H   UNL     1       1.001   4.860  18.064  0.00  0.00    +0.000 HD
ENDBRANCH   6  15
BRANCH   1  17
ATOM     17  O   UNL     1       3.821   4.218  17.759  0.00  0.00    +0.000 OA
BRANCH  17  19
ATOM     18  O   UNL     1       4.768   4.015  15.691  0.00  0.00    +0.000 OA
ATOM     19  C   UNL     1       4.766   4.462  16.826  0.00  0.00    +0.000 C 
BRANCH  19  20
ATOM     20  C   UNL     1       5.845   5.343  17.368  0.00  0.00    +0.000 A 
ATOM     21  C   UNL     1       6.533   4.870  18.500  0.00  0.00    +0.000 A 
ATOM     22  C   UNL     1       7.564   5.617  19.076  0.00  0.00    +0.000 A 
ATOM     23  C   UNL     1       7.919   6.847  18.531  0.00  0.00    +0.000 A 
ATOM     24  C   UNL     1       7.250   7.330  17.406  0.00  0.00    +0.000 A 
ATOM     25  C   UNL     1       6.223   6.581  16.821  0.00  0.00    +0.000 A 
BRANCH  25  26
ATOM     26  O   UNL     1       5.618   7.087  15.700  0.00  0.00    +0.000 OA
ATOM     27  H   UNL     1       4.656   6.955  15.771  0.00  0.00    +0.000 HD
ENDBRANCH  25  26
ENDBRANCH  19  20
ENDBRANCH  17  19
ENDBRANCH   1  17
TORSDOF 9
ENDMDL
MODEL 2
REMARK VINA RESULT:      -7.5      0.752      1.466
REMARK  Name = 
REMARK  9 active torsions:
REMARK  status: ('A' for Active; 'I' for Inactive)
REMARK    1  A    between atoms: C_2  and  O_3
REMARK    2  A    between atoms: C_2  and  C_16
REMARK    3  A    between atoms: O_3  and  C_4
REMARK    4  A    between atoms: C_6  and  C_7
REMARK    5  A    between atoms: C_7  and  O_9
REMARK    6  A    between atoms: C_10  and  O_11
REMARK    7  A    between atoms: C_12  and  O_13
REMARK    8  A    between atoms: C_14  and  O_15
REMARK    9  A    between atoms: C_21  and  O_22
REMARK                            x       y       z     vdW  Elec       q    Type
REMARK                         _______ _______ _______ _____ _____    ______ ____
ROOT
ATOM      1  C   UNL     1       3.324   3.245  17.748  0.00  0.00    +0.000 C 
ATOM      2  O   UNL     1       4.025   2.229  18.477  0.00  0.00    +0.000 OA
ATOM      3  C   UNL     1       4.077   2.496  19.895  0.00  0.00    +0.000 C 
ATOM      4  C   UNL     1       2.665   2.535  20.493  0.00  0.00    +0.000 C 
ATOM      5  C   UNL     1       1.812   3.575  19.741  0.00  0.00    +0.000 C 
ATOM      6  C   UNL     1       1.859   3.329  18.225  0.00  0.00    +0.000 C 
ENDROOT
BRANCH   3   7
ATOM      7  C   UNL     1       4.921   1.387  20.526  0.00  0.00    +0.000 C 
ATOM      8  O   UNL     1       5.377   1.406  21.660  0.00  0.00    +0.000 OA
BRANCH   7   9
ATOM      9  O   UNL     1       5.166   0.369  19.661  0.00  0.00    +0.000 OA
ATOM     10  H   UNL     1       5.108  -0.483  20.153  0.00  0.00    +0.000 HD
ENDBRANCH   7   9
ENDBRANCH   3   7
BRANCH   4  11
ATOM     11  O   UNL     1       2.667   2.844  21.887  0.00  0.00    +0.000 OA
ATOM     12  H   UNL     1       2.552   2.030  22.406  0.00  0.00    +0.000 HD
ENDBRANCH   4  11
BRANCH   5  13
ATOM     13  O   UNL     1       0.459   3.567  20.214  0.00  0.00    +0.000 OA
ATOM     14  H   UNL     1       0.322   4.340  20.789  0.00  0.00    +0.000 HD
ENDBRANCH   5  13
BRANCH   6  15
ATOM     15  O   UNL     1       1.153   4.360  17.522  0.00  0.00    +0.000 OA
ATOM     16  H   UNL     1       1.676   4.580  16.728  0.00  0.00    +0.000 HD
ENDBRANCH   6  15
BRANCH   1  17
ATOM     17  O   UNL     1       3.926   4.530  17.930  0.00  0.00    +0.000 OA
BRANCH  17  19
ATOM     18  O   UNL     1       4.546   4.776  15.746  0.00  0.00    +0.000 OA
ATOM     19  C   UNL     1       4.727   4.970  16.936  0.00  0.00    +0.000 C 
BRANCH  19  20
ATOM     20  C   UNL     1       5.903   5.715  17.481  0.00  0.00    +0.000 A 
ATOM     21  C   UNL     1       6.096   7.023  17.001  0.00  0.00    +0.000 A 
ATOM     22  C   UNL     1       7.163   7.804  17.455  0.00  0.00    +0.000 A 
ATOM     23  C   UNL     1       8.051   7.286  18.391  0.00  0.00    +0.000 A 
ATOM     24  C   UNL     1       7.874   5.993  18.882  0.00  0.00    +0.000 A 
ATOM     25  C   UNL     1       6.802   5.211  18.435  0.00  0.00    +0.000 A 
BRANCH  25  26
ATOM     26  O   UNL     1       6.656   3.958  18.970  0.00  0.00    +0.000 OA
ATOM     27  H   UNL     1       5.730   3.675  18.870  0.00  0.00    +0.000 HD
ENDBRANCH  25  26
ENDBRANCH  19  20
ENDBRANCH  17  19
ENDBRANCH   1  17
TORSDOF 9
ENDMDL
MODEL 3
REMARK VINA RESULT:      -7.3      2.542      5.978
REMARK  Name = 
REMARK  9 active torsions:
REMARK  status: ('A' for Active; 'I' for Inactive)
REMARK    1  A    between atoms: C_2  and  O_3
REMARK    2  A    between atoms: C_2  and  C_16
REMARK    3  A    between atoms: O_3  and  C_4
REMARK    4  A    between atoms: C_6  and  C_7
REMARK    5  A    between atoms: C_7  and  O_9
REMARK    6  A    between atoms: C_10  and  O_11
REMARK    7  A    between atoms: C_12  and  O_13
REMARK    8  A    between atoms: C_14  and  O_15
REMARK    9  A    between atoms: C_21  and  O_22
REMARK                            x       y       z     vdW  Elec       q    Type
REMARK                         _______ _______ _______ _____ _____    ______ ____
ROOT
ATOM      1  C   UNL     1       4.389   6.131  17.278  0.00  0.00    +0.000 C 
ATOM      2  O   UNL     1       5.533   6.994  17.326  0.00  0.00    +0.000 OA
ATOM      3  C   UNL     1       6.708   6.332  17.844  0.00  0.00    +0.000 C 
ATOM      4  C   UNL     1       7.112   5.158  16.943  0.00  0.00    +0.000 C 
ATOM      5  C   UNL     1       5.923   4.188  16.793  0.00  0.00    +0.000 C 
ATOM      6  C   UNL     1       4.660   4.937  16.341  0.00  0.00    +0.000 C 
ENDROOT
BRANCH   3   7
ATOM      7  C   UNL     1       7.815   7.385  17.918  0.00  0.00    +0.000 C 
ATOM      8  O   UNL     1       8.010   8.265  17.093  0.00  0.00    +0.000 OA
BRANCH   7   9
ATOM      9  O   UNL     1       8.621   7.213  18.999  0.00  0.00    +0.000 OA
ATOM     10  H   UNL     1       8.731   6.247  19.160  0.00  0.00    +0.000 HD
ENDBRANCH   7   9
ENDBRANCH   3   7
BRANCH   4  11
ATOM     11  O   UNL     1       8.243   4.445  17.445  0.00  0.00    +0.000 OA
ATOM     12  H   UNL     1       8.105   3.489  17.335  0.00  0.00    +0.000 HD
ENDBRANCH   4  11
BRANCH   5  13
ATOM     13  O   UNL     1       6.239   3.129  15.879  0.00  0.00    +0.000 OA
ATOM     14  H   UNL     1       7.194   3.149  15.692  0.00  0.00    +0.000 HD
ENDBRANCH   5  13
BRANCH   6  15
ATOM     15  O   UNL     1       3.532   4.052  16.305  0.00  0.00    +0.000 OA
ATOM     16  H   UNL     1       2.927   4.324  17.020  0.00  0.00    +0.000 HD
ENDBRANCH   6  15
BRANCH   1  17
ATOM     17  O   UNL     1       4.067   5.617  18.574  0.00  0.00    +0.000 OA
BRANCH  17  19
ATOM     18  O   UNL     1       2.318   7.013  19.026  0.00  0.00    +0.000 OA
ATOM     19  C   UNL     1       2.841   5.911  19.056  0.00  0.00    +0.000 C 
BRANCH  19  20
ATOM     20  C   UNL     1       2.198   4.709  19.667  0.00  0.00    +0.000 A 
ATOM     21  C   UNL     1       2.437   4.495  21.037  0.00  0.00    +0.000 A 
ATOM     22  C   UNL     1       1.874   3.402  21.701  0.00  0.00    +0.000 A 
ATOM     23  C   UNL     1       1.067   2.507  21.005  0.00  0.00    +0.000 A 
ATOM     24  C   UNL     1       0.816   2.705  19.647  0.00  0.00    +0.000 A 
ATOM     25  C   UNL     1       1.372   3.803  18.980  0.00  0.00    +0.000 A 
BRANCH  25  26
ATOM     26  O   UNL     1       1.070   3.968  17.654  0.00  0.00    +0.000 OA
ATOM     27  H   UNL     1       0.250   3.483  17.451  0.00  0.00    +0.000 HD
ENDBRANCH  25  26
ENDBRANCH  19  20
ENDBRANCH  17  19
ENDBRANCH   1  17
TORSDOF 9
ENDMDL
MODEL 4
REMARK VINA RESULT:      -7.3      2.042      5.781
REMARK  Name = 
REMARK  9 active torsions:
REMARK  status: ('A' for Active; 'I' for Inactive)
REMARK    1  A    between atoms: C_2  and  O_3
REMARK    2  A    between atoms: C_2  and  C_16
REMARK    3  A    between atoms: O_3  and  C_4
REMARK    4  A    between atoms: C_6  and  C_7
REMARK    5  A    between atoms: C_7  and  O_9
REMARK    6  A    between atoms: C_10  and  O_11
REMARK    7  A    between atoms: C_12  and  O_13
REMARK    8  A    between atoms: C_14  and  O_15
REMARK    9  A    between atoms: C_21  and  O_22
REMARK                            x       y       z     vdW  Elec       q    Type
REMARK                         _______ _______ _______ _____ _____    ______ ____
ROOT
ATOM      1  C   UNL     1       4.674   4.782  19.001  0.00  0.00    +0.000 C 
ATOM      2  O   UNL     1       5.827   5.478  19.491  0.00  0.00    +0.000 OA
ATOM      3  C   UNL     1       6.949   5.405  18.584  0.00  0.00    +0.000 C 
ATOM      4  C   UNL     1       6.606   6.064  17.242  0.00  0.00    +0.000 C 
ATOM      5  C   UNL     1       5.343   5.408  16.650  0.00  0.00    +0.000 C 
ATOM      6  C   UNL     1       4.197   5.406  17.674  0.00  0.00    +0.000 C 
ENDROOT
BRANCH   3   7
ATOM      7  C   UNL     1       8.121   6.110  19.269  0.00  0.00    +0.000 C 
ATOM      8  O   UNL     1       8.564   7.206  18.960  0.00  0.00    +0.000 OA
BRANCH   7   9
ATOM      9  O   UNL     1       8.675   5.354  20.253  0.00  0.00    +0.000 OA
ATOM     10  H   UNL     1       9.643   5.536  20.283  0.00  0.00    +0.000 HD
ENDBRANCH   7   9
ENDBRANCH   3   7
BRANCH   4  11
ATOM     11  O   UNL     1       7.673   5.973  16.297  0.00  0.00    +0.000 OA
ATOM     12  H   UNL     1       8.522   6.135  16.741  0.00  0.00    +0.000 HD
ENDBRANCH   4  11
BRANCH   5  13
ATOM     13  O   UNL     1       4.942   6.067  15.441  0.00  0.00    +0.000 OA
ATOM     14  H   UNL     1       4.857   5.403  14.735  0.00  0.00    +0.000 HD
ENDBRANCH   5  13
BRANCH   6  15
ATOM     15  O   UNL     1       3.059   4.701  17.159  0.00  0.00    +0.000 OA
ATOM     16  H   UNL     1       3.097   3.793  17.513  0.00  0.00    +0.000 HD
ENDBRANCH   6  15
BRANCH   1  17
ATOM     17  O   UNL     1       4.959   3.399  18.766  0.00  0.00    +0.000 OA
BRANCH  17  19
ATOM     18  O   UNL     1       5.210   1.761  20.336  0.00  0.00    +0.000 OA
ATOM     19  C   UNL     1       4.510   2.522  19.689  0.00  0.00    +0.000 C 
BRANCH  19  20
ATOM     20  C   UNL     1       3.021   2.577  19.808  0.00  0.00    +0.000 A 
ATOM     21  C   UNL     1       2.504   3.039  21.032  0.00  0.00    +0.000 A 
ATOM     22  C   UNL     1       1.125   3.133  21.238  0.00  0.00    +0.000 A 
ATOM     23  C   UNL     1       0.246   2.765  20.225  0.00  0.00    +0.000 A 
ATOM     24  C   UNL     1       0.740   2.309  19.003  0.00  0.00    +0.000 A 
ATOM     25  C   UNL     1       2.121   2.220  18.790  0.00  0.00    +0.000 A 
BRANCH  25  26
ATOM     26  O   UNL     1       2.555   1.794  17.562  0.00  0.00    +0.000 OA
ATOM     27  H   UNL     1       2.569   2.550  16.950  0.00  0.00    +0.000 HD
ENDBRANCH  25  26
ENDBRANCH  19  20
ENDBRANCH  17  19
ENDBRANCH   1  17
TORSDOF 9
ENDMDL
MODEL 5
REMARK VINA RESULT:      -7.2      2.064      5.990
REMARK  Name = 
REMARK  9 active torsions:
REMARK  status: ('A' for Active; 'I' for Inactive)
REMARK    1  A    between atoms: C_2  and  O_3
REMARK    2  A    between atoms: C_2  and  C_16
REMARK    3  A    between atoms: O_3  and  C_4
REMARK    4  A    between atoms: C_6  and  C_7
REMARK    5  A    between atoms: C_7  and  O_9
REMARK    6  A    between atoms: C_10  and  O_11
REMARK    7  A    between atoms: C_12  and  O_13
REMARK    8  A    between atoms: C_14  and  O_15
REMARK    9  A    between atoms: C_21  and  O_22
REMARK                            x       y       z     vdW  Elec       q    Type
REMARK                         _______ _______ _______ _____ _____    ______ ____
ROOT
ATOM      1  C   UNL     1       5.091   3.637  17.369  0.00  0.00    +0.000 C 
ATOM      2  O   UNL     1       5.809   3.617  16.128  0.00  0.00    +0.000 OA
ATOM      3  C   UNL     1       6.253   4.930  15.720  0.00  0.00    +0.000 C 
ATOM      4  C   UNL     1       7.223   5.520  16.751  0.00  0.00    +0.000 C 
ATOM      5  C   UNL     1       6.554   5.544  18.139  0.00  0.00    +0.000 C 
ATOM      6  C   UNL     1       5.998   4.158  18.502  0.00  0.00    +0.000 C 
ENDROOT
BRANCH   3   7
ATOM      7  C   UNL     1       6.920   4.769  14.353  0.00  0.00    +0.000 C 
ATOM      8  O   UNL     1       7.749   5.530  13.877  0.00  0.00    +0.000 OA
BRANCH   7   9
ATOM      9  O   UNL     1       6.451   3.690  13.672  0.00  0.00    +0.000 OA
ATOM     10  H   UNL     1       6.576   2.887  14.228  0.00  0.00    +0.000 HD
ENDBRANCH   7   9
ENDBRANCH   3   7
BRANCH   4  11
ATOM     11  O   UNL     1       7.651   6.839  16.410  0.00  0.00    +0.000 OA
ATOM     12  H   UNL     1       8.580   6.821  16.124  0.00  0.00    +0.000 HD
ENDBRANCH   4  11
BRANCH   5  13
ATOM     13  O   UNL     1       7.470   6.002  19.142  0.00  0.00    +0.000 OA
ATOM     14  H   UNL     1       8.251   5.422  19.143  0.00  0.00    +0.000 HD
ENDBRANCH   5  13
BRANCH   6  15
ATOM     15  O   UNL     1       5.284   4.207  19.744  0.00  0.00    +0.000 OA
ATOM     16  H   UNL     1       4.544   4.834  19.628  0.00  0.00    +0.000 HD
ENDBRANCH   6  15
BRANCH   1  17
ATOM     17  O   UNL     1       3.941   4.485  17.294  0.00  0.00    +0.000 OA
BRANCH  17  19
ATOM     18  O   UNL     1       2.084   3.537  16.364  0.00  0.00    +0.000 OA
ATOM     19  C   UNL     1       2.736   3.878  17.336  0.00  0.00    +0.000 C 
BRANCH  19  20
ATOM     20  C   UNL     1       2.274   3.693  18.745  0.00  0.00    +0.000 A 
ATOM     21  C   UNL     1       2.054   4.864  19.494  0.00  0.00    +0.000 A 
ATOM     22  C   UNL     1       1.614   4.796  20.819  0.00  0.00    +0.000 A 
ATOM     23  C   UNL     1       1.392   3.558  21.413  0.00  0.00    +0.000 A 
ATOM     24  C   UNL     1       1.601   2.386  20.686  0.00  0.00    +0.000 A 
ATOM     25  C   UNL     1       2.034   2.451  19.356  0.00  0.00    +0.000 A 
BRANCH  25  26
ATOM     26  O   UNL     1       2.196   1.272  18.676  0.00  0.00    +0.000 OA
ATOM     27  H   UNL     1       1.321   0.879  18.507  0.00  0.00    +0.000 HD
ENDBRANCH  25  26
ENDBRANCH  19  20
ENDBRANCH  17  19
ENDBRANCH   1  17
TORSDOF 9
ENDMDL
MODEL 6
REMARK VINA RESULT:      -7.1      1.655      2.308
REMARK  Name = 
REMARK  9 active torsions:
REMARK  status: ('A' for Active; 'I' for Inactive)
REMARK    1  A    between atoms: C_2  and  O_3
REMARK    2  A    between atoms: C_2  and  C_16
REMARK    3  A    between atoms: O_3  and  C_4
REMARK    4  A    between atoms: C_6  and  C_7
REMARK    5  A    between atoms: C_7  and  O_9
REMARK    6  A    between atoms: C_10  and  O_11
REMARK    7  A    between atoms: C_12  and  O_13
REMARK    8  A    between atoms: C_14  and  O_15
REMARK    9  A    between atoms: C_21  and  O_22
REMARK                            x       y       z     vdW  Elec       q    Type
REMARK                         _______ _______ _______ _____ _____    ______ ____
ROOT
ATOM      1  C   UNL     1       3.734   3.797  18.393  0.00  0.00    +0.000 C 
ATOM      2  O   UNL     1       4.364   2.622  18.919  0.00  0.00    +0.000 OA
ATOM      3  C   UNL     1       4.259   2.530  20.357  0.00  0.00    +0.000 C 
ATOM      4  C   UNL     1       2.789   2.442  20.789  0.00  0.00    +0.000 C 
ATOM      5  C   UNL     1       2.011   3.650  20.230  0.00  0.00    +0.000 C 
ATOM      6  C   UNL     1       2.226   3.784  18.714  0.00  0.00    +0.000 C 
ENDROOT
BRANCH   3   7
ATOM      7  C   UNL     1       5.041   1.287  20.782  0.00  0.00    +0.000 C 
ATOM      8  O   UNL     1       5.565   1.121  21.873  0.00  0.00    +0.000 OA
BRANCH   7   9
ATOM      9  O   UNL     1       5.146   0.374  19.780  0.00  0.00    +0.000 OA
ATOM     10  H   UNL     1       5.751  -0.346  20.072  0.00  0.00    +0.000 HD
ENDBRANCH   7   9
ENDBRANCH   3   7
BRANCH   4  11
ATOM     11  O   UNL     1       2.636   2.398  22.208  0.00  0.00    +0.000 OA
ATOM     12  H   UNL     1       2.258   1.542  22.472  0.00  0.00    +0.000 HD
ENDBRANCH   4  11
BRANCH   5  13
ATOM     13  O   UNL     1       0.614   3.546  20.537  0.00  0.00    +0.000 OA
ATOM     14  H   UNL     1       0.247   2.775  20.071  0.00  0.00    +0.000 HD
ENDBRANCH   5  13
BRANCH   6  15
ATOM     15  O   UNL     1       1.589   4.968  18.215  0.00  0.00    +0.000 OA
ATOM     16  H   UNL     1       0.629   4.793  18.191  0.00  0.00    +0.000 HD
ENDBRANCH   6  15
BRANCH   1  17
ATOM     17  O   UNL     1       4.299   4.988  18.950  0.00  0.00    +0.000 OA
BRANCH  17  19
ATOM     18  O   UNL     1       6.434   5.334  19.679  0.00  0.00    +0.000 OA
ATOM     19  C   UNL     1       5.626   5.166  18.782  0.00  0.00    +0.000 C 
BRANCH  19  20
ATOM     20  C   UNL     1       5.992   5.161  17.333  0.00  0.00    +0.000 A 
ATOM     21  C   UNL     1       5.077   5.765  16.451  0.00  0.00    +0.000 A 
ATOM     22  C   UNL     1       5.332   5.817  15.078  0.00  0.00    +0.000 A 
ATOM     23  C   UNL     1       6.502   5.264  14.568  0.00  0.00    +0.000 A 
ATOM     24  C   UNL     1       7.423   4.664  15.427  0.00  0.00    +0.000 A 
ATOM     25  C   UNL     1       7.175   4.617  16.804  0.00  0.00    +0.000 A 
BRANCH  25  26
ATOM     26  O   UNL     1       8.124   4.043  17.608  0.00  0.00    +0.000 OA
ATOM     27  H   UNL     1       8.093   3.077  17.497  0.00  0.00    +0.000 HD
ENDBRANCH  25  26
ENDBRANCH  19  20
ENDBRANCH  17  19
ENDBRANCH   1  17
TORSDOF 9
ENDMDL
MODEL 7
REMARK VINA RESULT:      -7.1      3.377      4.781
REMARK  Name = 
REMARK  9 active torsions:
REMARK  status: ('A' for Active; 'I' for Inactive)
REMARK    1  A    between atoms: C_2  and  O_3
REMARK    2  A    between atoms: C_2  and  C_16
REMARK    3  A    between atoms: O_3  and  C_4
REMARK    4  A    between atoms: C_6  and  C_7
REMARK    5  A    between atoms: C_7  and  O_9
REMARK    6  A    between atoms: C_10  and  O_11
REMARK    7  A    between atoms: C_12  and  O_13
REMARK    8  A    between atoms: C_14  and  O_15
REMARK    9  A    between atoms: C_21  and  O_22
REMARK                            x       y       z     vdW  Elec       q    Type
REMARK                         _______ _______ _______ _____ _____    ______ ____
ROOT
ATOM      1  C   UNL     1       4.023   5.204  19.177  0.00  0.00    +0.000 C 
ATOM      2  O   UNL     1       3.423   4.604  20.332  0.00  0.00    +0.000 OA
ATOM      3  C   UNL     1       2.412   3.630  19.991  0.00  0.00    +0.000 C 
ATOM      4  C   UNL     1       3.021   2.472  19.191  0.00  0.00    +0.000 C 
ATOM      5  C   UNL     1       3.734   3.024  17.941  0.00  0.00    +0.000 C 
ATOM      6  C   UNL     1       4.729   4.131  18.323  0.00  0.00    +0.000 C 
ENDROOT
BRANCH   3   7
ATOM      7  C   UNL     1       1.804   3.141  21.307  0.00  0.00    +0.000 C 
ATOM      8  O   UNL     1       2.384   3.100  22.381  0.00  0.00    +0.000 OA
BRANCH   7   9
ATOM      9  O   UNL     1       0.530   2.693  21.153  0.00  0.00    +0.000 OA
ATOM     10  H   UNL     1      -0.050   3.459  20.935  0.00  0.00    +0.000 HD
ENDBRANCH   7   9
ENDBRANCH   3   7
BRANCH   4  11
ATOM     11  O   UNL     1       2.046   1.508  18.792  0.00  0.00    +0.000 OA
ATOM     12  H   UNL     1       2.489   0.705  18.469  0.00  0.00    +0.000 HD
ENDBRANCH   4  11
BRANCH   5  13
ATOM     13  O   UNL     1       4.395   1.974  17.223  0.00  0.00    +0.000 OA
ATOM     14  H   UNL     1       5.351   2.154  17.213  0.00  0.00    +0.000 HD
ENDBRANCH   5  13
BRANCH   6  15
ATOM     15  O   UNL     1       5.311   4.716  17.151  0.00  0.00    +0.000 OA
ATOM     16  H   UNL     1       6.025   5.312  17.447  0.00  0.00    +0.000 HD
ENDBRANCH   6  15
BRANCH   1  17
ATOM     17  O   UNL     1       3.047   5.855  18.358  0.00  0.00    +0.000 OA
BRANCH  17  19
ATOM     18  O   UNL     1       4.256   7.504  17.343  0.00  0.00    +0.000 OA
ATOM     19  C   UNL     1       3.303   7.133  18.008  0.00  0.00    +0.000 C 
BRANCH  19  20
ATOM     20  C   UNL     1       2.275   8.063  18.568  0.00  0.00    +0.000 A 
ATOM     21  C   UNL     1       1.745   9.021  17.683  0.00  0.00    +0.000 A 
ATOM     22  C   UNL     1       0.773   9.930  18.110  0.00  0.00    +0.000 A 
ATOM     23  C   UNL     1       0.321   9.896  19.425  0.00  0.00    +0.000 A 
ATOM     24  C   UNL     1       0.832   8.951  20.315  0.00  0.00    +0.000 A 
ATOM     25  C   UNL     1       1.799   8.034  19.889  0.00  0.00    +0.000 A 
BRANCH  25  26
ATOM     26  O   UNL     1       2.247   7.107  20.794  0.00  0.00    +0.000 OA
ATOM     27  H   UNL     1       3.200   7.242  20.942  0.00  0.00    +0.000 HD
ENDBRANCH  25  26
ENDBRANCH  19  20
ENDBRANCH  17  19
ENDBRANCH   1  17
TORSDOF 9
ENDMDL
MODEL 8
REMARK VINA RESULT:      -7.0      2.005      5.842
REMARK  Name = 
REMARK  9 active torsions:
REMARK  status: ('A' for Active; 'I' for Inactive)
REMARK    1  A    between atoms: C_2  and  O_3
REMARK    2  A    between atoms: C_2  and  C_16
REMARK    3  A    between atoms: O_3  and  C_4
REMARK    4  A    between atoms: C_6  and  C_7
REMARK    5  A    between atoms: C_7  and  O_9
REMARK    6  A    between atoms: C_10  and  O_11
REMARK    7  A    between atoms: C_12  and  O_13
REMARK    8  A    between atoms: C_14  and  O_15
REMARK    9  A    between atoms: C_21  and  O_22
REMARK                            x       y       z     vdW  Elec       q    Type
REMARK                         _______ _______ _______ _____ _____    ______ ____
ROOT
ATOM      1  C   UNL     1       5.299   4.066  17.854  0.00  0.00    +0.000 C 
ATOM      2  O   UNL     1       6.217   4.066  16.753  0.00  0.00    +0.000 OA
ATOM      3  C   UNL     1       5.719   4.797  15.611  0.00  0.00    +0.000 C 
ATOM      4  C   UNL     1       5.497   6.273  15.967  0.00  0.00    +0.000 C 
ATOM      5  C   UNL     1       4.549   6.378  17.177  0.00  0.00    +0.000 C 
ATOM      6  C   UNL     1       5.049   5.508  18.341  0.00  0.00    +0.000 C 
ENDROOT
BRANCH   3   7
ATOM      7  C   UNL     1       6.753   4.640  14.496  0.00  0.00    +0.000 C 
ATOM      8  O   UNL     1       7.659   5.425  14.257  0.00  0.00    +0.000 OA
BRANCH   7   9
ATOM      9  O   UNL     1       6.533   3.534  13.738  0.00  0.00    +0.000 OA
ATOM     10  H   UNL     1       5.768   3.041  14.115  0.00  0.00    +0.000 HD
ENDBRANCH   7   9
ENDBRANCH   3   7
BRANCH   4  11
ATOM     11  O   UNL     1       4.958   7.025  14.878  0.00  0.00    +0.000 OA
ATOM     12  H   UNL     1       5.434   6.806  14.059  0.00  0.00    +0.000 HD
ENDBRANCH   4  11
BRANCH   5  13
ATOM     13  O   UNL     1       4.398   7.742  17.593  0.00  0.00    +0.000 OA
ATOM     14  H   UNL     1       5.166   7.992  18.135  0.00  0.00    +0.000 HD
ENDBRANCH   5  13
BRANCH   6  15
ATOM     15  O   UNL     1       4.112   5.524  19.425  0.00  0.00    +0.000 OA
ATOM     16  H   UNL     1       3.250   5.800  19.060  0.00  0.00    +0.000 HD
ENDBRANCH   6  15
BRANCH   1  17
ATOM     17  O   UNL     1       4.040   3.496  17.484  0.00  0.00    +0.000 OA
BRANCH  17  19
ATOM     18  O   UNL     1       4.036   1.232  17.782  0.00  0.00    +0.000 OA
ATOM     19  C   UNL     1       3.684   2.353  18.109  0.00  0.00    +0.000 C 
BRANCH  19  20
ATOM     20  C   UNL     1       2.768   2.628  19.257  0.00  0.00    +0.000 A 
ATOM     21  C   UNL     1       3.277   2.371  20.544  0.00  0.00    +0.000 A 
ATOM     22  C   UNL     1       2.499   2.604  21.682  0.00  0.00    +0.000 A 
ATOM     23  C   UNL     1       1.204   3.092  21.549  0.00  0.00    +0.000 A 
ATOM     24  C   UNL     1       0.684   3.356  20.282  0.00  0.00    +0.000 A 
ATOM     25  C   UNL     1       1.462   3.133  19.140  0.00  0.00    +0.000 A 
BRANCH  25  26
ATOM     26  O   UNL     1       0.915   3.436  17.921  0.00  0.00    +0.000 OA
ATOM     27  H   UNL     1       0.471   4.301  17.977  0.00  0.00    +0.000 HD
ENDBRANCH  25  26
ENDBRANCH  19  20
ENDBRANCH  17  19
ENDBRANCH   1  17
TORSDOF 9
ENDMDL
MODEL 9
REMARK VINA RESULT:      -7.0      2.706      5.873
REMARK  Name = 
REMARK  9 active torsions:
REMARK  status: ('A' for Active; 'I' for Inactive)
REMARK    1  A    between atoms: C_2  and  O_3
REMARK    2  A    between atoms: C_2  and  C_16
REMARK    3  A    between atoms: O_3  and  C_4
REMARK    4  A    between atoms: C_6  and  C_7
REMARK    5  A    between atoms: C_7  and  O_9
REMARK    6  A    between atoms: C_10  and  O_11
REMARK    7  A    between atoms: C_12  and  O_13
REMARK    8  A    between atoms: C_14  and  O_15
REMARK    9  A    between atoms: C_21  and  O_22
REMARK                            x       y       z     vdW  Elec       q    Type
REMARK                         _______ _______ _______ _____ _____    ______ ____
ROOT
ATOM      1  C   UNL     1       5.019   6.306  16.601  0.00  0.00    +0.000 C 
ATOM      2  O   UNL     1       6.042   6.781  17.485  0.00  0.00    +0.000 OA
ATOM      3  C   UNL     1       6.813   5.710  18.071  0.00  0.00    +0.000 C 
ATOM      4  C   UNL     1       7.542   4.907  16.985  0.00  0.00    +0.000 C 
ATOM      5  C   UNL     1       6.523   4.386  15.954  0.00  0.00    +0.000 C 
ATOM      6  C   UNL     1       5.646   5.532  15.424  0.00  0.00    +0.000 C 
ENDROOT
BRANCH   3   7
ATOM      7  C   UNL     1       7.800   6.353  19.047  0.00  0.00    +0.000 C 
ATOM      8  O   UNL     1       8.425   7.383  18.843  0.00  0.00    +0.000 OA
BRANCH   7   9
ATOM      9  O   UNL     1       7.959   5.620  20.180  0.00  0.00    +0.000 OA
ATOM     10  H   UNL     1       8.471   4.808  19.962  0.00  0.00    +0.000 HD
ENDBRANCH   7   9
ENDBRANCH   3   7
BRANCH   4  11
ATOM     11  O   UNL     1       8.280   3.807  17.518  0.00  0.00    +0.000 OA
ATOM     12  H   UNL     1       7.706   3.024  17.580  0.00  0.00    +0.000 HD
ENDBRANCH   4  11
BRANCH   5  13
ATOM     13  O   UNL     1       7.185   3.713  14.875  0.00  0.00    +0.000 OA
ATOM     14  H   UNL     1       6.600   3.715  14.097  0.00  0.00    +0.000 HD
ENDBRANCH   5  13
BRANCH   6  15
ATOM     15  O   UNL     1       4.631   5.029  14.546  0.00  0.00    +0.000 OA
ATOM     16  H   UNL     1       3.944   4.617  15.103  0.00  0.00    +0.000 HD
ENDBRANCH   6  15
BRANCH   1  17
ATOM     17  O   UNL     1       4.110   5.431  17.276  0.00  0.00    +0.000 OA
BRANCH  17  19
ATOM     18  O   UNL     1       2.894   7.213  18.022  0.00  0.00    +0.000 OA
ATOM     19  C   UNL     1       3.108   6.014  17.968  0.00  0.00    +0.000 C 
BRANCH  19  20
ATOM     20  C   UNL     1       2.291   4.996  18.696  0.00  0.00    +0.000 A 
ATOM     21  C   UNL     1       1.890   3.867  17.959  0.00  0.00    +0.000 A 
ATOM     22  C   UNL     1       1.130   2.855  18.553  0.00  0.00    +0.000 A 
ATOM     23  C   UNL     1       0.759   2.961  19.890  0.00  0.00    +0.000 A 
ATOM     24  C   UNL     1       1.151   4.071  20.638  0.00  0.00    +0.000 A 
ATOM     25  C   UNL     1       1.919   5.082  20.048  0.00  0.00    +0.000 A 
BRANCH  25  26
ATOM     26  O   UNL     1       2.303   6.137  20.834  0.00  0.00    +0.000 OA
ATOM     27  H   UNL     1       2.569   6.879  20.263  0.00  0.00    +0.000 HD
ENDBRANCH  25  26
ENDBRANCH  19  20
ENDBRANCH  17  19
ENDBRANCH   1  17
TORSDOF 9
ENDMDL
