MODEL 1
REMARK VINA RESULT:      -8.0      0.000      0.000
REMARK  Name = 
REMARK  8 active torsions:
REMARK  status: ('A' for Active; 'I' for Inactive)
REMARK    1  A    between atoms: C_1  and  O_2
REMARK    2  A    between atoms: O_2  and  C_3
REMARK    3  A    between atoms: C_8  and  O_9
REMARK    4  A    between atoms: O_9  and  C_10
REMARK    5  A    between atoms: C_13  and  C_14
REMARK    6  A    between atoms: C_14  and  C_15
REMARK    7  A    between atoms: N_18  and  C_19
REMARK    8  A    between atoms: C_19  and  C_20
REMARK                            x       y       z     vdW  Elec       q    Type
REMARK                         _______ _______ _______ _____ _____    ______ ____
ROOT
ATOM      1  C   UNL     1       0.117  11.029  19.687  0.00  0.00    +0.000 A 
ATOM      2  C   UNL     1       0.914  10.632  18.568  0.00  0.00    +0.000 A 
ATOM      3  C   UNL     1       1.602   9.400  18.614  0.00  0.00    +0.000 A 
ATOM      4  C   UNL     1       1.446   8.586  19.691  0.00  0.00    +0.000 A 
ATOM      5  C   UNL     1       0.692   8.934  20.799  0.00  0.00    +0.000 A 
ATOM      6  C   UNL     1       0.035  10.160  20.827  0.00  0.00    +0.000 A 
ATOM      7  C   UNL     1       2.142   7.347  19.477  0.00  0.00    +0.000 C 
ATOM      8  O   UNL     1       2.026   6.384  20.210  0.00  0.00    +0.000 OA
ATOM      9  C   UNL     1       3.097   7.506  18.340  0.00  0.00    +0.000 C 
ATOM     10  C   UNL     1       2.488   8.737  17.572  0.00  0.00    +0.000 C 
ENDROOT
BRANCH   1  12
ATOM     11  C   UNL     1      -0.742  13.091  18.672  0.00  0.00    +0.000 C 
ATOM     12  O   UNL     1      -0.575  12.199  19.710  0.00  0.00    +0.000 OA
ENDBRANCH   1  12
BRANCH   6  13
ATOM     13  O   UNL     1      -0.664  10.433  21.962  0.00  0.00    +0.000 OA
ATOM     14  C   UNL     1      -0.490   9.917  23.226  0.00  0.00    +0.000 C 
ENDBRANCH   6  13
BRANCH   9  15
ATOM     15  C   UNL     1       3.388   6.229  17.502  0.00  0.00    +0.000 C 
BRANCH  15  16
ATOM     16  C   UNL     1       4.917   5.853  17.362  0.00  0.00    +0.000 C 
ATOM     17  C   UNL     1       5.215   4.519  16.642  0.00  0.00    +0.000 C 
ATOM     18  C   UNL     1       4.713   3.331  17.466  0.00  0.00    +0.000 C 
ATOM     19  N   UNL     1       5.250   3.324  18.857  0.00  0.00    +0.000 NA
ATOM     20  C   UNL     1       5.137   4.625  19.559  0.00  0.00    +0.000 C 
ATOM     21  C   UNL     1       5.647   5.786  18.712  0.00  0.00    +0.000 C 
BRANCH  19  22
ATOM     22  C   UNL     1       4.643   2.229  19.663  0.00  0.00    +0.000 C 
BRANCH  22  23
ATOM     23  C   UNL     1       3.160   2.454  19.933  0.00  0.00    +0.000 A 
ATOM     24  C   UNL     1       2.228   2.397  18.883  0.00  0.00    +0.000 A 
ATOM     25  C   UNL     1       0.887   2.722  19.102  0.00  0.00    +0.000 A 
ATOM     26  C   UNL     1       0.458   3.091  20.377  0.00  0.00    +0.000 A 
ATOM     27  C   UNL     1       1.365   3.125  21.438  0.00  0.00    +0.000 A 
ATOM     28  C   UNL     1       2.706   2.800  21.224  0.00  0.00    +0.000 A 
ENDBRANCH  22  23
ENDBRANCH  19  22
ENDBRANCH  15  16
ENDBRANCH   9  15
TORSDOF 6
ENDMDL
MODEL 2
REMARK VINA RESULT:      -7.9      0.467      1.022
REMARK  Name = 
REMARK  8 active torsions:
REMARK  status: ('A' for Active; 'I' for Inactive)
REMARK    1  A    between atoms: C_1  and  O_2
REMARK    2  A    between atoms: O_2  and  C_3
REMARK    3  A    between atoms: C_8  and  O_9
REMARK    4  A    between atoms: O_9  and  C_10
REMARK    5  A    between atoms: C_13  and  C_14
REMARK    6  A    between atoms: C_14  and  C_15
REMARK    7  A    between atoms: N_18  and  C_19
REMARK    8  A    between atoms: C_19  and  C_20
REMARK                            x       y       z     vdW  Elec       q    Type
REMARK                         _______ _______ _______ _____ _____    ______ ____
ROOT
ATOM      1  C   UNL     1      -0.004  10.735  19.947  0.00  0.00    +0.000 A 
ATOM      2  C   UNL     1       0.760  10.484  18.765  0.00  0.00    +0.000 A 
ATOM      3  C   UNL     1       1.542   9.312  18.686  0.00  0.00    +0.000 A 
ATOM      4  C   UNL     1       1.507   8.413  19.704  0.00  0.00    +0.000 A 
ATOM      5  C   UNL     1       0.789   8.619  20.870  0.00  0.00    +0.000 A 
ATOM      6  C   UNL     1       0.042   9.784  21.021  0.00  0.00    +0.000 A 
ATOM      7  C   UNL     1       2.284   7.252  19.366  0.00  0.00    +0.000 C 
ATOM      8  O   UNL     1       2.281   6.233  20.029  0.00  0.00    +0.000 OA
ATOM      9  C   UNL     1       3.162   7.568  18.200  0.00  0.00    +0.000 C 
ATOM     10  C   UNL     1       2.420   8.798  17.556  0.00  0.00    +0.000 C 
ENDROOT
BRANCH   1  12
ATOM     11  C   UNL     1      -0.383  13.093  20.509  0.00  0.00    +0.000 C 
ATOM     12  O   UNL     1      -0.782  11.841  20.091  0.00  0.00    +0.000 OA
ENDBRANCH   1  12
BRANCH   6  13
ATOM     13  O   UNL     1      -0.615   9.918  22.206  0.00  0.00    +0.000 OA
ATOM     14  C   UNL     1      -0.168   9.634  23.475  0.00  0.00    +0.000 C 
ENDBRANCH   6  13
BRANCH   9  15
ATOM     15  C   UNL     1       3.505   6.381  17.255  0.00  0.00    +0.000 C 
BRANCH  15  16
ATOM     16  C   UNL     1       5.040   6.012  17.175  0.00  0.00    +0.000 C 
ATOM     17  C   UNL     1       5.371   4.678  16.468  0.00  0.00    +0.000 C 
ATOM     18  C   UNL     1       4.842   3.490  17.272  0.00  0.00    +0.000 C 
ATOM     19  N   UNL     1       5.325   3.486  18.683  0.00  0.00    +0.000 NA
ATOM     20  C   UNL     1       5.181   4.786  19.379  0.00  0.00    +0.000 C 
ATOM     21  C   UNL     1       5.718   5.949  18.551  0.00  0.00    +0.000 C 
BRANCH  19  22
ATOM     22  C   UNL     1       4.692   2.389  19.467  0.00  0.00    +0.000 C 
BRANCH  22  23
ATOM     23  C   UNL     1       3.234   2.678  19.806  0.00  0.00    +0.000 A 
ATOM     24  C   UNL     1       2.824   2.794  21.145  0.00  0.00    +0.000 A 
ATOM     25  C   UNL     1       1.472   2.937  21.465  0.00  0.00    +0.000 A 
ATOM     26  C   UNL     1       0.515   2.982  20.450  0.00  0.00    +0.000 A 
ATOM     27  C   UNL     1       0.908   2.896  19.113  0.00  0.00    +0.000 A 
ATOM     28  C   UNL     1       2.259   2.754  18.788  0.00  0.00    +0.000 A 
ENDBRANCH  22  23
ENDBRANCH  19  22
ENDBRANCH  15  16
ENDBRANCH   9  15
TORSDOF 6
ENDMDL
MODEL 3
REMARK VINA RESULT:      -7.5      2.255      4.908
REMARK  Name = 
REMARK  8 active torsions:
REMARK  status: ('A' for Active; 'I' for Inactive)
REMARK    1  A    between atoms: C_1  and  O_2
REMARK    2  A    between atoms: O_2  and  C_3
REMARK    3  A    between atoms: C_8  and  O_9
REMARK    4  A    between atoms: O_9  and  C_10
REMARK    5  A    between atoms: C_13  and  C_14
REMARK    6  A    between atoms: C_14  and  C_15
REMARK    7  A    between atoms: N_18  and  C_19
REMARK    8  A    between atoms: C_19  and  C_20
REMARK                            x       y       z     vdW  Elec       q    Type
REMARK                         _______ _______ _______ _____ _____    ______ ____
ROOT
ATOM      1  C   UNL     1      -0.492  10.455  20.911  0.00  0.00    +0.000 A 
ATOM      2  C   UNL     1       0.106   9.269  21.438  0.00  0.00    +0.000 A 
ATOM      3  C   UNL     1       0.945   8.493  20.610  0.00  0.00    +0.000 A 
ATOM      4  C   UNL     1       1.221   8.919  19.349  0.00  0.00    +0.000 A 
ATOM      5  C   UNL     1       0.657  10.055  18.795  0.00  0.00    +0.000 A 
ATOM      6  C   UNL     1      -0.219  10.828  19.552  0.00  0.00    +0.000 A 
ATOM      7  C   UNL     1       2.177   8.042  18.730  0.00  0.00    +0.000 C 
ATOM      8  O   UNL     1       2.717   8.290  17.669  0.00  0.00    +0.000 OA
ATOM      9  C   UNL     1       2.262   6.773  19.512  0.00  0.00    +0.000 C 
ATOM     10  C   UNL     1       1.713   7.217  20.918  0.00  0.00    +0.000 C 
ENDROOT
BRANCH   1  12
ATOM     11  C   UNL     1      -1.260  11.460  23.014  0.00  0.00    +0.000 C 
ATOM     12  O   UNL     1      -1.309  11.251  21.652  0.00  0.00    +0.000 OA
ENDBRANCH   1  12
BRANCH   6  13
ATOM     13  O   UNL     1      -0.746  11.914  18.924  0.00  0.00    +0.000 OA
ATOM     14  C   UNL     1      -2.037  12.120  18.497  0.00  0.00    +0.000 C 
ENDBRANCH   6  13
BRANCH   9  15
ATOM     15  C   UNL     1       3.636   6.043  19.493  0.00  0.00    +0.000 C 
BRANCH  15  16
ATOM     16  C   UNL     1       3.604   4.570  18.921  0.00  0.00    +0.000 C 
ATOM     17  C   UNL     1       4.887   3.738  19.143  0.00  0.00    +0.000 C 
ATOM     18  C   UNL     1       6.057   4.319  18.347  0.00  0.00    +0.000 C 
ATOM     19  N   UNL     1       5.753   4.461  16.894  0.00  0.00    +0.000 NA
ATOM     20  C   UNL     1       4.454   5.116  16.606  0.00  0.00    +0.000 C 
ATOM     21  C   UNL     1       3.310   4.514  17.415  0.00  0.00    +0.000 C 
BRANCH  19  22
ATOM     22  C   UNL     1       6.864   5.143  16.175  0.00  0.00    +0.000 C 
BRANCH  22  23
ATOM     23  C   UNL     1       6.942   4.747  14.706  0.00  0.00    +0.000 A 
ATOM     24  C   UNL     1       7.760   5.465  13.816  0.00  0.00    +0.000 A 
ATOM     25  C   UNL     1       7.742   5.184  12.448  0.00  0.00    +0.000 A 
ATOM     26  C   UNL     1       6.919   4.171  11.954  0.00  0.00    +0.000 A 
ATOM     27  C   UNL     1       6.122   3.429  12.827  0.00  0.00    +0.000 A 
ATOM     28  C   UNL     1       6.137   3.705  14.196  0.00  0.00    +0.000 A 
ENDBRANCH  22  23
ENDBRANCH  19  22
ENDBRANCH  15  16
ENDBRANCH   9  15
TORSDOF 6
ENDMDL
MODEL 4
REMARK VINA RESULT:      -7.4      1.434      4.026
REMARK  Name = 
REMARK  8 active torsions:
REMARK  status: ('A' for Active; 'I' for Inactive)
REMARK    1  A    between atoms: C_1  and  O_2
REMARK    2  A    between atoms: O_2  and  C_3
REMARK    3  A    between atoms: C_8  and  O_9
REMARK    4  A    between atoms: O_9  and  C_10
REMARK    5  A    between atoms: C_13  and  C_14
REMARK    6  A    between atoms: C_14  and  C_15
REMARK    7  A    between atoms: N_18  and  C_19
REMARK    8  A    between atoms: C_19  and  C_20
REMARK                            x       y       z     vdW  Elec       q    Type
REMARK                         _______ _______ _______ _____ _____    ______ ____
ROOT
ATOM      1  C   UNL     1       0.306  11.382  20.554  0.00  0.00    +0.000 A 
ATOM      2  C   UNL     1       0.244  10.239  21.409  0.00  0.00    +0.000 A 
ATOM      3  C   UNL     1       0.771   9.010  20.957  0.00  0.00    +0.000 A 
ATOM      4  C   UNL     1       1.384   8.950  19.745  0.00  0.00    +0.000 A 
ATOM      5  C   UNL     1       1.458  10.029  18.881  0.00  0.00    +0.000 A 
ATOM      6  C   UNL     1       0.908  11.251  19.258  0.00  0.00    +0.000 A 
ATOM      7  C   UNL     1       1.941   7.641  19.538  0.00  0.00    +0.000 C 
ATOM      8  O   UNL     1       2.681   7.372  18.613  0.00  0.00    +0.000 OA
ATOM      9  C   UNL     1       1.350   6.691  20.527  0.00  0.00    +0.000 C 
ATOM     10  C   UNL     1       0.853   7.664  21.659  0.00  0.00    +0.000 C 
ENDROOT
BRANCH   1  12
ATOM     11  C   UNL     1      -0.348  13.072  22.209  0.00  0.00    +0.000 C 
ATOM     12  O   UNL     1      -0.179  12.597  20.926  0.00  0.00    +0.000 OA
ENDBRANCH   1  12
BRANCH   6  13
ATOM     13  O   UNL     1       1.004  12.252  18.341  0.00  0.00    +0.000 OA
ATOM     14  C   UNL     1       1.989  13.203  18.204  0.00  0.00    +0.000 C 
ENDBRANCH   6  13
BRANCH   9  15
ATOM     15  C   UNL     1       2.255   5.505  20.967  0.00  0.00    +0.000 C 
BRANCH  15  16
ATOM     16  C   UNL     1       1.554   4.088  20.957  0.00  0.00    +0.000 C 
ATOM     17  C   UNL     1       2.473   2.885  21.271  0.00  0.00    +0.000 C 
ATOM     18  C   UNL     1       3.510   2.689  20.164  0.00  0.00    +0.000 C 
ATOM     19  N   UNL     1       2.895   2.558  18.812  0.00  0.00    +0.000 NA
ATOM     20  C   UNL     1       1.883   3.596  18.501  0.00  0.00    +0.000 C 
ATOM     21  C   UNL     1       0.864   3.766  19.623  0.00  0.00    +0.000 C 
BRANCH  19  22
ATOM     22  C   UNL     1       3.937   2.495  17.749  0.00  0.00    +0.000 C 
BRANCH  22  23
ATOM     23  C   UNL     1       4.692   3.809  17.591  0.00  0.00    +0.000 A 
ATOM     24  C   UNL     1       5.405   4.356  18.671  0.00  0.00    +0.000 A 
ATOM     25  C   UNL     1       5.997   5.617  18.569  0.00  0.00    +0.000 A 
ATOM     26  C   UNL     1       5.896   6.341  17.380  0.00  0.00    +0.000 A 
ATOM     27  C   UNL     1       5.215   5.800  16.288  0.00  0.00    +0.000 A 
ATOM     28  C   UNL     1       4.623   4.539  16.385  0.00  0.00    +0.000 A 
ENDBRANCH  22  23
ENDBRANCH  19  22
ENDBRANCH  15  16
ENDBRANCH   9  15
TORSDOF 6
ENDMDL
MODEL 5
REMARK VINA RESULT:      -7.4      1.185      1.282
REMARK  Name = 
REMARK  8 active torsions:
REMARK  status: ('A' for Active; 'I' for Inactive)
REMARK    1  A    between atoms: C_1  and  O_2
REMARK    2  A    between atoms: O_2  and  C_3
REMARK    3  A    between atoms: C_8  and  O_9
REMARK    4  A    between atoms: O_9  and  C_10
REMARK    5  A    between atoms: C_13  and  C_14
REMARK    6  A    between atoms: C_14  and  C_15
REMARK    7  A    between atoms: N_18  and  C_19
REMARK    8  A    between atoms: C_19  and  C_20
REMARK                            x       y       z     vdW  Elec       q    Type
REMARK                         _______ _______ _______ _____ _____    ______ ____
ROOT
ATOM      1  C   UNL     1      -1.213  11.285  19.726  0.00  0.00    +0.000 A 
ATOM      2  C   UNL     1      -0.603  10.787  18.533  0.00  0.00    +0.000 A 
ATOM      3  C   UNL     1       0.414   9.812  18.634  0.00  0.00    +0.000 A 
ATOM      4  C   UNL     1       0.750   9.320  19.855  0.00  0.00    +0.000 A 
ATOM      5  C   UNL     1       0.192   9.780  21.036  0.00  0.00    +0.000 A 
ATOM      6  C   UNL     1      -0.778  10.777  20.996  0.00  0.00    +0.000 A 
ATOM      7  C   UNL     1       1.718   8.267  19.713  0.00  0.00    +0.000 C 
ATOM      8  O   UNL     1       2.060   7.549  20.632  0.00  0.00    +0.000 OA
ATOM      9  C   UNL     1       2.306   8.318  18.341  0.00  0.00    +0.000 C 
ATOM     10  C   UNL     1       1.203   9.108  17.542  0.00  0.00    +0.000 C 
ENDROOT
BRANCH   1  12
ATOM     11  C   UNL     1      -3.469  12.085  19.184  0.00  0.00    +0.000 C 
ATOM     12  O   UNL     1      -2.199  12.222  19.704  0.00  0.00    +0.000 OA
ENDBRANCH   1  12
BRANCH   6  13
ATOM     13  O   UNL     1      -1.256  11.188  22.202  0.00  0.00    +0.000 OA
ATOM     14  C   UNL     1      -0.989  12.351  22.885  0.00  0.00    +0.000 C 
ENDBRANCH   6  13
BRANCH   9  15
ATOM     15  C   UNL     1       2.771   6.961  17.740  0.00  0.00    +0.000 C 
BRANCH  15  16
ATOM     16  C   UNL     1       4.333   6.815  17.545  0.00  0.00    +0.000 C 
ATOM     17  C   UNL     1       4.780   5.854  16.421  0.00  0.00    +0.000 C 
ATOM     18  C   UNL     1       4.407   4.410  16.759  0.00  0.00    +0.000 C 
ATOM     19  N   UNL     1       4.936   3.972  18.083  0.00  0.00    +0.000 NA
ATOM     20  C   UNL     1       4.677   4.927  19.187  0.00  0.00    +0.000 C 
ATOM     21  C   UNL     1       5.060   6.356  18.818  0.00  0.00    +0.000 C 
BRANCH  19  22
ATOM     22  C   UNL     1       4.450   2.609  18.434  0.00  0.00    +0.000 C 
BRANCH  22  23
ATOM     23  C   UNL     1       3.200   2.639  19.306  0.00  0.00    +0.000 A 
ATOM     24  C   UNL     1       1.927   2.758  18.723  0.00  0.00    +0.000 A 
ATOM     25  C   UNL     1       0.790   2.908  19.520  0.00  0.00    +0.000 A 
ATOM     26  C   UNL     1       0.910   2.925  20.910  0.00  0.00    +0.000 A 
ATOM     27  C   UNL     1       2.164   2.780  21.507  0.00  0.00    +0.000 A 
ATOM     28  C   UNL     1       3.304   2.628  20.713  0.00  0.00    +0.000 A 
ENDBRANCH  22  23
ENDBRANCH  19  22
ENDBRANCH  15  16
ENDBRANCH   9  15
TORSDOF 6
ENDMDL
MODEL 6
REMARK VINA RESULT:      -7.3      1.636      4.229
REMARK  Name = 
REMARK  8 active torsions:
REMARK  status: ('A' for Active; 'I' for Inactive)
REMARK    1  A    between atoms: C_1  and  O_2
REMARK    2  A    between atoms: O_2  and  C_3
REMARK    3  A    between atoms: C_8  and  O_9
REMARK    4  A    between atoms: O_9  and  C_10
REMARK    5  A    between atoms: C_13  and  C_14
REMARK    6  A    between atoms: C_14  and  C_15
REMARK    7  A    between atoms: N_18  and  C_19
REMARK    8  A    between atoms: C_19  and  C_20
REMARK                            x       y       z     vdW  Elec       q    Type
REMARK                         _______ _______ _______ _____ _____    ______ ____
ROOT
ATOM      1  C   UNL     1      -0.083  11.697  21.076  0.00  0.00    +0.000 A 
ATOM      2  C   UNL     1       0.207  10.455  21.722  0.00  0.00    +0.000 A 
ATOM      3  C   UNL     1       0.759   9.397  20.967  0.00  0.00    +0.000 A 
ATOM      4  C   UNL     1       1.063   9.597  19.658  0.00  0.00    +0.000 A 
ATOM      5  C   UNL     1       0.791  10.779  18.990  0.00  0.00    +0.000 A 
ATOM      6  C   UNL     1       0.199  11.836  19.676  0.00  0.00    +0.000 A 
ATOM      7  C   UNL     1       1.713   8.434  19.119  0.00  0.00    +0.000 C 
ATOM      8  O   UNL     1       2.236   8.412  18.022  0.00  0.00    +0.000 OA
ATOM      9  C   UNL     1       1.502   7.279  20.042  0.00  0.00    +0.000 C 
ATOM     10  C   UNL     1       1.175   8.001  21.401  0.00  0.00    +0.000 C 
ENDROOT
BRANCH   1  12
ATOM     11  C   UNL     1      -1.246  12.744  22.966  0.00  0.00    +0.000 C 
ATOM     12  O   UNL     1      -0.613  12.758  21.741  0.00  0.00    +0.000 OA
ENDBRANCH   1  12
BRANCH   6  13
ATOM     13  O   UNL     1      -0.055  12.952  18.939  0.00  0.00    +0.000 OA
ATOM     14  C   UNL     1       0.705  14.092  18.812  0.00  0.00    +0.000 C 
ENDBRANCH   6  13
BRANCH   9  15
ATOM     15  C   UNL     1       2.628   6.205  20.070  0.00  0.00    +0.000 C 
BRANCH  15  16
ATOM     16  C   UNL     1       2.129   4.708  19.973  0.00  0.00    +0.000 C 
ATOM     17  C   UNL     1       3.190   3.629  20.281  0.00  0.00    +0.000 C 
ATOM     18  C   UNL     1       4.288   3.624  19.215  0.00  0.00    +0.000 C 
ATOM     19  N   UNL     1       3.750   3.471  17.832  0.00  0.00    +0.000 NA
ATOM     20  C   UNL     1       2.618   4.376  17.517  0.00  0.00    +0.000 C 
ATOM     21  C   UNL     1       1.543   4.356  18.598  0.00  0.00    +0.000 C 
BRANCH  19  22
ATOM     22  C   UNL     1       4.831   3.598  16.816  0.00  0.00    +0.000 C 
BRANCH  22  23
ATOM     23  C   UNL     1       5.754   4.779  17.087  0.00  0.00    +0.000 A 
ATOM     24  C   UNL     1       6.945   4.602  17.813  0.00  0.00    +0.000 A 
ATOM     25  C   UNL     1       7.732   5.700  18.168  0.00  0.00    +0.000 A 
ATOM     26  C   UNL     1       7.349   6.986  17.789  0.00  0.00    +0.000 A 
ATOM     27  C   UNL     1       6.183   7.178  17.043  0.00  0.00    +0.000 A 
ATOM     28  C   UNL     1       5.393   6.083  16.685  0.00  0.00    +0.000 A 
ENDBRANCH  22  23
ENDBRANCH  19  22
ENDBRANCH  15  16
ENDBRANCH   9  15
TORSDOF 6
ENDMDL
MODEL 7
REMARK VINA RESULT:      -7.3      3.624      9.872
REMARK  Name = 
REMARK  8 active torsions:
REMARK  status: ('A' for Active; 'I' for Inactive)
REMARK    1  A    between atoms: C_1  and  O_2
REMARK    2  A    between atoms: O_2  and  C_3
REMARK    3  A    between atoms: C_8  and  O_9
REMARK    4  A    between atoms: O_9  and  C_10
REMARK    5  A    between atoms: C_13  and  C_14
REMARK    6  A    between atoms: C_14  and  C_15
REMARK    7  A    between atoms: N_18  and  C_19
REMARK    8  A    between atoms: C_19  and  C_20
REMARK                            x       y       z     vdW  Elec       q    Type
REMARK                         _______ _______ _______ _____ _____    ______ ____
ROOT
ATOM      1  C   UNL     1       3.537   5.436  18.512  0.00  0.00    +0.000 A 
ATOM      2  C   UNL     1       3.309   6.666  17.820  0.00  0.00    +0.000 A 
ATOM      3  C   UNL     1       2.494   7.652  18.415  0.00  0.00    +0.000 A 
ATOM      4  C   UNL     1       1.991   7.443  19.661  0.00  0.00    +0.000 A 
ATOM      5  C   UNL     1       2.178   6.264  20.363  0.00  0.00    +0.000 A 
ATOM      6  C   UNL     1       2.931   5.239  19.798  0.00  0.00    +0.000 A 
ATOM      7  C   UNL     1       1.290   8.613  20.113  0.00  0.00    +0.000 C 
ATOM      8  O   UNL     1       0.891   8.750  21.253  0.00  0.00    +0.000 OA
ATOM      9  C   UNL     1       1.023   9.510  18.949  0.00  0.00    +0.000 C 
ATOM     10  C   UNL     1       2.110   9.036  17.915  0.00  0.00    +0.000 C 
ENDROOT
BRANCH   1  12
ATOM     11  C   UNL     1       5.684   4.447  17.853  0.00  0.00    +0.000 C 
ATOM     12  O   UNL     1       4.313   4.444  17.999  0.00  0.00    +0.000 OA
ENDBRANCH   1  12
BRANCH   6  13
ATOM     13  O   UNL     1       3.046   4.106  20.545  0.00  0.00    +0.000 OA
ATOM     14  C   UNL     1       2.225   3.651  21.551  0.00  0.00    +0.000 C 
ENDBRANCH   6  13
BRANCH   9  15
ATOM     15  C   UNL     1       0.961  11.034  19.255  0.00  0.00    +0.000 C 
BRANCH  15  16
ATOM     16  C   UNL     1      -0.494  11.620  19.446  0.00  0.00    +0.000 C 
ATOM     17  C   UNL     1      -0.952  12.635  18.375  0.00  0.00    +0.000 C 
ATOM     18  C   UNL     1      -0.124  13.919  18.452  0.00  0.00    +0.000 C 
ATOM     19  N   UNL     1      -0.132  14.531  19.812  0.00  0.00    +0.000 NA
ATOM     20  C   UNL     1       0.149  13.576  20.910  0.00  0.00    +0.000 C 
ATOM     21  C   UNL     1      -0.693  12.308  20.805  0.00  0.00    +0.000 C 
BRANCH  19  22
ATOM     22  C   UNL     1       0.783  15.705  19.880  0.00  0.00    +0.000 C 
BRANCH  22  23
ATOM     23  C   UNL     1       0.584  16.670  18.718  0.00  0.00    +0.000 A 
ATOM     24  C   UNL     1       1.672  17.054  17.916  0.00  0.00    +0.000 A 
ATOM     25  C   UNL     1       1.520  18.030  16.928  0.00  0.00    +0.000 A 
ATOM     26  C   UNL     1       0.275  18.623  16.719  0.00  0.00    +0.000 A 
ATOM     27  C   UNL     1      -0.824  18.233  17.487  0.00  0.00    +0.000 A 
ATOM     28  C   UNL     1      -0.677  17.256  18.475  0.00  0.00    +0.000 A 
ENDBRANCH  22  23
ENDBRANCH  19  22
ENDBRANCH  15  16
ENDBRANCH   9  15
TORSDOF 6
ENDMDL
MODEL 8
REMARK VINA RESULT:      -7.2      2.369      4.901
REMARK  Name = 
REMARK  8 active torsions:
REMARK  status: ('A' for Active; 'I' for Inactive)
REMARK    1  A    between atoms: C_1  and  O_2
REMARK    2  A    between atoms: O_2  and  C_3
REMARK    3  A    between atoms: C_8  and  O_9
REMARK    4  A    between atoms: O_9  and  C_10
REMARK    5  A    between atoms: C_13  and  C_14
REMARK    6  A    between atoms: C_14  and  C_15
REMARK    7  A    between atoms: N_18  and  C_19
REMARK    8  A    between atoms: C_19  and  C_20
REMARK                            x       y       z     vdW  Elec       q    Type
REMARK                         _______ _______ _______ _____ _____    ______ ____
ROOT
ATOM      1  C   UNL     1       0.377  10.237  21.780  0.00  0.00    +0.000 A 
ATOM      2  C   UNL     1       0.745   8.855  21.792  0.00  0.00    +0.000 A 
ATOM      3  C   UNL     1       1.197   8.251  20.599  0.00  0.00    +0.000 A 
ATOM      4  C   UNL     1       1.336   9.006  19.477  0.00  0.00    +0.000 A 
ATOM      5  C   UNL     1       0.983  10.344  19.418  0.00  0.00    +0.000 A 
ATOM      6  C   UNL     1       0.482  10.974  20.553  0.00  0.00    +0.000 A 
ATOM      7  C   UNL     1       1.912   8.219  18.422  0.00  0.00    +0.000 C 
ATOM      8  O   UNL     1       2.293   8.695  17.370  0.00  0.00    +0.000 OA
ATOM      9  C   UNL     1       1.818   6.772  18.776  0.00  0.00    +0.000 C 
ATOM     10  C   UNL     1       1.664   6.827  20.341  0.00  0.00    +0.000 C 
ENDROOT
BRANCH   1  12
ATOM     11  C   UNL     1      -1.372  11.151  23.239  0.00  0.00    +0.000 C 
ATOM     12  O   UNL     1      -0.064  10.883  22.892  0.00  0.00    +0.000 OA
ENDBRANCH   1  12
BRANCH   6  13
ATOM     13  O   UNL     1       0.138  12.283  20.401  0.00  0.00    +0.000 OA
ATOM     14  C   UNL     1      -1.071  12.817  20.021  0.00  0.00    +0.000 C 
ENDBRANCH   6  13
BRANCH   9  15
ATOM     15  C   UNL     1       2.937   5.851  18.212  0.00  0.00    +0.000 C 
BRANCH  15  16
ATOM     16  C   UNL     1       4.406   6.418  18.354  0.00  0.00    +0.000 C 
ATOM     17  C   UNL     1       5.046   6.949  17.052  0.00  0.00    +0.000 C 
ATOM     18  C   UNL     1       5.284   5.811  16.058  0.00  0.00    +0.000 C 
ATOM     19  N   UNL     1       6.088   4.697  16.637  0.00  0.00    +0.000 NA
ATOM     20  C   UNL     1       5.620   4.237  17.967  0.00  0.00    +0.000 C 
ATOM     21  C   UNL     1       5.394   5.395  18.933  0.00  0.00    +0.000 C 
BRANCH  19  22
ATOM     22  C   UNL     1       6.191   3.556  15.685  0.00  0.00    +0.000 C 
BRANCH  22  23
ATOM     23  C   UNL     1       6.515   4.005  14.266  0.00  0.00    +0.000 A 
ATOM     24  C   UNL     1       5.884   3.399  13.166  0.00  0.00    +0.000 A 
ATOM     25  C   UNL     1       6.265   3.721  11.861  0.00  0.00    +0.000 A 
ATOM     26  C   UNL     1       7.269   4.663  11.638  0.00  0.00    +0.000 A 
ATOM     27  C   UNL     1       7.887   5.295  12.720  0.00  0.00    +0.000 A 
ATOM     28  C   UNL     1       7.509   4.978  14.026  0.00  0.00    +0.000 A 
ENDBRANCH  22  23
ENDBRANCH  19  22
ENDBRANCH  15  16
ENDBRANCH   9  15
TORSDOF 6
ENDMDL
MODEL 9
REMARK VINA RESULT:      -7.2      1.456      4.037
REMARK  Name = 
REMARK  8 active torsions:
REMARK  status: ('A' for Active; 'I' for Inactive)
REMARK    1  A    between atoms: C_1  and  O_2
REMARK    2  A    between atoms: O_2  and  C_3
REMARK    3  A    between atoms: C_8  and  O_9
REMARK    4  A    between atoms: O_9  and  C_10
REMARK    5  A    between atoms: C_13  and  C_14
REMARK    6  A    between atoms: C_14  and  C_15
REMARK    7  A    between atoms: N_18  and  C_19
REMARK    8  A    between atoms: C_19  and  C_20
REMARK                            x       y       z     vdW  Elec       q    Type
REMARK                         _______ _______ _______ _____ _____    ______ ____
ROOT
ATOM      1  C   UNL     1      -0.137  11.375  20.656  0.00  0.00    +0.000 A 
ATOM      2  C   UNL     1      -0.130  10.153  21.397  0.00  0.00    +0.000 A 
ATOM      3  C   UNL     1       0.549   9.032  20.873  0.00  0.00    +0.000 A 
ATOM      4  C   UNL     1       1.236   9.150  19.706  0.00  0.00    +0.000 A 
ATOM      5  C   UNL     1       1.248  10.311  18.951  0.00  0.00    +0.000 A 
ATOM      6  C   UNL     1       0.551  11.430  19.397  0.00  0.00    +0.000 A 
ATOM      7  C   UNL     1       1.938   7.929  19.420  0.00  0.00    +0.000 C 
ATOM      8  O   UNL     1       2.756   7.826  18.528  0.00  0.00    +0.000 OA
ATOM      9  C   UNL     1       1.392   6.834  20.276  0.00  0.00    +0.000 C 
ATOM     10  C   UNL     1       0.729   7.638  21.454  0.00  0.00    +0.000 C 
ENDROOT
BRANCH   1  12
ATOM     11  C   UNL     1      -2.108  12.799  20.987  0.00  0.00    +0.000 C 
ATOM     12  O   UNL     1      -0.768  12.494  21.101  0.00  0.00    +0.000 OA
ENDBRANCH   1  12
BRANCH   6  13
ATOM     13  O   UNL     1       0.597  12.520  18.583  0.00  0.00    +0.000 OA
ATOM     14  C   UNL     1       1.679  13.300  18.248  0.00  0.00    +0.000 C 
ENDBRANCH   6  13
BRANCH   9  15
ATOM     15  C   UNL     1       2.389   5.706  20.669  0.00  0.00    +0.000 C 
BRANCH  15  16
ATOM     16  C   UNL     1       1.836   4.234  20.499  0.00  0.00    +0.000 C 
ATOM     17  C   UNL     1       2.866   3.104  20.715  0.00  0.00    +0.000 C 
ATOM     18  C   UNL     1       3.936   3.125  19.621  0.00  0.00    +0.000 C 
ATOM     19  N   UNL     1       3.359   3.072  18.247  0.00  0.00    +0.000 NA
ATOM     20  C   UNL     1       2.252   4.031  18.015  0.00  0.00    +0.000 C 
ATOM     21  C   UNL     1       1.203   3.983  19.122  0.00  0.00    +0.000 C 
BRANCH  19  22
ATOM     22  C   UNL     1       4.418   3.222  17.211  0.00  0.00    +0.000 C 
BRANCH  22  23
ATOM     23  C   UNL     1       5.184   4.532  17.342  0.00  0.00    +0.000 A 
ATOM     24  C   UNL     1       4.792   5.664  16.607  0.00  0.00    +0.000 A 
ATOM     25  C   UNL     1       5.561   6.830  16.629  0.00  0.00    +0.000 A 
ATOM     26  C   UNL     1       6.723   6.885  17.401  0.00  0.00    +0.000 A 
ATOM     27  C   UNL     1       7.111   5.780  18.160  0.00  0.00    +0.000 A 
ATOM     28  C   UNL     1       6.345   4.612  18.141  0.00  0.00    +0.000 A 
ENDBRANCH  22  23
ENDBRANCH  19  22
ENDBRANCH  15  16
ENDBRANCH   9  15
TORSDOF 6
ENDMDL
