MODEL 1
REMARK VINA RESULT:      -7.1      0.000      0.000
REMARK  Name = 
REMARK  4 active torsions:
REMARK  status: ('A' for Active; 'I' for Inactive)
REMARK    1  A    between atoms: N_1  and  S_2
REMARK    2  A    between atoms: S_2  and  C_5
REMARK    3  A    between atoms: C_10  and  N_11
REMARK    4  A    between atoms: N_11  and  C_12
REMARK                            x       y       z     vdW  Elec       q    Type
REMARK                         _______ _______ _______ _____ _____    ______ ____
ROOT
ATOM      1  C   UNL     1       6.546   5.448  17.083  0.00  0.00    +0.000 A 
ATOM      2  C   UNL     1       7.489   6.456  17.353  0.00  0.00    +0.000 A 
ATOM      3  C   UNL     1       7.978   6.606  18.638  0.00  0.00    +0.000 A 
ATOM      4  C   UNL     1       7.485   5.758  19.606  0.00  0.00    +0.000 A 
ATOM      5  N   UNL     1       6.569   4.793  19.364  0.00  0.00    +0.000 NA
ATOM      6  C   UNL     1       6.085   4.620  18.108  0.00  0.00    +0.000 A 
ENDROOT
BRANCH   1   7
ATOM      7  S   UNL     1       5.905   5.394  15.444  0.00  0.00    +0.000 S 
ATOM      8  O   UNL     1       5.228   6.647  15.196  0.00  0.00    +0.000 OA
ATOM      9  O   UNL     1       5.264   4.117  15.209  0.00  0.00    +0.000 OA
BRANCH   7  10
ATOM     10  N   UNL     1       7.291   5.437  14.484  0.00  0.00    +0.000 NA
ATOM     11  H   UNL     1       7.832   4.581  14.630  0.00  0.00    +0.000 HD
ATOM     12  H   UNL     1       7.116   5.643  13.504  0.00  0.00    +0.000 HD
ENDBRANCH   7  10
ENDBRANCH   1   7
BRANCH   6  13
ATOM     13  N   UNL     1       5.263   3.520  17.906  0.00  0.00    +0.000 N 
ATOM     14  H   UNL     1       5.223   3.188  16.939  0.00  0.00    +0.000 HD
BRANCH  13  15
ATOM     15  C   UNL     1       3.982   3.441  18.611  0.00  0.00    +0.000 C 
ATOM     16  C   UNL     1       3.026   4.543  18.141  0.00  0.00    +0.000 C 
ATOM     17  C   UNL     1       1.673   3.895  17.866  0.00  0.00    +0.000 C 
ATOM     18  C   UNL     1       1.809   2.410  18.151  0.00  0.00    +0.000 C 
ATOM     19  C   UNL     1       3.295   2.121  18.268  0.00  0.00    +0.000 C 
ENDBRANCH  13  15
ENDBRANCH   6  13
TORSDOF 4
ENDMDL
MODEL 2
REMARK VINA RESULT:      -6.8      0.764      1.259
REMARK  Name = 
REMARK  4 active torsions:
REMARK  status: ('A' for Active; 'I' for Inactive)
REMARK    1  A    between atoms: N_1  and  S_2
REMARK    2  A    between atoms: S_2  and  C_5
REMARK    3  A    between atoms: C_10  and  N_11
REMARK    4  A    between atoms: N_11  and  C_12
REMARK                            x       y       z     vdW  Elec       q    Type
REMARK                         _______ _______ _______ _____ _____    ______ ____
ROOT
ATOM      1  C   UNL     1       6.591   5.106  16.929  0.00  0.00    +0.000 A 
ATOM      2  C   UNL     1       7.533   6.052  17.369  0.00  0.00    +0.000 A 
ATOM      3  C   UNL     1       7.735   6.234  18.726  0.00  0.00    +0.000 A 
ATOM      4  C   UNL     1       6.967   5.479  19.587  0.00  0.00    +0.000 A 
ATOM      5  N   UNL     1       6.049   4.575  19.177  0.00  0.00    +0.000 NA
ATOM      6  C   UNL     1       5.844   4.372  17.852  0.00  0.00    +0.000 A 
ENDROOT
BRANCH   1   7
ATOM      7  S   UNL     1       6.328   5.013  15.190  0.00  0.00    +0.000 S 
ATOM      8  O   UNL     1       5.377   6.042  14.834  0.00  0.00    +0.000 OA
ATOM      9  O   UNL     1       6.148   3.632  14.794  0.00  0.00    +0.000 OA
BRANCH   7  10
ATOM     10  N   UNL     1       7.801   5.524  14.548  0.00  0.00    +0.000 NA
ATOM     11  H   UNL     1       8.478   4.758  14.597  0.00  0.00    +0.000 HD
ATOM     12  H   UNL     1       7.733   5.945  13.625  0.00  0.00    +0.000 HD
ENDBRANCH   7  10
ENDBRANCH   1   7
BRANCH   6  13
ATOM     13  N   UNL     1       4.995   3.328  17.507  0.00  0.00    +0.000 N 
ATOM     14  H   UNL     1       5.433   2.584  16.959  0.00  0.00    +0.000 HD
BRANCH  13  15
ATOM     15  C   UNL     1       3.617   3.624  17.108  0.00  0.00    +0.000 C 
ATOM     16  C   UNL     1       2.646   2.577  17.666  0.00  0.00    +0.000 C 
ATOM     17  C   UNL     1       1.471   3.321  18.290  0.00  0.00    +0.000 C 
ATOM     18  C   UNL     1       1.733   4.808  18.129  0.00  0.00    +0.000 C 
ATOM     19  C   UNL     1       3.187   4.956  17.720  0.00  0.00    +0.000 C 
ENDBRANCH  13  15
ENDBRANCH   6  13
TORSDOF 4
ENDMDL
MODEL 3
REMARK VINA RESULT:      -6.8      0.892      1.079
REMARK  Name = 
REMARK  4 active torsions:
REMARK  status: ('A' for Active; 'I' for Inactive)
REMARK    1  A    between atoms: N_1  and  S_2
REMARK    2  A    between atoms: S_2  and  C_5
REMARK    3  A    between atoms: C_10  and  N_11
REMARK    4  A    between atoms: N_11  and  C_12
REMARK                            x       y       z     vdW  Elec       q    Type
REMARK                         _______ _______ _______ _____ _____    ______ ____
ROOT
ATOM      1  C   UNL     1       6.657   5.373  17.103  0.00  0.00    +0.000 A 
ATOM      2  C   UNL     1       7.598   6.369  17.419  0.00  0.00    +0.000 A 
ATOM      3  C   UNL     1       7.997   6.538  18.733  0.00  0.00    +0.000 A 
ATOM      4  C   UNL     1       7.418   5.722  19.680  0.00  0.00    +0.000 A 
ATOM      5  N   UNL     1       6.502   4.770  19.393  0.00  0.00    +0.000 NA
ATOM      6  C   UNL     1       6.106   4.577  18.109  0.00  0.00    +0.000 A 
ENDROOT
BRANCH   1   7
ATOM      7  S   UNL     1       6.134   5.294  15.423  0.00  0.00    +0.000 S 
ATOM      8  O   UNL     1       5.177   4.215  15.311  0.00  0.00    +0.000 OA
ATOM      9  O   UNL     1       7.280   5.396  14.546  0.00  0.00    +0.000 OA
BRANCH   7  10
ATOM     10  N   UNL     1       5.235   6.708  15.231  0.00  0.00    +0.000 NA
ATOM     11  H   UNL     1       5.566   7.414  15.894  0.00  0.00    +0.000 HD
ATOM     12  H   UNL     1       5.185   7.047  14.273  0.00  0.00    +0.000 HD
ENDBRANCH   7  10
ENDBRANCH   1   7
BRANCH   6  13
ATOM     13  N   UNL     1       5.278   3.489  17.871  0.00  0.00    +0.000 N 
ATOM     14  H   UNL     1       5.220   3.203  16.891  0.00  0.00    +0.000 HD
BRANCH  13  15
ATOM     15  C   UNL     1       4.010   3.378  18.596  0.00  0.00    +0.000 C 
ATOM     16  C   UNL     1       3.037   4.485  18.174  0.00  0.00    +0.000 C 
ATOM     17  C   UNL     1       1.685   3.834  17.904  0.00  0.00    +0.000 C 
ATOM     18  C   UNL     1       1.838   2.342  18.144  0.00  0.00    +0.000 C 
ATOM     19  C   UNL     1       3.328   2.063  18.227  0.00  0.00    +0.000 C 
ENDBRANCH  13  15
ENDBRANCH   6  13
TORSDOF 4
ENDMDL
MODEL 4
REMARK VINA RESULT:      -6.7      0.959      1.004
REMARK  Name = 
REMARK  4 active torsions:
REMARK  status: ('A' for Active; 'I' for Inactive)
REMARK    1  A    between atoms: N_1  and  S_2
REMARK    2  A    between atoms: S_2  and  C_5
REMARK    3  A    between atoms: C_10  and  N_11
REMARK    4  A    between atoms: N_11  and  C_12
REMARK                            x       y       z     vdW  Elec       q    Type
REMARK                         _______ _______ _______ _____ _____    ______ ____
ROOT
ATOM      1  C   UNL     1       6.672   5.231  17.013  0.00  0.00    +0.000 A 
ATOM      2  C   UNL     1       7.665   6.147  17.400  0.00  0.00    +0.000 A 
ATOM      3  C   UNL     1       7.916   6.354  18.745  0.00  0.00    +0.000 A 
ATOM      4  C   UNL     1       7.144   5.654  19.648  0.00  0.00    +0.000 A 
ATOM      5  N   UNL     1       6.177   4.780  19.290  0.00  0.00    +0.000 NA
ATOM      6  C   UNL     1       5.923   4.553  17.977  0.00  0.00    +0.000 A 
ENDROOT
BRANCH   1   7
ATOM      7  S   UNL     1       6.352   5.106  15.286  0.00  0.00    +0.000 S 
ATOM      8  O   UNL     1       7.544   5.531  14.587  0.00  0.00    +0.000 OA
ATOM      9  O   UNL     1       5.049   5.660  14.986  0.00  0.00    +0.000 OA
BRANCH   7  10
ATOM     10  N   UNL     1       6.254   3.442  15.031  0.00  0.00    +0.000 NA
ATOM     11  H   UNL     1       6.984   2.972  15.572  0.00  0.00    +0.000 HD
ATOM     12  H   UNL     1       5.328   3.049  15.176  0.00  0.00    +0.000 HD
ENDBRANCH   7  10
ENDBRANCH   1   7
BRANCH   6  13
ATOM     13  N   UNL     1       5.021   3.538  17.685  0.00  0.00    +0.000 N 
ATOM     14  H   UNL     1       4.843   3.398  16.688  0.00  0.00    +0.000 HD
BRANCH  13  15
ATOM     15  C   UNL     1       3.836   3.366  18.528  0.00  0.00    +0.000 C 
ATOM     16  C   UNL     1       2.805   4.468  18.258  0.00  0.00    +0.000 C 
ATOM     17  C   UNL     1       1.444   3.799  18.095  0.00  0.00    +0.000 C 
ATOM     18  C   UNL     1       1.649   2.302  18.247  0.00  0.00    +0.000 C 
ATOM     19  C   UNL     1       3.144   2.053  18.167  0.00  0.00    +0.000 C 
ENDBRANCH  13  15
ENDBRANCH   6  13
TORSDOF 4
ENDMDL
MODEL 5
REMARK VINA RESULT:      -6.7      2.831      4.666
REMARK  Name = 
REMARK  4 active torsions:
REMARK  status: ('A' for Active; 'I' for Inactive)
REMARK    1  A    between atoms: N_1  and  S_2
REMARK    2  A    between atoms: S_2  and  C_5
REMARK    3  A    between atoms: C_10  and  N_11
REMARK    4  A    between atoms: N_11  and  C_12
REMARK                            x       y       z     vdW  Elec       q    Type
REMARK                         _______ _______ _______ _____ _____    ______ ____
ROOT
ATOM      1  C   UNL     1       5.787   4.790  18.179  0.00  0.00    +0.000 A 
ATOM      2  C   UNL     1       4.994   5.120  19.292  0.00  0.00    +0.000 A 
ATOM      3  C   UNL     1       3.638   4.847  19.268  0.00  0.00    +0.000 A 
ATOM      4  C   UNL     1       3.127   4.278  18.122  0.00  0.00    +0.000 A 
ATOM      5  N   UNL     1       3.876   3.967  17.039  0.00  0.00    +0.000 NA
ATOM      6  C   UNL     1       5.209   4.214  17.046  0.00  0.00    +0.000 A 
ENDROOT
BRANCH   1   7
ATOM      7  S   UNL     1       7.482   5.264  18.256  0.00  0.00    +0.000 S 
ATOM      8  O   UNL     1       7.590   6.597  17.707  0.00  0.00    +0.000 OA
ATOM      9  O   UNL     1       8.318   4.175  17.798  0.00  0.00    +0.000 OA
BRANCH   7  10
ATOM     10  N   UNL     1       7.759   5.439  19.910  0.00  0.00    +0.000 NA
ATOM     11  H   UNL     1       8.113   4.558  20.291  0.00  0.00    +0.000 HD
ATOM     12  H   UNL     1       8.330   6.244  20.157  0.00  0.00    +0.000 HD
ENDBRANCH   7  10
ENDBRANCH   1   7
BRANCH   6  13
ATOM     13  N   UNL     1       5.935   3.736  15.964  0.00  0.00    +0.000 N 
ATOM     14  H   UNL     1       6.856   3.359  16.199  0.00  0.00    +0.000 HD
BRANCH  13  15
ATOM     15  C   UNL     1       5.903   4.469  14.696  0.00  0.00    +0.000 C 
ATOM     16  C   UNL     1       7.231   5.194  14.446  0.00  0.00    +0.000 C 
ATOM     17  C   UNL     1       7.654   4.901  13.011  0.00  0.00    +0.000 C 
ATOM     18  C   UNL     1       6.602   3.992  12.398  0.00  0.00    +0.000 C 
ATOM     19  C   UNL     1       5.746   3.481  13.542  0.00  0.00    +0.000 C 
ENDBRANCH  13  15
ENDBRANCH   6  13
TORSDOF 4
ENDMDL
MODEL 6
REMARK VINA RESULT:      -6.6      1.161      1.571
REMARK  Name = 
REMARK  4 active torsions:
REMARK  status: ('A' for Active; 'I' for Inactive)
REMARK    1  A    between atoms: N_1  and  S_2
REMARK    2  A    between atoms: S_2  and  C_5
REMARK    3  A    between atoms: C_10  and  N_11
REMARK    4  A    between atoms: N_11  and  C_12
REMARK                            x       y       z     vdW  Elec       q    Type
REMARK                         _______ _______ _______ _____ _____    ______ ____
ROOT
ATOM      1  C   UNL     1       6.648   5.143  16.895  0.00  0.00    +0.000 A 
ATOM      2  C   UNL     1       7.587   6.065  17.389  0.00  0.00    +0.000 A 
ATOM      3  C   UNL     1       7.738   6.218  18.756  0.00  0.00    +0.000 A 
ATOM      4  C   UNL     1       6.925   5.462  19.572  0.00  0.00    +0.000 A 
ATOM      5  N   UNL     1       6.008   4.581  19.109  0.00  0.00    +0.000 NA
ATOM      6  C   UNL     1       5.853   4.405  17.773  0.00  0.00    +0.000 A 
ENDROOT
BRANCH   1   7
ATOM      7  S   UNL     1       6.453   5.086  15.145  0.00  0.00    +0.000 S 
ATOM      8  O   UNL     1       7.692   5.536  14.550  0.00  0.00    +0.000 OA
ATOM      9  O   UNL     1       5.174   5.653  14.774  0.00  0.00    +0.000 OA
BRANCH   7  10
ATOM     10  N   UNL     1       6.375   3.434  14.819  0.00  0.00    +0.000 NA
ATOM     11  H   UNL     1       6.454   2.910  15.694  0.00  0.00    +0.000 HD
ATOM     12  H   UNL     1       5.578   3.155  14.252  0.00  0.00    +0.000 HD
ENDBRANCH   7  10
ENDBRANCH   1   7
BRANCH   6  13
ATOM     13  N   UNL     1       5.002   3.383  17.376  0.00  0.00    +0.000 N 
ATOM     14  H   UNL     1       5.428   2.687  16.759  0.00  0.00    +0.000 HD
BRANCH  13  15
ATOM     15  C   UNL     1       3.610   3.694  17.043  0.00  0.00    +0.000 C 
ATOM     16  C   UNL     1       2.659   2.630  17.604  0.00  0.00    +0.000 C 
ATOM     17  C   UNL     1       1.512   3.355  18.300  0.00  0.00    +0.000 C 
ATOM     18  C   UNL     1       1.772   4.847  18.179  0.00  0.00    +0.000 C 
ATOM     19  C   UNL     1       3.209   5.005  17.717  0.00  0.00    +0.000 C 
ENDBRANCH  13  15
ENDBRANCH   6  13
TORSDOF 4
ENDMDL
MODEL 7
REMARK VINA RESULT:      -6.6      1.190      1.739
REMARK  Name = 
REMARK  4 active torsions:
REMARK  status: ('A' for Active; 'I' for Inactive)
REMARK    1  A    between atoms: N_1  and  S_2
REMARK    2  A    between atoms: S_2  and  C_5
REMARK    3  A    between atoms: C_10  and  N_11
REMARK    4  A    between atoms: N_11  and  C_12
REMARK                            x       y       z     vdW  Elec       q    Type
REMARK                         _______ _______ _______ _____ _____    ______ ____
ROOT
ATOM      1  C   UNL     1       6.733   5.049  16.960  0.00  0.00    +0.000 A 
ATOM      2  C   UNL     1       7.667   5.959  17.485  0.00  0.00    +0.000 A 
ATOM      3  C   UNL     1       7.741   6.147  18.854  0.00  0.00    +0.000 A 
ATOM      4  C   UNL     1       6.860   5.434  19.639  0.00  0.00    +0.000 A 
ATOM      5  N   UNL     1       5.949   4.565  19.146  0.00  0.00    +0.000 NA
ATOM      6  C   UNL     1       5.868   4.357  17.808  0.00  0.00    +0.000 A 
ENDROOT
BRANCH   1   7
ATOM      7  S   UNL     1       6.640   4.948  15.204  0.00  0.00    +0.000 S 
ATOM      8  O   UNL     1       6.184   3.618  14.864  0.00  0.00    +0.000 OA
ATOM      9  O   UNL     1       7.831   5.523  14.615  0.00  0.00    +0.000 OA
BRANCH   7  10
ATOM     10  N   UNL     1       5.355   5.972  14.825  0.00  0.00    +0.000 NA
ATOM     11  H   UNL     1       4.566   5.769  15.444  0.00  0.00    +0.000 HD
ATOM     12  H   UNL     1       5.600   6.958  14.793  0.00  0.00    +0.000 HD
ENDBRANCH   7  10
ENDBRANCH   1   7
BRANCH   6  13
ATOM     13  N   UNL     1       5.014   3.346  17.388  0.00  0.00    +0.000 N 
ATOM     14  H   UNL     1       5.443   2.652  16.772  0.00  0.00    +0.000 HD
BRANCH  13  15
ATOM     15  C   UNL     1       3.630   3.674  17.036  0.00  0.00    +0.000 C 
ATOM     16  C   UNL     1       2.656   2.639  17.612  0.00  0.00    +0.000 C 
ATOM     17  C   UNL     1       1.517   3.400  18.282  0.00  0.00    +0.000 C 
ATOM     18  C   UNL     1       1.803   4.883  18.128  0.00  0.00    +0.000 C 
ATOM     19  C   UNL     1       3.247   5.006  17.676  0.00  0.00    +0.000 C 
ENDBRANCH  13  15
ENDBRANCH   6  13
TORSDOF 4
ENDMDL
MODEL 8
REMARK VINA RESULT:      -6.6      2.092      2.735
REMARK  Name = 
REMARK  4 active torsions:
REMARK  status: ('A' for Active; 'I' for Inactive)
REMARK    1  A    between atoms: N_1  and  S_2
REMARK    2  A    between atoms: S_2  and  C_5
REMARK    3  A    between atoms: C_10  and  N_11
REMARK    4  A    between atoms: N_11  and  C_12
REMARK                            x       y       z     vdW  Elec       q    Type
REMARK                         _______ _______ _______ _____ _____    ______ ____
ROOT
ATOM      1  C   UNL     1       5.374   5.617  17.665  0.00  0.00    +0.000 A 
ATOM      2  C   UNL     1       4.928   6.828  17.108  0.00  0.00    +0.000 A 
ATOM      3  C   UNL     1       3.752   7.397  17.563  0.00  0.00    +0.000 A 
ATOM      4  C   UNL     1       3.055   6.716  18.538  0.00  0.00    +0.000 A 
ATOM      5  N   UNL     1       3.465   5.544  19.074  0.00  0.00    +0.000 NA
ATOM      6  C   UNL     1       4.623   4.976  18.652  0.00  0.00    +0.000 A 
ENDROOT
BRANCH   1   7
ATOM      7  S   UNL     1       6.827   4.916  16.958  0.00  0.00    +0.000 S 
ATOM      8  O   UNL     1       7.642   4.411  18.040  0.00  0.00    +0.000 OA
ATOM      9  O   UNL     1       7.359   5.805  15.948  0.00  0.00    +0.000 OA
BRANCH   7  10
ATOM     10  N   UNL     1       6.247   3.549  16.160  0.00  0.00    +0.000 NA
ATOM     11  H   UNL     1       5.427   3.189  16.654  0.00  0.00    +0.000 HD
ATOM     12  H   UNL     1       6.093   3.679  15.163  0.00  0.00    +0.000 HD
ENDBRANCH   7  10
ENDBRANCH   1   7
BRANCH   6  13
ATOM     13  N   UNL     1       5.054   3.854  19.348  0.00  0.00    +0.000 N 
ATOM     14  H   UNL     1       6.055   3.661  19.271  0.00  0.00    +0.000 HD
BRANCH  13  15
ATOM     15  C   UNL     1       4.219   2.651  19.359  0.00  0.00    +0.000 C 
ATOM     16  C   UNL     1       3.179   2.713  20.484  0.00  0.00    +0.000 C 
ATOM     17  C   UNL     1       1.830   2.322  19.890  0.00  0.00    +0.000 C 
ATOM     18  C   UNL     1       2.044   2.040  18.413  0.00  0.00    +0.000 C 
ATOM     19  C   UNL     1       3.420   2.576  18.060  0.00  0.00    +0.000 C 
ENDBRANCH  13  15
ENDBRANCH   6  13
TORSDOF 4
ENDMDL
MODEL 9
REMARK VINA RESULT:      -6.6      1.992      2.504
REMARK  Name = 
REMARK  4 active torsions:
REMARK  status: ('A' for Active; 'I' for Inactive)
REMARK    1  A    between atoms: N_1  and  S_2
REMARK    2  A    between atoms: S_2  and  C_5
REMARK    3  A    between atoms: C_10  and  N_11
REMARK    4  A    between atoms: N_11  and  C_12
REMARK                            x       y       z     vdW  Elec       q    Type
REMARK                         _______ _______ _______ _____ _____    ______ ____
ROOT
ATOM      1  C   UNL     1       5.310   5.496  17.443  0.00  0.00    +0.000 A 
ATOM      2  C   UNL     1       4.857   6.740  16.969  0.00  0.00    +0.000 A 
ATOM      3  C   UNL     1       3.768   7.344  17.572  0.00  0.00    +0.000 A 
ATOM      4  C   UNL     1       3.161   6.667  18.608  0.00  0.00    +0.000 A 
ATOM      5  N   UNL     1       3.578   5.464  19.065  0.00  0.00    +0.000 NA
ATOM      6  C   UNL     1       4.652   4.860  18.497  0.00  0.00    +0.000 A 
ENDROOT
BRANCH   1   7
ATOM      7  S   UNL     1       6.637   4.755  16.553  0.00  0.00    +0.000 S 
ATOM      8  O   UNL     1       7.329   5.807  15.841  0.00  0.00    +0.000 OA
ATOM      9  O   UNL     1       6.175   3.555  15.889  0.00  0.00    +0.000 OA
BRANCH   7  10
ATOM     10  N   UNL     1       7.696   4.270  17.772  0.00  0.00    +0.000 NA
ATOM     11  H   UNL     1       8.446   3.704  17.366  0.00  0.00    +0.000 HD
ATOM     12  H   UNL     1       8.036   5.028  18.359  0.00  0.00    +0.000 HD
ENDBRANCH   7  10
ENDBRANCH   1   7
BRANCH   6  13
ATOM     13  N   UNL     1       5.110   3.703  19.111  0.00  0.00    +0.000 N 
ATOM     14  H   UNL     1       6.086   3.471  18.913  0.00  0.00    +0.000 HD
BRANCH  13  15
ATOM     15  C   UNL     1       4.230   2.535  19.192  0.00  0.00    +0.000 C 
ATOM     16  C   UNL     1       3.252   2.664  20.366  0.00  0.00    +0.000 C 
ATOM     17  C   UNL     1       1.860   2.315  19.848  0.00  0.00    +0.000 C 
ATOM     18  C   UNL     1       1.988   1.992  18.370  0.00  0.00    +0.000 C 
ATOM     19  C   UNL     1       3.364   2.464  17.936  0.00  0.00    +0.000 C 
ENDBRANCH  13  15
ENDBRANCH   6  13
TORSDOF 4
ENDMDL
