MODEL 1
REMARK VINA RESULT:      -8.4      0.000      0.000
REMARK  Name = 
REMARK  2 active torsions:
REMARK  status: ('A' for Active; 'I' for Inactive)
REMARK    1  A    between atoms: C_4  and  C_5
REMARK    2  A    between atoms: C_7  and  N_8
REMARK                            x       y       z     vdW  Elec       q    Type
REMARK                         _______ _______ _______ _____ _____    ______ ____
ROOT
ATOM      1  C   UNL     1       4.088   6.295  17.955  0.00  0.00    +0.000 A 
ATOM      2  C   UNL     1       3.739   5.611  19.111  0.00  0.00    +0.000 A 
ATOM      3  C   UNL     1       2.617   5.991  19.818  0.00  0.00    +0.000 A 
ATOM      4  C   UNL     1       2.143   7.294  19.609  0.00  0.00    +0.000 A 
ATOM      5  C   UNL     1       1.318   7.930  20.559  0.00  0.00    +0.000 A 
ATOM      6  C   UNL     1       0.827   9.207  20.333  0.00  0.00    +0.000 A 
ATOM      7  C   UNL     1       1.098   9.824  19.120  0.00  0.00    +0.000 A 
ATOM      8  C   UNL     1       1.931   9.194  18.180  0.00  0.00    +0.000 A 
ATOM      9  C   UNL     1       2.530   7.960  18.432  0.00  0.00    +0.000 A 
ATOM     10  N   UNL     1       3.440   7.431  17.581  0.00  0.00    +0.000 NA
ENDROOT
BRANCH   1  14
ATOM     11  C   UNL     1       7.108   4.518  15.461  0.00  0.00    +0.000 A 
ATOM     12  C   UNL     1       6.048   5.196  14.881  0.00  0.00    +0.000 A 
ATOM     13  C   UNL     1       5.115   5.840  15.699  0.00  0.00    +0.000 A 
ATOM     14  C   UNL     1       5.188   5.781  17.107  0.00  0.00    +0.000 A 
ATOM     15  C   UNL     1       6.314   5.158  17.660  0.00  0.00    +0.000 A 
ATOM     16  C   UNL     1       7.262   4.520  16.851  0.00  0.00    +0.000 A 
ENDBRANCH   1  14
BRANCH   3  17
ATOM     17  N   UNL     1       1.839   5.055  20.540  0.00  0.00    +0.000 N 
ATOM     18  C   UNL     1       2.427   4.226  21.609  0.00  0.00    +0.000 C 
ATOM     19  C   UNL     1       2.333   2.783  21.114  0.00  0.00    +0.000 C 
ATOM     20  C   UNL     1       1.095   2.801  20.241  0.00  0.00    +0.000 C 
ATOM     21  C   UNL     1       1.220   4.138  19.533  0.00  0.00    +0.000 C 
ENDBRANCH   3  17
TORSDOF 2
ENDMDL
MODEL 2
REMARK VINA RESULT:      -8.4      1.242      5.405
REMARK  Name = 
REMARK  2 active torsions:
REMARK  status: ('A' for Active; 'I' for Inactive)
REMARK    1  A    between atoms: C_4  and  C_5
REMARK    2  A    between atoms: C_7  and  N_8
REMARK                            x       y       z     vdW  Elec       q    Type
REMARK                         _______ _______ _______ _____ _____    ______ ____
ROOT
ATOM      1  C   UNL     1       2.800   7.042  18.207  0.00  0.00    +0.000 A 
ATOM      2  C   UNL     1       2.249   5.777  18.348  0.00  0.00    +0.000 A 
ATOM      3  C   UNL     1       2.997   4.665  18.020  0.00  0.00    +0.000 A 
ATOM      4  C   UNL     1       4.083   4.860  17.155  0.00  0.00    +0.000 A 
ATOM      5  C   UNL     1       4.627   3.789  16.416  0.00  0.00    +0.000 A 
ATOM      6  C   UNL     1       5.721   3.981  15.586  0.00  0.00    +0.000 A 
ATOM      7  C   UNL     1       6.322   5.231  15.549  0.00  0.00    +0.000 A 
ATOM      8  C   UNL     1       5.771   6.300  16.276  0.00  0.00    +0.000 A 
ATOM      9  C   UNL     1       4.605   6.159  17.028  0.00  0.00    +0.000 A 
ATOM     10  N   UNL     1       4.007   7.227  17.607  0.00  0.00    +0.000 NA
ENDROOT
BRANCH   1  14
ATOM     11  C   UNL     1       0.374  10.292  19.640  0.00  0.00    +0.000 A 
ATOM     12  C   UNL     1       0.784   9.301  20.516  0.00  0.00    +0.000 A 
ATOM     13  C   UNL     1       1.638   8.293  20.062  0.00  0.00    +0.000 A 
ATOM     14  C   UNL     1       2.062   8.221  18.718  0.00  0.00    +0.000 A 
ATOM     15  C   UNL     1       1.697   9.281  17.878  0.00  0.00    +0.000 A 
ATOM     16  C   UNL     1       0.852  10.303  18.325  0.00  0.00    +0.000 A 
ENDBRANCH   1  14
BRANCH   3  17
ATOM     17  N   UNL     1       2.832   3.432  18.695  0.00  0.00    +0.000 N 
ATOM     18  C   UNL     1       1.531   2.738  18.728  0.00  0.00    +0.000 C 
ATOM     19  C   UNL     1       1.101   2.733  20.194  0.00  0.00    +0.000 C 
ATOM     20  C   UNL     1       2.420   2.708  20.938  0.00  0.00    +0.000 C 
ATOM     21  C   UNL     1       3.275   3.649  20.108  0.00  0.00    +0.000 C 
ENDBRANCH   3  17
TORSDOF 2
ENDMDL
MODEL 3
REMARK VINA RESULT:      -8.3      1.249      5.295
REMARK  Name = 
REMARK  2 active torsions:
REMARK  status: ('A' for Active; 'I' for Inactive)
REMARK    1  A    between atoms: C_4  and  C_5
REMARK    2  A    between atoms: C_7  and  N_8
REMARK                            x       y       z     vdW  Elec       q    Type
REMARK                         _______ _______ _______ _____ _____    ______ ____
ROOT
ATOM      1  C   UNL     1       2.765   7.063  18.168  0.00  0.00    +0.000 A 
ATOM      2  C   UNL     1       2.214   5.798  18.314  0.00  0.00    +0.000 A 
ATOM      3  C   UNL     1       2.968   4.685  18.008  0.00  0.00    +0.000 A 
ATOM      4  C   UNL     1       4.066   4.873  17.156  0.00  0.00    +0.000 A 
ATOM      5  C   UNL     1       4.622   3.796  16.436  0.00  0.00    +0.000 A 
ATOM      6  C   UNL     1       5.727   3.981  15.619  0.00  0.00    +0.000 A 
ATOM      7  C   UNL     1       6.327   5.232  15.579  0.00  0.00    +0.000 A 
ATOM      8  C   UNL     1       5.764   6.307  16.287  0.00  0.00    +0.000 A 
ATOM      9  C   UNL     1       4.588   6.172  17.024  0.00  0.00    +0.000 A 
ATOM     10  N   UNL     1       3.980   7.245  17.584  0.00  0.00    +0.000 NA
ENDROOT
BRANCH   1  14
ATOM     11  C   UNL     1       0.893  10.632  19.672  0.00  0.00    +0.000 A 
ATOM     12  C   UNL     1       1.326  10.584  18.357  0.00  0.00    +0.000 A 
ATOM     13  C   UNL     1       1.859   9.395  17.853  0.00  0.00    +0.000 A 
ATOM     14  C   UNL     1       2.018   8.246  18.657  0.00  0.00    +0.000 A 
ATOM     15  C   UNL     1       1.497   8.302  19.956  0.00  0.00    +0.000 A 
ATOM     16  C   UNL     1       0.950   9.484  20.469  0.00  0.00    +0.000 A 
ENDBRANCH   1  14
BRANCH   3  17
ATOM     17  N   UNL     1       2.796   3.458  18.693  0.00  0.00    +0.000 N 
ATOM     18  C   UNL     1       1.487   2.780  18.745  0.00  0.00    +0.000 C 
ATOM     19  C   UNL     1       1.073   2.790  20.215  0.00  0.00    +0.000 C 
ATOM     20  C   UNL     1       2.400   2.754  20.945  0.00  0.00    +0.000 C 
ATOM     21  C   UNL     1       3.257   3.679  20.100  0.00  0.00    +0.000 C 
ENDBRANCH   3  17
TORSDOF 2
ENDMDL
MODEL 4
REMARK VINA RESULT:      -8.3      0.177      1.064
REMARK  Name = 
REMARK  2 active torsions:
REMARK  status: ('A' for Active; 'I' for Inactive)
REMARK    1  A    between atoms: C_4  and  C_5
REMARK    2  A    between atoms: C_7  and  N_8
REMARK                            x       y       z     vdW  Elec       q    Type
REMARK                         _______ _______ _______ _____ _____    ______ ____
ROOT
ATOM      1  C   UNL     1       4.039   6.080  17.912  0.00  0.00    +0.000 A 
ATOM      2  C   UNL     1       3.699   5.445  19.098  0.00  0.00    +0.000 A 
ATOM      3  C   UNL     1       2.614   5.888  19.824  0.00  0.00    +0.000 A 
ATOM      4  C   UNL     1       2.182   7.201  19.588  0.00  0.00    +0.000 A 
ATOM      5  C   UNL     1       1.408   7.896  20.540  0.00  0.00    +0.000 A 
ATOM      6  C   UNL     1       0.958   9.184  20.288  0.00  0.00    +0.000 A 
ATOM      7  C   UNL     1       1.216   9.752  19.050  0.00  0.00    +0.000 A 
ATOM      8  C   UNL     1       1.998   9.064  18.106  0.00  0.00    +0.000 A 
ATOM      9  C   UNL     1       2.558   7.817  18.380  0.00  0.00    +0.000 A 
ATOM     10  N   UNL     1       3.423   7.228  17.520  0.00  0.00    +0.000 NA
ENDROOT
BRANCH   1  14
ATOM     11  C   UNL     1       7.271   4.686  15.439  0.00  0.00    +0.000 A 
ATOM     12  C   UNL     1       7.340   4.531  16.814  0.00  0.00    +0.000 A 
ATOM     13  C   UNL     1       6.252   4.912  17.604  0.00  0.00    +0.000 A 
ATOM     14  C   UNL     1       5.095   5.500  17.049  0.00  0.00    +0.000 A 
ATOM     15  C   UNL     1       5.023   5.568  15.652  0.00  0.00    +0.000 A 
ATOM     16  C   UNL     1       6.102   5.178  14.850  0.00  0.00    +0.000 A 
ENDBRANCH   1  14
BRANCH   3  17
ATOM     17  N   UNL     1       1.824   5.004  20.597  0.00  0.00    +0.000 N 
ATOM     18  C   UNL     1       2.406   4.211  21.696  0.00  0.00    +0.000 C 
ATOM     19  C   UNL     1       2.273   2.750  21.268  0.00  0.00    +0.000 C 
ATOM     20  C   UNL     1       1.024   2.757  20.410  0.00  0.00    +0.000 C 
ATOM     21  C   UNL     1       1.171   4.057  19.640  0.00  0.00    +0.000 C 
ENDBRANCH   3  17
TORSDOF 2
ENDMDL
MODEL 5
REMARK VINA RESULT:      -7.7      1.755      6.078
REMARK  Name = 
REMARK  2 active torsions:
REMARK  status: ('A' for Active; 'I' for Inactive)
REMARK    1  A    between atoms: C_4  and  C_5
REMARK    2  A    between atoms: C_7  and  N_8
REMARK                            x       y       z     vdW  Elec       q    Type
REMARK                         _______ _______ _______ _____ _____    ______ ____
ROOT
ATOM      1  C   UNL     1       2.670   6.480  18.932  0.00  0.00    +0.000 A 
ATOM      2  C   UNL     1       4.025   6.280  19.149  0.00  0.00    +0.000 A 
ATOM      3  C   UNL     1       4.601   5.073  18.810  0.00  0.00    +0.000 A 
ATOM      4  C   UNL     1       3.744   3.970  18.687  0.00  0.00    +0.000 A 
ATOM      5  C   UNL     1       4.235   2.652  18.785  0.00  0.00    +0.000 A 
ATOM      6  C   UNL     1       3.388   1.564  18.632  0.00  0.00    +0.000 A 
ATOM      7  C   UNL     1       2.059   1.792  18.304  0.00  0.00    +0.000 A 
ATOM      8  C   UNL     1       1.569   3.106  18.219  0.00  0.00    +0.000 A 
ATOM      9  C   UNL     1       2.374   4.213  18.481  0.00  0.00    +0.000 A 
ATOM     10  N   UNL     1       1.857   5.464  18.534  0.00  0.00    +0.000 NA
ENDROOT
BRANCH   1  14
ATOM     11  C   UNL     1       0.681  10.256  19.472  0.00  0.00    +0.000 A 
ATOM     12  C   UNL     1       0.837   9.400  20.550  0.00  0.00    +0.000 A 
ATOM     13  C   UNL     1       1.554   8.212  20.386  0.00  0.00    +0.000 A 
ATOM     14  C   UNL     1       2.089   7.828  19.137  0.00  0.00    +0.000 A 
ATOM     15  C   UNL     1       1.985   8.751  18.090  0.00  0.00    +0.000 A 
ATOM     16  C   UNL     1       1.278   9.950  18.245  0.00  0.00    +0.000 A 
ENDBRANCH   1  14
BRANCH   3  17
ATOM     17  N   UNL     1       5.945   4.986  18.376  0.00  0.00    +0.000 N 
ATOM     18  C   UNL     1       7.049   5.566  19.164  0.00  0.00    +0.000 C 
ATOM     19  C   UNL     1       7.635   6.680  18.299  0.00  0.00    +0.000 C 
ATOM     20  C   UNL     1       7.384   6.186  16.889  0.00  0.00    +0.000 C 
ATOM     21  C   UNL     1       5.998   5.579  17.003  0.00  0.00    +0.000 C 
ENDBRANCH   3  17
TORSDOF 2
ENDMDL
MODEL 6
REMARK VINA RESULT:      -7.5      1.892      6.045
REMARK  Name = 
REMARK  2 active torsions:
REMARK  status: ('A' for Active; 'I' for Inactive)
REMARK    1  A    between atoms: C_4  and  C_5
REMARK    2  A    between atoms: C_7  and  N_8
REMARK                            x       y       z     vdW  Elec       q    Type
REMARK                         _______ _______ _______ _____ _____    ______ ____
ROOT
ATOM      1  C   UNL     1       2.590   6.709  18.694  0.00  0.00    +0.000 A 
ATOM      2  C   UNL     1       3.965   6.585  18.833  0.00  0.00    +0.000 A 
ATOM      3  C   UNL     1       4.588   5.417  18.448  0.00  0.00    +0.000 A 
ATOM      4  C   UNL     1       3.790   4.267  18.361  0.00  0.00    +0.000 A 
ATOM      5  C   UNL     1       4.359   2.978  18.417  0.00  0.00    +0.000 A 
ATOM      6  C   UNL     1       3.569   1.845  18.300  0.00  0.00    +0.000 A 
ATOM      7  C   UNL     1       2.213   1.998  18.049  0.00  0.00    +0.000 A 
ATOM      8  C   UNL     1       1.644   3.283  18.005  0.00  0.00    +0.000 A 
ATOM      9  C   UNL     1       2.399   4.433  18.235  0.00  0.00    +0.000 A 
ATOM     10  N   UNL     1       1.816   5.652  18.330  0.00  0.00    +0.000 NA
ENDROOT
BRANCH   1  14
ATOM     11  C   UNL     1       1.026  10.638  19.485  0.00  0.00    +0.000 A 
ATOM     12  C   UNL     1       1.446  10.308  18.207  0.00  0.00    +0.000 A 
ATOM     13  C   UNL     1       1.877   9.006  17.939  0.00  0.00    +0.000 A 
ATOM     14  C   UNL     1       1.946   8.019  18.945  0.00  0.00    +0.000 A 
ATOM     15  C   UNL     1       1.439   8.360  20.206  0.00  0.00    +0.000 A 
ATOM     16  C   UNL     1       0.994   9.658  20.483  0.00  0.00    +0.000 A 
ENDBRANCH   1  14
BRANCH   3  17
ATOM     17  N   UNL     1       5.909   5.410  17.939  0.00  0.00    +0.000 N 
ATOM     18  C   UNL     1       7.080   5.346  18.834  0.00  0.00    +0.000 C 
ATOM     19  C   UNL     1       7.820   6.669  18.643  0.00  0.00    +0.000 C 
ATOM     20  C   UNL     1       7.508   7.031  17.206  0.00  0.00    +0.000 C 
ATOM     21  C   UNL     1       6.050   6.628  17.082  0.00  0.00    +0.000 C 
ENDBRANCH   3  17
TORSDOF 2
ENDMDL
MODEL 7
REMARK VINA RESULT:      -7.5      3.230      4.762
REMARK  Name = 
REMARK  2 active torsions:
REMARK  status: ('A' for Active; 'I' for Inactive)
REMARK    1  A    between atoms: C_4  and  C_5
REMARK    2  A    between atoms: C_7  and  N_8
REMARK                            x       y       z     vdW  Elec       q    Type
REMARK                         _______ _______ _______ _____ _____    ______ ____
ROOT
ATOM      1  C   UNL     1       5.950   4.393  15.121  0.00  0.00    +0.000 A 
ATOM      2  C   UNL     1       5.292   3.628  16.074  0.00  0.00    +0.000 A 
ATOM      3  C   UNL     1       5.238   4.063  17.381  0.00  0.00    +0.000 A 
ATOM      4  C   UNL     1       6.204   4.997  17.783  0.00  0.00    +0.000 A 
ATOM      5  C   UNL     1       6.526   5.172  19.145  0.00  0.00    +0.000 A 
ATOM      6  C   UNL     1       7.460   6.119  19.538  0.00  0.00    +0.000 A 
ATOM      7  C   UNL     1       8.020   6.947  18.577  0.00  0.00    +0.000 A 
ATOM      8  C   UNL     1       7.707   6.763  17.219  0.00  0.00    +0.000 A 
ATOM      9  C   UNL     1       6.859   5.744  16.787  0.00  0.00    +0.000 A 
ATOM     10  N   UNL     1       6.678   5.488  15.470  0.00  0.00    +0.000 NA
ENDROOT
BRANCH   1  14
ATOM     11  C   UNL     1       5.689   2.970  11.070  0.00  0.00    +0.000 A 
ATOM     12  C   UNL     1       4.532   3.176  11.803  0.00  0.00    +0.000 A 
ATOM     13  C   UNL     1       4.620   3.715  13.090  0.00  0.00    +0.000 A 
ATOM     14  C   UNL     1       5.861   4.013  13.692  0.00  0.00    +0.000 A 
ATOM     15  C   UNL     1       7.005   3.870  12.896  0.00  0.00    +0.000 A 
ATOM     16  C   UNL     1       6.928   3.343  11.602  0.00  0.00    +0.000 A 
ENDBRANCH   1  14
BRANCH   3  17
ATOM     17  N   UNL     1       4.135   3.771  18.218  0.00  0.00    +0.000 N 
ATOM     18  C   UNL     1       3.691   2.384  18.455  0.00  0.00    +0.000 C 
ATOM     19  C   UNL     1       2.292   2.288  17.849  0.00  0.00    +0.000 C 
ATOM     20  C   UNL     1       1.753   3.695  18.007  0.00  0.00    +0.000 C 
ATOM     21  C   UNL     1       2.969   4.543  17.684  0.00  0.00    +0.000 C 
ENDBRANCH   3  17
TORSDOF 2
ENDMDL
MODEL 8
REMARK VINA RESULT:      -7.5      1.355      5.782
REMARK  Name = 
REMARK  2 active torsions:
REMARK  status: ('A' for Active; 'I' for Inactive)
REMARK    1  A    between atoms: C_4  and  C_5
REMARK    2  A    between atoms: C_7  and  N_8
REMARK                            x       y       z     vdW  Elec       q    Type
REMARK                         _______ _______ _______ _____ _____    ______ ____
ROOT
ATOM      1  C   UNL     1       2.544   6.512  19.432  0.00  0.00    +0.000 A 
ATOM      2  C   UNL     1       3.782   6.098  18.962  0.00  0.00    +0.000 A 
ATOM      3  C   UNL     1       4.124   4.764  19.018  0.00  0.00    +0.000 A 
ATOM      4  C   UNL     1       3.423   3.964  19.933  0.00  0.00    +0.000 A 
ATOM      5  C   UNL     1       3.958   2.742  20.391  0.00  0.00    +0.000 A 
ATOM      6  C   UNL     1       3.247   1.941  21.272  0.00  0.00    +0.000 A 
ATOM      7  C   UNL     1       1.965   2.322  21.638  0.00  0.00    +0.000 A 
ATOM      8  C   UNL     1       1.438   3.546  21.190  0.00  0.00    +0.000 A 
ATOM      9  C   UNL     1       2.178   4.423  20.397  0.00  0.00    +0.000 A 
ATOM     10  N   UNL     1       1.714   5.658  20.090  0.00  0.00    +0.000 NA
ENDROOT
BRANCH   1  14
ATOM     11  C   UNL     1       0.988  10.456  18.709  0.00  0.00    +0.000 A 
ATOM     12  C   UNL     1       0.799   9.857  19.944  0.00  0.00    +0.000 A 
ATOM     13  C   UNL     1       1.376   8.611  20.198  0.00  0.00    +0.000 A 
ATOM     14  C   UNL     1       2.111   7.912  19.216  0.00  0.00    +0.000 A 
ATOM     15  C   UNL     1       2.352   8.578  18.008  0.00  0.00    +0.000 A 
ATOM     16  C   UNL     1       1.788   9.833  17.746  0.00  0.00    +0.000 A 
ENDBRANCH   1  14
BRANCH   3  17
ATOM     17  N   UNL     1       4.968   4.170  18.050  0.00  0.00    +0.000 N 
ATOM     18  C   UNL     1       6.309   4.712  17.759  0.00  0.00    +0.000 C 
ATOM     19  C   UNL     1       6.254   5.199  16.312  0.00  0.00    +0.000 C 
ATOM     20  C   UNL     1       5.244   4.267  15.675  0.00  0.00    +0.000 C 
ATOM     21  C   UNL     1       4.198   4.133  16.767  0.00  0.00    +0.000 C 
ENDBRANCH   3  17
TORSDOF 2
ENDMDL
MODEL 9
REMARK VINA RESULT:      -7.3      1.326      5.732
REMARK  Name = 
REMARK  2 active torsions:
REMARK  status: ('A' for Active; 'I' for Inactive)
REMARK    1  A    between atoms: C_4  and  C_5
REMARK    2  A    between atoms: C_7  and  N_8
REMARK                            x       y       z     vdW  Elec       q    Type
REMARK                         _______ _______ _______ _____ _____    ______ ____
ROOT
ATOM      1  C   UNL     1       2.444   6.625  19.376  0.00  0.00    +0.000 A 
ATOM      2  C   UNL     1       3.709   6.271  18.930  0.00  0.00    +0.000 A 
ATOM      3  C   UNL     1       4.109   4.952  18.985  0.00  0.00    +0.000 A 
ATOM      4  C   UNL     1       3.426   4.115  19.879  0.00  0.00    +0.000 A 
ATOM      5  C   UNL     1       4.005   2.915  20.341  0.00  0.00    +0.000 A 
ATOM      6  C   UNL     1       3.312   2.077  21.201  0.00  0.00    +0.000 A 
ATOM      7  C   UNL     1       2.007   2.398  21.543  0.00  0.00    +0.000 A 
ATOM      8  C   UNL     1       1.436   3.601  21.091  0.00  0.00    +0.000 A 
ATOM      9  C   UNL     1       2.152   4.515  20.320  0.00  0.00    +0.000 A 
ATOM     10  N   UNL     1       1.640   5.731  20.011  0.00  0.00    +0.000 NA
ENDROOT
BRANCH   1  14
ATOM     11  C   UNL     1       1.321  10.744  18.853  0.00  0.00    +0.000 A 
ATOM     12  C   UNL     1       1.961  10.070  17.827  0.00  0.00    +0.000 A 
ATOM     13  C   UNL     1       2.251   8.711  17.973  0.00  0.00    +0.000 A 
ATOM     14  C   UNL     1       1.954   8.006  19.160  0.00  0.00    +0.000 A 
ATOM     15  C   UNL     1       1.235   8.694  20.145  0.00  0.00    +0.000 A 
ATOM     16  C   UNL     1       0.929  10.053  20.005  0.00  0.00    +0.000 A 
ENDBRANCH   1  14
BRANCH   3  17
ATOM     17  N   UNL     1       4.999   4.404  18.031  0.00  0.00    +0.000 N 
ATOM     18  C   UNL     1       6.240   5.101  17.643  0.00  0.00    +0.000 C 
ATOM     19  C   UNL     1       6.072   5.454  16.166  0.00  0.00    +0.000 C 
ATOM     20  C   UNL     1       5.185   4.342  15.646  0.00  0.00    +0.000 C 
ATOM     21  C   UNL     1       4.203   4.154  16.788  0.00  0.00    +0.000 C 
ENDBRANCH   3  17
TORSDOF 2
ENDMDL
