MODEL 1
REMARK VINA RESULT:      -8.1      0.000      0.000
REMARK  Name = 
REMARK  12 active torsions:
REMARK  status: ('A' for Active; 'I' for Inactive)
REMARK    1  A    between atoms: P_2  and  O_3
REMARK    2  A    between atoms: P_2  and  O_4
REMARK    3  A    between atoms: P_2  and  C_5
REMARK    4  A    between atoms: C_5  and  C_6
REMARK    5  A    between atoms: C_5  and  S_26
REMARK    6  A    between atoms: C_6  and  C_7
REMARK    7  A    between atoms: C_7  and  C_8
REMARK    8  A    between atoms: C_8  and  C_9
REMARK    9  A    between atoms: C_13  and  O_14
REMARK   10  A    between atoms: O_14  and  C_15
REMARK   11  A    between atoms: C_19  and  C_20
REMARK   12  A    between atoms: S_26  and  O_29
REMARK                            x       y       z     vdW  Elec       q    Type
REMARK                         _______ _______ _______ _____ _____    ______ ____
ROOT
ATOM      1  C   UNL     1       7.401   7.395  17.835  0.00  0.00    +0.000 A 
ATOM      2  C   UNL     1       8.055   6.507  18.704  0.00  0.00    +0.000 A 
ATOM      3  C   UNL     1       7.507   5.256  18.995  0.00  0.00    +0.000 A 
ATOM      4  C   UNL     1       6.315   4.868  18.392  0.00  0.00    +0.000 A 
ATOM      5  C   UNL     1       5.636   5.757  17.561  0.00  0.00    +0.000 A 
ATOM      6  C   UNL     1       6.140   7.044  17.359  0.00  0.00    +0.000 A 
ENDROOT
BRANCH   1   7
ATOM      7  C   UNL     1       7.992   8.686  17.306  0.00  0.00    +0.000 C 
BRANCH   7   8
ATOM      8  C   UNL     1       8.581   9.538  18.407  0.00  0.00    +0.000 C 
BRANCH   8   9
ATOM      9  C   UNL     1       8.970  10.962  18.018  0.00  0.00    +0.000 C 
BRANCH   9  10
ATOM     10  C   UNL     1      10.222  11.432  18.796  0.00  0.00    +0.000 C 
BRANCH  10  11
ATOM     11  S   UNL     1      10.911  12.900  18.160  0.00  0.00    +0.000 S 
ATOM     12  O   UNL     1       9.884  13.758  17.631  0.00  0.00    +0.000 OA
ATOM     13  O   UNL     1      11.938  13.361  19.073  0.00  0.00    +0.000 OA
BRANCH  11  14
ATOM     14  O   UNL     1      11.666  12.255  16.865  0.00  0.00    +0.000 OA
ATOM     15  H   UNL     1      11.667  12.904  16.119  0.00  0.00    +0.000 HD
ENDBRANCH  11  14
ENDBRANCH  10  11
BRANCH  10  17
ATOM     16  O   UNL     1       8.799  11.322  21.472  0.00  0.00    +0.000 OA
ATOM     17  P   UNL     1       9.809  11.777  20.474  0.00  0.00    +0.000 P 
BRANCH  17  18
ATOM     18  O   UNL     1       9.522  13.351  20.307  0.00  0.00    +0.000 OA
ATOM     19  H   UNL     1       9.006  13.677  21.058  0.00  0.00    +0.000 HD
ENDBRANCH  17  18
BRANCH  17  20
ATOM     20  O   UNL     1      11.234  11.835  21.194  0.00  0.00    +0.000 OA
ATOM     21  H   UNL     1      11.305  12.624  21.811  0.00  0.00    +0.000 HD
ENDBRANCH  17  20
ENDBRANCH  10  17
ENDBRANCH   9  10
ENDBRANCH   8   9
ENDBRANCH   7   8
ENDBRANCH   1   7
BRANCH   5  22
ATOM     22  O   UNL     1       4.478   5.294  16.975  0.00  0.00    +0.000 OA
BRANCH  22  23
ATOM     23  C   UNL     1       3.692   4.394  17.664  0.00  0.00    +0.000 A 
ATOM     24  C   UNL     1       3.672   3.092  17.167  0.00  0.00    +0.000 A 
ATOM     25  C   UNL     1       2.939   2.107  17.828  0.00  0.00    +0.000 A 
ATOM     26  C   UNL     1       2.239   2.420  18.994  0.00  0.00    +0.000 A 
ATOM     27  C   UNL     1       2.232   3.729  19.496  0.00  0.00    +0.000 A 
ATOM     28  C   UNL     1       2.925   4.721  18.791  0.00  0.00    +0.000 A 
BRANCH  27  29
ATOM     29  C   UNL     1       1.530   4.062  20.787  0.00  0.00    +0.000 C 
ATOM     30  F   UNL     1       0.763   5.185  20.709  0.00  0.00    +0.000 F 
ATOM     31  F   UNL     1       0.686   3.069  21.192  0.00  0.00    +0.000 F 
ATOM     32  F   UNL     1       2.390   4.266  21.821  0.00  0.00    +0.000 F 
ENDBRANCH  27  29
ENDBRANCH  22  23
ENDBRANCH   5  22
TORSDOF 12
ENDMDL
MODEL 2
REMARK VINA RESULT:      -8.0      5.496      8.075
REMARK  Name = 
REMARK  12 active torsions:
REMARK  status: ('A' for Active; 'I' for Inactive)
REMARK    1  A    between atoms: P_2  and  O_3
REMARK    2  A    between atoms: P_2  and  O_4
REMARK    3  A    between atoms: P_2  and  C_5
REMARK    4  A    between atoms: C_5  and  C_6
REMARK    5  A    between atoms: C_5  and  S_26
REMARK    6  A    between atoms: C_6  and  C_7
REMARK    7  A    between atoms: C_7  and  C_8
REMARK    8  A    between atoms: C_8  and  C_9
REMARK    9  A    between atoms: C_13  and  O_14
REMARK   10  A    between atoms: O_14  and  C_15
REMARK   11  A    between atoms: C_19  and  C_20
REMARK   12  A    between atoms: S_26  and  O_29
REMARK                            x       y       z     vdW  Elec       q    Type
REMARK                         _______ _______ _______ _____ _____    ______ ____
ROOT
ATOM      1  C   UNL     1       2.535   5.909  18.691  0.00  0.00    +0.000 A 
ATOM      2  C   UNL     1       2.113   5.772  20.024  0.00  0.00    +0.000 A 
ATOM      3  C   UNL     1       1.680   6.879  20.755  0.00  0.00    +0.000 A 
ATOM      4  C   UNL     1       1.633   8.131  20.149  0.00  0.00    +0.000 A 
ATOM      5  C   UNL     1       2.088   8.286  18.841  0.00  0.00    +0.000 A 
ATOM      6  C   UNL     1       2.616   7.191  18.154  0.00  0.00    +0.000 A 
ENDROOT
BRANCH   1   7
ATOM      7  C   UNL     1       2.841   4.758  17.755  0.00  0.00    +0.000 C 
BRANCH   7   8
ATOM      8  C   UNL     1       3.661   3.679  18.424  0.00  0.00    +0.000 C 
BRANCH   8   9
ATOM      9  C   UNL     1       5.101   3.534  17.940  0.00  0.00    +0.000 C 
BRANCH   9  10
ATOM     10  C   UNL     1       5.647   4.876  17.398  0.00  0.00    +0.000 C 
BRANCH  10  11
ATOM     11  S   UNL     1       7.153   5.350  18.135  0.00  0.00    +0.000 S 
ATOM     12  O   UNL     1       8.160   4.340  17.932  0.00  0.00    +0.000 OA
ATOM     13  O   UNL     1       7.374   6.756  17.868  0.00  0.00    +0.000 OA
BRANCH  11  14
ATOM     14  O   UNL     1       6.694   5.217  19.696  0.00  0.00    +0.000 OA
ATOM     15  H   UNL     1       6.354   6.087  20.021  0.00  0.00    +0.000 HD
ENDBRANCH  11  14
ENDBRANCH  10  11
BRANCH  10  17
ATOM     16  O   UNL     1       5.228   4.979  14.396  0.00  0.00    +0.000 OA
ATOM     17  P   UNL     1       5.970   4.755  15.670  0.00  0.00    +0.000 P 
BRANCH  17  18
ATOM     18  O   UNL     1       6.364   3.196  15.632  0.00  0.00    +0.000 OA
ATOM     19  H   UNL     1       6.894   2.968  16.408  0.00  0.00    +0.000 HD
ENDBRANCH  17  18
BRANCH  17  20
ATOM     20  O   UNL     1       7.421   5.406  15.525  0.00  0.00    +0.000 OA
ATOM     21  H   UNL     1       8.031   5.123  16.271  0.00  0.00    +0.000 HD
ENDBRANCH  17  20
ENDBRANCH  10  17
ENDBRANCH   9  10
ENDBRANCH   8   9
ENDBRANCH   7   8
ENDBRANCH   1   7
BRANCH   5  22
ATOM     22  O   UNL     1       1.983   9.547  18.295  0.00  0.00    +0.000 OA
BRANCH  22  23
ATOM     23  C   UNL     1       0.770  10.201  18.350  0.00  0.00    +0.000 A 
ATOM     24  C   UNL     1       0.765  11.428  19.012  0.00  0.00    +0.000 A 
ATOM     25  C   UNL     1      -0.408  12.179  19.076  0.00  0.00    +0.000 A 
ATOM     26  C   UNL     1      -1.573  11.710  18.467  0.00  0.00    +0.000 A 
ATOM     27  C   UNL     1      -1.591  10.469  17.815  0.00  0.00    +0.000 A 
ATOM     28  C   UNL     1      -0.421   9.699  17.807  0.00  0.00    +0.000 A 
BRANCH  27  29
ATOM     29  C   UNL     1      -2.827   9.983  17.102  0.00  0.00    +0.000 C 
ATOM     30  F   UNL     1      -2.559   9.374  15.914  0.00  0.00    +0.000 F 
ATOM     31  F   UNL     1      -3.525   9.067  17.835  0.00  0.00    +0.000 F 
ATOM     32  F   UNL     1      -3.705  10.984  16.822  0.00  0.00    +0.000 F 
ENDBRANCH  27  29
ENDBRANCH  22  23
ENDBRANCH   5  22
TORSDOF 12
ENDMDL
MODEL 3
REMARK VINA RESULT:      -8.0      6.410      8.509
REMARK  Name = 
REMARK  12 active torsions:
REMARK  status: ('A' for Active; 'I' for Inactive)
REMARK    1  A    between atoms: P_2  and  O_3
REMARK    2  A    between atoms: P_2  and  O_4
REMARK    3  A    between atoms: P_2  and  C_5
REMARK    4  A    between atoms: C_5  and  C_6
REMARK    5  A    between atoms: C_5  and  S_26
REMARK    6  A    between atoms: C_6  and  C_7
REMARK    7  A    between atoms: C_7  and  C_8
REMARK    8  A    between atoms: C_8  and  C_9
REMARK    9  A    between atoms: C_13  and  O_14
REMARK   10  A    between atoms: O_14  and  C_15
REMARK   11  A    between atoms: C_19  and  C_20
REMARK   12  A    between atoms: S_26  and  O_29
REMARK                            x       y       z     vdW  Elec       q    Type
REMARK                         _______ _______ _______ _____ _____    ______ ____
ROOT
ATOM      1  C   UNL     1       2.031   8.343  18.924  0.00  0.00    +0.000 A 
ATOM      2  C   UNL     1       1.829   7.681  20.147  0.00  0.00    +0.000 A 
ATOM      3  C   UNL     1       1.097   8.280  21.173  0.00  0.00    +0.000 A 
ATOM      4  C   UNL     1       0.529   9.534  20.974  0.00  0.00    +0.000 A 
ATOM      5  C   UNL     1       0.757  10.218  19.781  0.00  0.00    +0.000 A 
ATOM      6  C   UNL     1       1.577   9.654  18.802  0.00  0.00    +0.000 A 
ENDROOT
BRANCH   1   7
ATOM      7  C   UNL     1       2.641   7.716  17.688  0.00  0.00    +0.000 C 
BRANCH   7   8
ATOM      8  C   UNL     1       3.643   6.636  18.030  0.00  0.00    +0.000 C 
BRANCH   8   9
ATOM      9  C   UNL     1       4.985   6.713  17.306  0.00  0.00    +0.000 C 
BRANCH   9  10
ATOM     10  C   UNL     1       5.690   5.337  17.288  0.00  0.00    +0.000 C 
BRANCH  10  11
ATOM     11  S   UNL     1       6.403   4.953  15.746  0.00  0.00    +0.000 S 
ATOM     12  O   UNL     1       7.609   5.714  15.538  0.00  0.00    +0.000 OA
ATOM     13  O   UNL     1       6.325   3.520  15.544  0.00  0.00    +0.000 OA
BRANCH  11  14
ATOM     14  O   UNL     1       5.271   5.641  14.793  0.00  0.00    +0.000 OA
ATOM     15  H   UNL     1       5.671   5.894  13.925  0.00  0.00    +0.000 HD
ENDBRANCH  11  14
ENDBRANCH  10  11
BRANCH  10  17
ATOM     16  O   UNL     1       7.166   5.243  19.935  0.00  0.00    +0.000 OA
ATOM     17  P   UNL     1       7.011   5.308  18.454  0.00  0.00    +0.000 P 
BRANCH  17  18
ATOM     18  O   UNL     1       7.694   6.704  18.042  0.00  0.00    +0.000 OA
ATOM     19  H   UNL     1       8.630   6.570  17.839  0.00  0.00    +0.000 HD
ENDBRANCH  17  18
BRANCH  17  20
ATOM     20  O   UNL     1       8.053   4.291  17.797  0.00  0.00    +0.000 OA
ATOM     21  H   UNL     1       8.925   4.282  18.294  0.00  0.00    +0.000 HD
ENDBRANCH  17  20
ENDBRANCH  10  17
ENDBRANCH   9  10
ENDBRANCH   8   9
ENDBRANCH   7   8
ENDBRANCH   1   7
BRANCH   5  22
ATOM     22  O   UNL     1       0.139  11.441  19.642  0.00  0.00    +0.000 OA
BRANCH  22  23
ATOM     23  C   UNL     1      -1.164  11.486  19.191  0.00  0.00    +0.000 A 
ATOM     24  C   UNL     1      -2.079  12.130  20.022  0.00  0.00    +0.000 A 
ATOM     25  C   UNL     1      -3.408  12.260  19.624  0.00  0.00    +0.000 A 
ATOM     26  C   UNL     1      -3.821  11.760  18.388  0.00  0.00    +0.000 A 
ATOM     27  C   UNL     1      -2.918  11.092  17.549  0.00  0.00    +0.000 A 
ATOM     28  C   UNL     1      -1.599  10.917  17.986  0.00  0.00    +0.000 A 
BRANCH  27  29
ATOM     29  C   UNL     1      -3.340  10.603  16.186  0.00  0.00    +0.000 C 
ATOM     30  F   UNL     1      -3.188   9.259  16.025  0.00  0.00    +0.000 F 
ATOM     31  F   UNL     1      -4.655  10.858  15.926  0.00  0.00    +0.000 F 
ATOM     32  F   UNL     1      -2.640  11.184  15.175  0.00  0.00    +0.000 F 
ENDBRANCH  27  29
ENDBRANCH  22  23
ENDBRANCH   5  22
TORSDOF 12
ENDMDL
MODEL 4
REMARK VINA RESULT:      -8.0      5.352      7.229
REMARK  Name = 
REMARK  12 active torsions:
REMARK  status: ('A' for Active; 'I' for Inactive)
REMARK    1  A    between atoms: P_2  and  O_3
REMARK    2  A    between atoms: P_2  and  O_4
REMARK    3  A    between atoms: P_2  and  C_5
REMARK    4  A    between atoms: C_5  and  C_6
REMARK    5  A    between atoms: C_5  and  S_26
REMARK    6  A    between atoms: C_6  and  C_7
REMARK    7  A    between atoms: C_7  and  C_8
REMARK    8  A    between atoms: C_8  and  C_9
REMARK    9  A    between atoms: C_13  and  O_14
REMARK   10  A    between atoms: O_14  and  C_15
REMARK   11  A    between atoms: C_19  and  C_20
REMARK   12  A    between atoms: S_26  and  O_29
REMARK                            x       y       z     vdW  Elec       q    Type
REMARK                         _______ _______ _______ _____ _____    ______ ____
ROOT
ATOM      1  C   UNL     1       2.454   3.481  18.301  0.00  0.00    +0.000 A 
ATOM      2  C   UNL     1       1.384   2.750  18.844  0.00  0.00    +0.000 A 
ATOM      3  C   UNL     1       0.679   3.228  19.950  0.00  0.00    +0.000 A 
ATOM      4  C   UNL     1       1.017   4.458  20.505  0.00  0.00    +0.000 A 
ATOM      5  C   UNL     1       2.102   5.173  20.000  0.00  0.00    +0.000 A 
ATOM      6  C   UNL     1       2.865   4.637  18.961  0.00  0.00    +0.000 A 
ENDROOT
BRANCH   1   7
ATOM      7  C   UNL     1       3.158   3.153  17.000  0.00  0.00    +0.000 C 
BRANCH   7   8
ATOM      8  C   UNL     1       4.301   4.099  16.714  0.00  0.00    +0.000 C 
BRANCH   8   9
ATOM      9  C   UNL     1       5.688   3.467  16.624  0.00  0.00    +0.000 C 
BRANCH   9  10
ATOM     10  C   UNL     1       6.758   4.519  16.245  0.00  0.00    +0.000 C 
BRANCH  10  11
ATOM     11  S   UNL     1       6.740   4.935  14.554  0.00  0.00    +0.000 S 
ATOM     12  O   UNL     1       7.982   5.553  14.168  0.00  0.00    +0.000 OA
ATOM     13  O   UNL     1       6.132   3.846  13.817  0.00  0.00    +0.000 OA
BRANCH  11  14
ATOM     14  O   UNL     1       5.644   6.143  14.629  0.00  0.00    +0.000 OA
ATOM     15  H   UNL     1       5.927   6.889  14.046  0.00  0.00    +0.000 HD
ENDBRANCH  11  14
ENDBRANCH  10  11
BRANCH  10  17
ATOM     16  O   UNL     1       5.416   7.068  17.193  0.00  0.00    +0.000 OA
ATOM     17  P   UNL     1       6.477   6.023  17.119  0.00  0.00    +0.000 P 
BRANCH  17  18
ATOM     18  O   UNL     1       7.782   6.815  16.610  0.00  0.00    +0.000 OA
ATOM     19  H   UNL     1       7.532   7.480  15.953  0.00  0.00    +0.000 HD
ENDBRANCH  17  18
BRANCH  17  20
ATOM     20  O   UNL     1       6.937   5.670  18.607  0.00  0.00    +0.000 OA
ATOM     21  H   UNL     1       6.303   5.028  19.049  0.00  0.00    +0.000 HD
ENDBRANCH  17  20
ENDBRANCH  10  17
ENDBRANCH   9  10
ENDBRANCH   8   9
ENDBRANCH   7   8
ENDBRANCH   1   7
BRANCH   5  22
ATOM     22  O   UNL     1       2.359   6.397  20.578  0.00  0.00    +0.000 OA
BRANCH  22  23
ATOM     23  C   UNL     1       1.954   7.543  19.926  0.00  0.00    +0.000 A 
ATOM     24  C   UNL     1       2.363   7.671  18.600  0.00  0.00    +0.000 A 
ATOM     25  C   UNL     1       1.962   8.777  17.852  0.00  0.00    +0.000 A 
ATOM     26  C   UNL     1       1.139   9.748  18.426  0.00  0.00    +0.000 A 
ATOM     27  C   UNL     1       0.736   9.645  19.765  0.00  0.00    +0.000 A 
ATOM     28  C   UNL     1       1.193   8.559  20.521  0.00  0.00    +0.000 A 
BRANCH  27  29
ATOM     29  C   UNL     1      -0.201  10.657  20.374  0.00  0.00    +0.000 C 
ATOM     30  F   UNL     1      -1.265  10.953  19.577  0.00  0.00    +0.000 F 
ATOM     31  F   UNL     1      -0.734  10.228  21.554  0.00  0.00    +0.000 F 
ATOM     32  F   UNL     1       0.405  11.844  20.648  0.00  0.00    +0.000 F 
ENDBRANCH  27  29
ENDBRANCH  22  23
ENDBRANCH   5  22
TORSDOF 12
ENDMDL
MODEL 5
REMARK VINA RESULT:      -7.9      5.531      7.486
REMARK  Name = 
REMARK  12 active torsions:
REMARK  status: ('A' for Active; 'I' for Inactive)
REMARK    1  A    between atoms: P_2  and  O_3
REMARK    2  A    between atoms: P_2  and  O_4
REMARK    3  A    between atoms: P_2  and  C_5
REMARK    4  A    between atoms: C_5  and  C_6
REMARK    5  A    between atoms: C_5  and  S_26
REMARK    6  A    between atoms: C_6  and  C_7
REMARK    7  A    between atoms: C_7  and  C_8
REMARK    8  A    between atoms: C_8  and  C_9
REMARK    9  A    between atoms: C_13  and  O_14
REMARK   10  A    between atoms: O_14  and  C_15
REMARK   11  A    between atoms: C_19  and  C_20
REMARK   12  A    between atoms: S_26  and  O_29
REMARK                            x       y       z     vdW  Elec       q    Type
REMARK                         _______ _______ _______ _____ _____    ______ ____
ROOT
ATOM      1  C   UNL     1       2.153   3.316  18.691  0.00  0.00    +0.000 A 
ATOM      2  C   UNL     1       1.115   2.964  19.569  0.00  0.00    +0.000 A 
ATOM      3  C   UNL     1       0.705   3.836  20.580  0.00  0.00    +0.000 A 
ATOM      4  C   UNL     1       1.309   5.084  20.701  0.00  0.00    +0.000 A 
ATOM      5  C   UNL     1       2.367   5.427  19.862  0.00  0.00    +0.000 A 
ATOM      6  C   UNL     1       2.838   4.507  18.923  0.00  0.00    +0.000 A 
ENDROOT
BRANCH   1   7
ATOM      7  C   UNL     1       2.546   2.535  17.454  0.00  0.00    +0.000 C 
BRANCH   7   8
ATOM      8  C   UNL     1       4.013   2.687  17.124  0.00  0.00    +0.000 C 
BRANCH   8   9
ATOM      9  C   UNL     1       4.464   4.083  16.704  0.00  0.00    +0.000 C 
BRANCH   9  10
ATOM     10  C   UNL     1       5.954   4.087  16.286  0.00  0.00    +0.000 C 
BRANCH  10  11
ATOM     11  S   UNL     1       6.230   4.851  14.745  0.00  0.00    +0.000 S 
ATOM     12  O   UNL     1       6.209   3.879  13.683  0.00  0.00    +0.000 OA
ATOM     13  O   UNL     1       5.478   6.089  14.702  0.00  0.00    +0.000 OA
BRANCH  11  14
ATOM     14  O   UNL     1       7.799   5.243  14.962  0.00  0.00    +0.000 OA
ATOM     15  H   UNL     1       8.254   4.532  15.478  0.00  0.00    +0.000 HD
ENDBRANCH  11  14
ENDBRANCH  10  11
BRANCH  10  17
ATOM     16  O   UNL     1       7.433   6.378  17.612  0.00  0.00    +0.000 OA
ATOM     17  P   UNL     1       6.918   4.988  17.453  0.00  0.00    +0.000 P 
BRANCH  17  18
ATOM     18  O   UNL     1       8.242   4.077  17.390  0.00  0.00    +0.000 OA
ATOM     19  H   UNL     1       8.894   4.392  18.032  0.00  0.00    +0.000 HD
ENDBRANCH  17  18
BRANCH  17  20
ATOM     20  O   UNL     1       6.326   4.510  18.858  0.00  0.00    +0.000 OA
ATOM     21  H   UNL     1       5.903   5.270  19.360  0.00  0.00    +0.000 HD
ENDBRANCH  17  20
ENDBRANCH  10  17
ENDBRANCH   9  10
ENDBRANCH   8   9
ENDBRANCH   7   8
ENDBRANCH   1   7
BRANCH   5  22
ATOM     22  O   UNL     1       2.896   6.690  20.019  0.00  0.00    +0.000 OA
BRANCH  22  23
ATOM     23  C   UNL     1       2.147   7.782  19.632  0.00  0.00    +0.000 A 
ATOM     24  C   UNL     1       2.150   8.076  18.270  0.00  0.00    +0.000 A 
ATOM     25  C   UNL     1       1.385   9.136  17.786  0.00  0.00    +0.000 A 
ATOM     26  C   UNL     1       0.606   9.894  18.661  0.00  0.00    +0.000 A 
ATOM     27  C   UNL     1       0.608   9.625  20.037  0.00  0.00    +0.000 A 
ATOM     28  C   UNL     1       1.425   8.594  20.518  0.00  0.00    +0.000 A 
BRANCH  27  29
ATOM     29  C   UNL     1      -0.277  10.398  20.981  0.00  0.00    +0.000 C 
ATOM     30  F   UNL     1      -0.839   9.622  21.949  0.00  0.00    +0.000 F 
ATOM     31  F   UNL     1       0.401  11.379  21.645  0.00  0.00    +0.000 F 
ATOM     32  F   UNL     1      -1.310  11.019  20.351  0.00  0.00    +0.000 F 
ENDBRANCH  27  29
ENDBRANCH  22  23
ENDBRANCH   5  22
TORSDOF 12
ENDMDL
MODEL 6
REMARK VINA RESULT:      -7.9      4.728      6.352
REMARK  Name = 
REMARK  12 active torsions:
REMARK  status: ('A' for Active; 'I' for Inactive)
REMARK    1  A    between atoms: P_2  and  O_3
REMARK    2  A    between atoms: P_2  and  O_4
REMARK    3  A    between atoms: P_2  and  C_5
REMARK    4  A    between atoms: C_5  and  C_6
REMARK    5  A    between atoms: C_5  and  S_26
REMARK    6  A    between atoms: C_6  and  C_7
REMARK    7  A    between atoms: C_7  and  C_8
REMARK    8  A    between atoms: C_8  and  C_9
REMARK    9  A    between atoms: C_13  and  O_14
REMARK   10  A    between atoms: O_14  and  C_15
REMARK   11  A    between atoms: C_19  and  C_20
REMARK   12  A    between atoms: S_26  and  O_29
REMARK                            x       y       z     vdW  Elec       q    Type
REMARK                         _______ _______ _______ _____ _____    ______ ____
ROOT
ATOM      1  C   UNL     1       2.138   8.241  18.750  0.00  0.00    +0.000 A 
ATOM      2  C   UNL     1       1.412   9.274  19.366  0.00  0.00    +0.000 A 
ATOM      3  C   UNL     1       0.818   9.086  20.615  0.00  0.00    +0.000 A 
ATOM      4  C   UNL     1       0.971   7.871  21.275  0.00  0.00    +0.000 A 
ATOM      5  C   UNL     1       1.653   6.825  20.656  0.00  0.00    +0.000 A 
ATOM      6  C   UNL     1       2.154   6.991  19.364  0.00  0.00    +0.000 A 
ENDROOT
BRANCH   1   7
ATOM      7  C   UNL     1       2.974   8.396  17.497  0.00  0.00    +0.000 C 
BRANCH   7   8
ATOM      8  C   UNL     1       3.666   7.109  17.109  0.00  0.00    +0.000 C 
BRANCH   8   9
ATOM      9  C   UNL     1       5.192   7.131  17.148  0.00  0.00    +0.000 C 
BRANCH   9  10
ATOM     10  C   UNL     1       5.769   5.700  17.265  0.00  0.00    +0.000 C 
BRANCH  10  11
ATOM     11  S   UNL     1       6.427   5.102  15.768  0.00  0.00    +0.000 S 
ATOM     12  O   UNL     1       7.727   5.670  15.519  0.00  0.00    +0.000 OA
ATOM     13  O   UNL     1       6.150   3.683  15.676  0.00  0.00    +0.000 OA
BRANCH  11  14
ATOM     14  O   UNL     1       5.404   5.864  14.749  0.00  0.00    +0.000 OA
ATOM     15  H   UNL     1       5.535   5.527  13.828  0.00  0.00    +0.000 HD
ENDBRANCH  11  14
ENDBRANCH  10  11
BRANCH  10  17
ATOM     16  O   UNL     1       8.257   6.524  18.791  0.00  0.00    +0.000 OA
ATOM     17  P   UNL     1       7.094   5.665  18.426  0.00  0.00    +0.000 P 
BRANCH  17  18
ATOM     18  O   UNL     1       7.758   4.277  17.955  0.00  0.00    +0.000 OA
ATOM     19  H   UNL     1       8.276   4.413  17.149  0.00  0.00    +0.000 HD
ENDBRANCH  17  18
BRANCH  17  20
ATOM     20  O   UNL     1       6.385   5.184  19.773  0.00  0.00    +0.000 OA
ATOM     21  H   UNL     1       6.220   4.193  19.772  0.00  0.00    +0.000 HD
ENDBRANCH  17  20
ENDBRANCH  10  17
ENDBRANCH   9  10
ENDBRANCH   8   9
ENDBRANCH   7   8
ENDBRANCH   1   7
BRANCH   5  22
ATOM     22  O   UNL     1       1.792   5.663  21.382  0.00  0.00    +0.000 OA
BRANCH  22  23
ATOM     23  C   UNL     1       1.822   4.456  20.714  0.00  0.00    +0.000 A 
ATOM     24  C   UNL     1       0.587   3.935  20.333  0.00  0.00    +0.000 A 
ATOM     25  C   UNL     1       0.527   2.742  19.615  0.00  0.00    +0.000 A 
ATOM     26  C   UNL     1       1.702   2.076  19.265  0.00  0.00    +0.000 A 
ATOM     27  C   UNL     1       2.952   2.575  19.658  0.00  0.00    +0.000 A 
ATOM     28  C   UNL     1       2.996   3.744  20.428  0.00  0.00    +0.000 A 
BRANCH  27  29
ATOM     29  C   UNL     1       4.229   1.896  19.231  0.00  0.00    +0.000 C 
ATOM     30  F   UNL     1       4.021   0.808  18.439  0.00  0.00    +0.000 F 
ATOM     31  F   UNL     1       5.043   2.723  18.514  0.00  0.00    +0.000 F 
ATOM     32  F   UNL     1       4.973   1.459  20.283  0.00  0.00    +0.000 F 
ENDBRANCH  27  29
ENDBRANCH  22  23
ENDBRANCH   5  22
TORSDOF 12
ENDMDL
MODEL 7
REMARK VINA RESULT:      -7.9      5.342      7.891
REMARK  Name = 
REMARK  12 active torsions:
REMARK  status: ('A' for Active; 'I' for Inactive)
REMARK    1  A    between atoms: P_2  and  O_3
REMARK    2  A    between atoms: P_2  and  O_4
REMARK    3  A    between atoms: P_2  and  C_5
REMARK    4  A    between atoms: C_5  and  C_6
REMARK    5  A    between atoms: C_5  and  S_26
REMARK    6  A    between atoms: C_6  and  C_7
REMARK    7  A    between atoms: C_7  and  C_8
REMARK    8  A    between atoms: C_8  and  C_9
REMARK    9  A    between atoms: C_13  and  O_14
REMARK   10  A    between atoms: O_14  and  C_15
REMARK   11  A    between atoms: C_19  and  C_20
REMARK   12  A    between atoms: S_26  and  O_29
REMARK                            x       y       z     vdW  Elec       q    Type
REMARK                         _______ _______ _______ _____ _____    ______ ____
ROOT
ATOM      1  C   UNL     1       2.185   5.764  18.862  0.00  0.00    +0.000 A 
ATOM      2  C   UNL     1       1.924   5.749  20.242  0.00  0.00    +0.000 A 
ATOM      3  C   UNL     1       1.708   6.937  20.943  0.00  0.00    +0.000 A 
ATOM      4  C   UNL     1       1.718   8.150  20.264  0.00  0.00    +0.000 A 
ATOM      5  C   UNL     1       2.016   8.182  18.902  0.00  0.00    +0.000 A 
ATOM      6  C   UNL     1       2.333   6.998  18.233  0.00  0.00    +0.000 A 
ENDROOT
BRANCH   1   7
ATOM      7  C   UNL     1       2.245   4.536  17.977  0.00  0.00    +0.000 C 
BRANCH   7   8
ATOM      8  C   UNL     1       3.598   4.368  17.325  0.00  0.00    +0.000 C 
BRANCH   8   9
ATOM      9  C   UNL     1       4.805   4.428  18.258  0.00  0.00    +0.000 C 
BRANCH   9  10
ATOM     10  C   UNL     1       5.833   5.479  17.777  0.00  0.00    +0.000 C 
BRANCH  10  11
ATOM     11  S   UNL     1       7.361   5.372  18.606  0.00  0.00    +0.000 S 
ATOM     12  O   UNL     1       7.166   5.344  20.033  0.00  0.00    +0.000 OA
ATOM     13  O   UNL     1       8.203   4.426  17.902  0.00  0.00    +0.000 OA
BRANCH  11  14
ATOM     14  O   UNL     1       7.914   6.867  18.259  0.00  0.00    +0.000 OA
ATOM     15  H   UNL     1       7.284   7.547  18.604  0.00  0.00    +0.000 HD
ENDBRANCH  11  14
ENDBRANCH  10  11
BRANCH  10  17
ATOM     16  O   UNL     1       5.465   5.353  14.769  0.00  0.00    +0.000 OA
ATOM     17  P   UNL     1       6.192   5.249  16.067  0.00  0.00    +0.000 P 
BRANCH  17  18
ATOM     18  O   UNL     1       6.645   3.707  16.146  0.00  0.00    +0.000 OA
ATOM     19  H   UNL     1       7.281   3.584  16.865  0.00  0.00    +0.000 HD
ENDBRANCH  17  18
BRANCH  17  20
ATOM     20  O   UNL     1       7.620   5.944  15.899  0.00  0.00    +0.000 OA
ATOM     21  H   UNL     1       7.705   6.760  16.478  0.00  0.00    +0.000 HD
ENDBRANCH  17  20
ENDBRANCH  10  17
ENDBRANCH   9  10
ENDBRANCH   8   9
ENDBRANCH   7   8
ENDBRANCH   1   7
BRANCH   5  22
ATOM     22  O   UNL     1       1.978   9.414  18.289  0.00  0.00    +0.000 OA
BRANCH  22  23
ATOM     23  C   UNL     1       0.800  10.132  18.302  0.00  0.00    +0.000 A 
ATOM     24  C   UNL     1       0.868  11.410  18.855  0.00  0.00    +0.000 A 
ATOM     25  C   UNL     1      -0.266  12.222  18.869  0.00  0.00    +0.000 A 
ATOM     26  C   UNL     1      -1.463  11.763  18.318  0.00  0.00    +0.000 A 
ATOM     27  C   UNL     1      -1.553  10.473  17.777  0.00  0.00    +0.000 A 
ATOM     28  C   UNL     1      -0.424   9.646  17.820  0.00  0.00    +0.000 A 
BRANCH  27  29
ATOM     29  C   UNL     1      -2.824   9.991  17.124  0.00  0.00    +0.000 C 
ATOM     30  F   UNL     1      -3.716  10.991  16.880  0.00  0.00    +0.000 F 
ATOM     31  F   UNL     1      -2.597   9.399  15.916  0.00  0.00    +0.000 F 
ATOM     32  F   UNL     1      -3.488   9.070  17.872  0.00  0.00    +0.000 F 
ENDBRANCH  27  29
ENDBRANCH  22  23
ENDBRANCH   5  22
TORSDOF 12
ENDMDL
MODEL 8
REMARK VINA RESULT:      -7.8      6.122      8.336
REMARK  Name = 
REMARK  12 active torsions:
REMARK  status: ('A' for Active; 'I' for Inactive)
REMARK    1  A    between atoms: P_2  and  O_3
REMARK    2  A    between atoms: P_2  and  O_4
REMARK    3  A    between atoms: P_2  and  C_5
REMARK    4  A    between atoms: C_5  and  C_6
REMARK    5  A    between atoms: C_5  and  S_26
REMARK    6  A    between atoms: C_6  and  C_7
REMARK    7  A    between atoms: C_7  and  C_8
REMARK    8  A    between atoms: C_8  and  C_9
REMARK    9  A    between atoms: C_13  and  O_14
REMARK   10  A    between atoms: O_14  and  C_15
REMARK   11  A    between atoms: C_19  and  C_20
REMARK   12  A    between atoms: S_26  and  O_29
REMARK                            x       y       z     vdW  Elec       q    Type
REMARK                         _______ _______ _______ _____ _____    ______ ____
ROOT
ATOM      1  C   UNL     1       2.341   7.176  19.089  0.00  0.00    +0.000 A 
ATOM      2  C   UNL     1       1.963   7.036  20.435  0.00  0.00    +0.000 A 
ATOM      3  C   UNL     1       1.235   8.037  21.081  0.00  0.00    +0.000 A 
ATOM      4  C   UNL     1       0.849   9.173  20.378  0.00  0.00    +0.000 A 
ATOM      5  C   UNL     1       1.253   9.341  19.054  0.00  0.00    +0.000 A 
ATOM      6  C   UNL     1       2.069   8.383  18.450  0.00  0.00    +0.000 A 
ENDROOT
BRANCH   1   7
ATOM      7  C   UNL     1       2.961   6.082  18.244  0.00  0.00    +0.000 C 
BRANCH   7   8
ATOM      8  C   UNL     1       3.742   5.091  19.075  0.00  0.00    +0.000 C 
BRANCH   8   9
ATOM      9  C   UNL     1       4.975   4.482  18.411  0.00  0.00    +0.000 C 
BRANCH   9  10
ATOM     10  C   UNL     1       5.884   5.579  17.809  0.00  0.00    +0.000 C 
BRANCH  10  11
ATOM     11  S   UNL     1       7.494   5.574  18.473  0.00  0.00    +0.000 S 
ATOM     12  O   UNL     1       8.215   4.399  18.055  0.00  0.00    +0.000 OA
ATOM     13  O   UNL     1       8.038   6.914  18.377  0.00  0.00    +0.000 OA
BRANCH  11  14
ATOM     14  O   UNL     1       7.096   5.322  20.036  0.00  0.00    +0.000 OA
ATOM     15  H   UNL     1       6.379   5.948  20.304  0.00  0.00    +0.000 HD
ENDBRANCH  11  14
ENDBRANCH  10  11
BRANCH  10  17
ATOM     16  O   UNL     1       5.273   5.568  14.838  0.00  0.00    +0.000 OA
ATOM     17  P   UNL     1       6.075   5.336  16.074  0.00  0.00    +0.000 P 
BRANCH  17  18
ATOM     18  O   UNL     1       6.310   3.745  16.103  0.00  0.00    +0.000 OA
ATOM     19  H   UNL     1       7.085   3.514  15.571  0.00  0.00    +0.000 HD
ENDBRANCH  17  18
BRANCH  17  20
ATOM     20  O   UNL     1       7.570   5.827  15.801  0.00  0.00    +0.000 OA
ATOM     21  H   UNL     1       8.187   5.573  16.552  0.00  0.00    +0.000 HD
ENDBRANCH  17  20
ENDBRANCH  10  17
ENDBRANCH   9  10
ENDBRANCH   8   9
ENDBRANCH   7   8
ENDBRANCH   1   7
BRANCH   5  22
ATOM     22  O   UNL     1       0.809  10.476  18.411  0.00  0.00    +0.000 OA
BRANCH  22  23
ATOM     23  C   UNL     1      -0.544  10.745  18.388  0.00  0.00    +0.000 A 
ATOM     24  C   UNL     1      -1.299  10.012  17.475  0.00  0.00    +0.000 A 
ATOM     25  C   UNL     1      -2.681  10.189  17.415  0.00  0.00    +0.000 A 
ATOM     26  C   UNL     1      -3.309  11.088  18.277  0.00  0.00    +0.000 A 
ATOM     27  C   UNL     1      -2.562  11.849  19.187  0.00  0.00    +0.000 A 
ATOM     28  C   UNL     1      -1.169  11.704  19.198  0.00  0.00    +0.000 A 
BRANCH  27  29
ATOM     29  C   UNL     1      -3.238  12.778  20.164  0.00  0.00    +0.000 C 
ATOM     30  F   UNL     1      -2.621  13.987  20.272  0.00  0.00    +0.000 F 
ATOM     31  F   UNL     1      -4.528  13.053  19.812  0.00  0.00    +0.000 F 
ATOM     32  F   UNL     1      -3.295  12.270  21.424  0.00  0.00    +0.000 F 
ENDBRANCH  27  29
ENDBRANCH  22  23
ENDBRANCH   5  22
TORSDOF 12
ENDMDL
MODEL 9
REMARK VINA RESULT:      -7.8      1.192      2.131
REMARK  Name = 
REMARK  12 active torsions:
REMARK  status: ('A' for Active; 'I' for Inactive)
REMARK    1  A    between atoms: P_2  and  O_3
REMARK    2  A    between atoms: P_2  and  O_4
REMARK    3  A    between atoms: P_2  and  C_5
REMARK    4  A    between atoms: C_5  and  C_6
REMARK    5  A    between atoms: C_5  and  S_26
REMARK    6  A    between atoms: C_6  and  C_7
REMARK    7  A    between atoms: C_7  and  C_8
REMARK    8  A    between atoms: C_8  and  C_9
REMARK    9  A    between atoms: C_13  and  O_14
REMARK   10  A    between atoms: O_14  and  C_15
REMARK   11  A    between atoms: C_19  and  C_20
REMARK   12  A    between atoms: S_26  and  O_29
REMARK                            x       y       z     vdW  Elec       q    Type
REMARK                         _______ _______ _______ _____ _____    ______ ____
ROOT
ATOM      1  C   UNL     1       7.556   7.763  17.924  0.00  0.00    +0.000 A 
ATOM      2  C   UNL     1       8.230   6.835  18.735  0.00  0.00    +0.000 A 
ATOM      3  C   UNL     1       7.743   5.536  18.894  0.00  0.00    +0.000 A 
ATOM      4  C   UNL     1       6.594   5.143  18.216  0.00  0.00    +0.000 A 
ATOM      5  C   UNL     1       5.894   6.066  17.441  0.00  0.00    +0.000 A 
ATOM      6  C   UNL     1       6.332   7.391  17.373  0.00  0.00    +0.000 A 
ENDROOT
BRANCH   1   7
ATOM      7  C   UNL     1       8.091   9.126  17.535  0.00  0.00    +0.000 C 
BRANCH   7   8
ATOM      8  C   UNL     1       8.886   9.768  18.649  0.00  0.00    +0.000 C 
BRANCH   8   9
ATOM      9  C   UNL     1       9.679  11.017  18.274  0.00  0.00    +0.000 C 
BRANCH   9  10
ATOM     10  C   UNL     1       9.316  12.207  19.193  0.00  0.00    +0.000 C 
BRANCH  10  11
ATOM     11  S   UNL     1      10.564  12.584  20.349  0.00  0.00    +0.000 S 
ATOM     12  O   UNL     1      11.483  11.483  20.484  0.00  0.00    +0.000 OA
ATOM     13  O   UNL     1      10.991  13.952  20.137  0.00  0.00    +0.000 OA
BRANCH  11  14
ATOM     14  O   UNL     1       9.642  12.565  21.695  0.00  0.00    +0.000 OA
ATOM     15  H   UNL     1       9.486  13.490  22.008  0.00  0.00    +0.000 HD
ENDBRANCH  11  14
ENDBRANCH  10  11
BRANCH  10  17
ATOM     16  O   UNL     1       9.930  14.664  17.525  0.00  0.00    +0.000 OA
ATOM     17  P   UNL     1       9.080  13.670  18.241  0.00  0.00    +0.000 P 
BRANCH  17  18
ATOM     18  O   UNL     1       8.312  14.535  19.359  0.00  0.00    +0.000 OA
ATOM     19  H   UNL     1       7.899  15.311  18.954  0.00  0.00    +0.000 HD
ENDBRANCH  17  18
BRANCH  17  20
ATOM     20  O   UNL     1       7.848  13.293  17.296  0.00  0.00    +0.000 OA
ATOM     21  H   UNL     1       7.635  14.033  16.652  0.00  0.00    +0.000 HD
ENDBRANCH  17  20
ENDBRANCH  10  17
ENDBRANCH   9  10
ENDBRANCH   8   9
ENDBRANCH   7   8
ENDBRANCH   1   7
BRANCH   5  22
ATOM     22  O   UNL     1       4.783   5.599  16.774  0.00  0.00    +0.000 OA
BRANCH  22  23
ATOM     23  C   UNL     1       3.875   4.814  17.454  0.00  0.00    +0.000 A 
ATOM     24  C   UNL     1       3.681   3.528  16.954  0.00  0.00    +0.000 A 
ATOM     25  C   UNL     1       2.814   2.652  17.606  0.00  0.00    +0.000 A 
ATOM     26  C   UNL     1       2.152   3.057  18.766  0.00  0.00    +0.000 A 
ATOM     27  C   UNL     1       2.320   4.354  19.270  0.00  0.00    +0.000 A 
ATOM     28  C   UNL     1       3.149   5.242  18.575  0.00  0.00    +0.000 A 
BRANCH  27  29
ATOM     29  C   UNL     1       1.657   4.779  20.556  0.00  0.00    +0.000 C 
ATOM     30  F   UNL     1       1.779   6.112  20.809  0.00  0.00    +0.000 F 
ATOM     31  F   UNL     1       0.316   4.526  20.559  0.00  0.00    +0.000 F 
ATOM     32  F   UNL     1       2.159   4.142  21.648  0.00  0.00    +0.000 F 
ENDBRANCH  27  29
ENDBRANCH  22  23
ENDBRANCH   5  22
TORSDOF 12
ENDMDL
