MODEL 1
REMARK VINA RESULT:      -8.2      0.000      0.000
REMARK  Name = 
REMARK  15 active torsions:
REMARK  status: ('A' for Active; 'I' for Inactive)
REMARK    1  A    between atoms: C_1  and  O_2
REMARK    2  A    between atoms: O_2  and  C_3
REMARK    3  A    between atoms: C_3  and  C_5
REMARK    4  A    between atoms: C_5  and  C_6
REMARK    5  A    between atoms: N_15  and  C_16
REMARK    6  A    between atoms: N_15  and  C_17
REMARK    7  A    between atoms: C_17  and  C_18
REMARK    8  A    between atoms: C_18  and  C_19
REMARK    9  A    between atoms: C_19  and  C_20
REMARK   10  A    between atoms: C_20  and  C_21
REMARK   11  A    between atoms: C_21  and  N_22
REMARK   12  A    between atoms: N_22  and  C_23
REMARK   13  A    between atoms: N_22  and  C_24
REMARK   14  A    between atoms: N_25  and  C_26
REMARK   15  A    between atoms: C_29  and  C_30
REMARK                            x       y       z     vdW  Elec       q    Type
REMARK                         _______ _______ _______ _____ _____    ______ ____
ROOT
ATOM      1  C   UNL     1       4.777   4.440  16.055  0.00  0.00    +0.000 C 
ATOM      2  C   UNL     1       5.490   4.399  14.723  0.00  0.00    +0.000 A 
ATOM      3  C   UNL     1       4.942   3.712  13.625  0.00  0.00    +0.000 A 
ATOM      4  C   UNL     1       5.686   3.539  12.458  0.00  0.00    +0.000 A 
ATOM      5  C   UNL     1       6.969   4.072  12.374  0.00  0.00    +0.000 A 
ATOM      6  C   UNL     1       7.491   4.794  13.447  0.00  0.00    +0.000 A 
ATOM      7  C   UNL     1       6.756   4.960  14.624  0.00  0.00    +0.000 A 
ATOM      8  N   UNL     1       7.338   5.659  15.675  0.00  0.00    +0.000 NA
ATOM      9  C   UNL     1       6.658   5.896  16.770  0.00  0.00    +0.000 C 
ATOM     10  N   UNL     1       7.330   6.622  17.754  0.00  0.00    +0.000 N 
ATOM     11  C   UNL     1       7.072   6.540  19.185  0.00  0.00    +0.000 C 
ATOM     12  N   UNL     1       5.349   5.444  16.991  0.00  0.00    +0.000 N 
ENDROOT
BRANCH  12  13
ATOM     13  C   UNL     1       4.352   6.160  17.721  0.00  0.00    +0.000 A 
ATOM     14  C   UNL     1       3.848   7.374  17.250  0.00  0.00    +0.000 A 
ATOM     15  C   UNL     1       2.946   8.133  17.995  0.00  0.00    +0.000 A 
ATOM     16  C   UNL     1       2.393   7.671  19.193  0.00  0.00    +0.000 A 
ATOM     17  C   UNL     1       2.858   6.430  19.660  0.00  0.00    +0.000 A 
ATOM     18  C   UNL     1       3.825   5.708  18.945  0.00  0.00    +0.000 A 
BRANCH  16  19
ATOM     19  C   UNL     1       1.373   8.459  19.901  0.00  0.00    +0.000 A 
ATOM     20  C   UNL     1       0.791   9.572  19.266  0.00  0.00    +0.000 A 
ATOM     21  C   UNL     1      -0.126  10.393  19.918  0.00  0.00    +0.000 A 
ATOM     22  C   UNL     1      -0.514  10.094  21.219  0.00  0.00    +0.000 A 
ATOM     23  C   UNL     1       0.015   8.974  21.859  0.00  0.00    +0.000 A 
ATOM     24  C   UNL     1       0.952   8.165  21.209  0.00  0.00    +0.000 A 
ENDBRANCH  16  19
ENDBRANCH  12  13
BRANCH   1  25
ATOM     25  C   UNL     1       4.720   3.026  16.656  0.00  0.00    +0.000 C 
BRANCH  25  26
ATOM     26  C   UNL     1       3.379   2.670  17.230  0.00  0.00    +0.000 C 
ATOM     27  O   UNL     1       2.340   3.229  16.912  0.00  0.00    +0.000 OA
BRANCH  26  29
ATOM     28  C   UNL     1       4.141   2.131  19.412  0.00  0.00    +0.000 C 
ATOM     29  O   UNL     1       3.520   1.726  18.193  0.00  0.00    +0.000 OA
ENDBRANCH  26  29
ENDBRANCH  25  26
ENDBRANCH   1  25
BRANCH  10  30
ATOM     30  C   UNL     1       8.276   7.673  17.341  0.00  0.00    +0.000 C 
BRANCH  30  31
ATOM     31  C   UNL     1       7.951   9.030  17.973  0.00  0.00    +0.000 C 
BRANCH  31  32
ATOM     32  C   UNL     1       9.023   9.517  18.956  0.00  0.00    +0.000 C 
BRANCH  32  33
ATOM     33  C   UNL     1       9.209  11.034  18.892  0.00  0.00    +0.000 C 
BRANCH  33  34
ATOM     34  C   UNL     1      10.219  11.451  17.822  0.00  0.00    +0.000 C 
BRANCH  34  35
ATOM     35  N   UNL     1      10.803  12.778  18.086  0.00  0.00    +0.000 NA
ATOM     36  C   UNL     1      11.500  12.840  19.373  0.00  0.00    +0.000 C 
ATOM     37  C   UNL     1      11.723  13.135  17.004  0.00  0.00    +0.000 C 
ENDBRANCH  34  35
ENDBRANCH  33  34
ENDBRANCH  32  33
ENDBRANCH  31  32
ENDBRANCH  30  31
ENDBRANCH  10  30
TORSDOF 11
ENDMDL
MODEL 2
REMARK VINA RESULT:      -8.1      0.886      1.129
REMARK  Name = 
REMARK  15 active torsions:
REMARK  status: ('A' for Active; 'I' for Inactive)
REMARK    1  A    between atoms: C_1  and  O_2
REMARK    2  A    between atoms: O_2  and  C_3
REMARK    3  A    between atoms: C_3  and  C_5
REMARK    4  A    between atoms: C_5  and  C_6
REMARK    5  A    between atoms: N_15  and  C_16
REMARK    6  A    between atoms: N_15  and  C_17
REMARK    7  A    between atoms: C_17  and  C_18
REMARK    8  A    between atoms: C_18  and  C_19
REMARK    9  A    between atoms: C_19  and  C_20
REMARK   10  A    between atoms: C_20  and  C_21
REMARK   11  A    between atoms: C_21  and  N_22
REMARK   12  A    between atoms: N_22  and  C_23
REMARK   13  A    between atoms: N_22  and  C_24
REMARK   14  A    between atoms: N_25  and  C_26
REMARK   15  A    between atoms: C_29  and  C_30
REMARK                            x       y       z     vdW  Elec       q    Type
REMARK                         _______ _______ _______ _____ _____    ______ ____
ROOT
ATOM      1  C   UNL     1       4.680   4.447  16.161  0.00  0.00    +0.000 C 
ATOM      2  C   UNL     1       5.450   4.436  14.862  0.00  0.00    +0.000 A 
ATOM      3  C   UNL     1       4.924   3.828  13.708  0.00  0.00    +0.000 A 
ATOM      4  C   UNL     1       5.713   3.676  12.569  0.00  0.00    +0.000 A 
ATOM      5  C   UNL     1       7.020   4.153  12.568  0.00  0.00    +0.000 A 
ATOM      6  C   UNL     1       7.524   4.798  13.697  0.00  0.00    +0.000 A 
ATOM      7  C   UNL     1       6.744   4.942  14.846  0.00  0.00    +0.000 A 
ATOM      8  N   UNL     1       7.307   5.563  15.956  0.00  0.00    +0.000 NA
ATOM      9  C   UNL     1       6.588   5.779  17.030  0.00  0.00    +0.000 C 
ATOM     10  N   UNL     1       7.246   6.426  18.077  0.00  0.00    +0.000 N 
ATOM     11  C   UNL     1       6.918   6.288  19.490  0.00  0.00    +0.000 C 
ATOM     12  N   UNL     1       5.251   5.378  17.171  0.00  0.00    +0.000 N 
ENDROOT
BRANCH  12  13
ATOM     13  C   UNL     1       4.254   6.104  17.890  0.00  0.00    +0.000 A 
ATOM     14  C   UNL     1       3.768   7.324  17.415  0.00  0.00    +0.000 A 
ATOM     15  C   UNL     1       2.866   8.092  18.150  0.00  0.00    +0.000 A 
ATOM     16  C   UNL     1       2.296   7.635  19.342  0.00  0.00    +0.000 A 
ATOM     17  C   UNL     1       2.743   6.390  19.814  0.00  0.00    +0.000 A 
ATOM     18  C   UNL     1       3.711   5.658  19.108  0.00  0.00    +0.000 A 
BRANCH  16  19
ATOM     19  C   UNL     1       1.277   8.434  20.040  0.00  0.00    +0.000 A 
ATOM     20  C   UNL     1       0.729   9.566  19.408  0.00  0.00    +0.000 A 
ATOM     21  C   UNL     1      -0.186  10.395  20.052  0.00  0.00    +0.000 A 
ATOM     22  C   UNL     1      -0.605  10.088  21.341  0.00  0.00    +0.000 A 
ATOM     23  C   UNL     1      -0.109   8.951  21.978  0.00  0.00    +0.000 A 
ATOM     24  C   UNL     1       0.825   8.132  21.336  0.00  0.00    +0.000 A 
ENDBRANCH  16  19
ENDBRANCH  12  13
BRANCH   1  25
ATOM     25  C   UNL     1       4.532   3.011  16.689  0.00  0.00    +0.000 C 
BRANCH  25  26
ATOM     26  C   UNL     1       3.170   2.711  17.245  0.00  0.00    +0.000 C 
ATOM     27  O   UNL     1       2.160   3.315  16.917  0.00  0.00    +0.000 OA
BRANCH  26  29
ATOM     28  C   UNL     1       4.095   2.040  19.325  0.00  0.00    +0.000 C 
ATOM     29  O   UNL     1       3.257   1.757  18.205  0.00  0.00    +0.000 OA
ENDBRANCH  26  29
ENDBRANCH  25  26
ENDBRANCH   1  25
BRANCH  10  30
ATOM     30  C   UNL     1       8.255   7.450  17.759  0.00  0.00    +0.000 C 
BRANCH  30  31
ATOM     31  C   UNL     1       7.665   8.864  17.744  0.00  0.00    +0.000 C 
BRANCH  31  32
ATOM     32  C   UNL     1       8.723   9.966  17.880  0.00  0.00    +0.000 C 
BRANCH  32  33
ATOM     33  C   UNL     1       9.247  10.081  19.313  0.00  0.00    +0.000 C 
BRANCH  33  34
ATOM     34  C   UNL     1      10.334  11.148  19.451  0.00  0.00    +0.000 C 
BRANCH  34  35
ATOM     35  N   UNL     1      10.297  11.821  20.762  0.00  0.00    +0.000 NA
ATOM     36  C   UNL     1      10.564  13.259  20.663  0.00  0.00    +0.000 C 
ATOM     37  C   UNL     1       8.994  11.600  21.392  0.00  0.00    +0.000 C 
ENDBRANCH  34  35
ENDBRANCH  33  34
ENDBRANCH  32  33
ENDBRANCH  31  32
ENDBRANCH  30  31
ENDBRANCH  10  30
TORSDOF 11
ENDMDL
MODEL 3
REMARK VINA RESULT:      -8.1      0.603      1.004
REMARK  Name = 
REMARK  15 active torsions:
REMARK  status: ('A' for Active; 'I' for Inactive)
REMARK    1  A    between atoms: C_1  and  O_2
REMARK    2  A    between atoms: O_2  and  C_3
REMARK    3  A    between atoms: C_3  and  C_5
REMARK    4  A    between atoms: C_5  and  C_6
REMARK    5  A    between atoms: N_15  and  C_16
REMARK    6  A    between atoms: N_15  and  C_17
REMARK    7  A    between atoms: C_17  and  C_18
REMARK    8  A    between atoms: C_18  and  C_19
REMARK    9  A    between atoms: C_19  and  C_20
REMARK   10  A    between atoms: C_20  and  C_21
REMARK   11  A    between atoms: C_21  and  N_22
REMARK   12  A    between atoms: N_22  and  C_23
REMARK   13  A    between atoms: N_22  and  C_24
REMARK   14  A    between atoms: N_25  and  C_26
REMARK   15  A    between atoms: C_29  and  C_30
REMARK                            x       y       z     vdW  Elec       q    Type
REMARK                         _______ _______ _______ _____ _____    ______ ____
ROOT
ATOM      1  C   UNL     1       4.694   4.461  16.059  0.00  0.00    +0.000 C 
ATOM      2  C   UNL     1       5.432   4.421  14.741  0.00  0.00    +0.000 A 
ATOM      3  C   UNL     1       4.889   3.765  13.623  0.00  0.00    +0.000 A 
ATOM      4  C   UNL     1       5.651   3.590  12.468  0.00  0.00    +0.000 A 
ATOM      5  C   UNL     1       6.948   4.091  12.417  0.00  0.00    +0.000 A 
ATOM      6  C   UNL     1       7.466   4.784  13.510  0.00  0.00    +0.000 A 
ATOM      7  C   UNL     1       6.714   4.951  14.674  0.00  0.00    +0.000 A 
ATOM      8  N   UNL     1       7.292   5.620  15.747  0.00  0.00    +0.000 NA
ATOM      9  C   UNL     1       6.597   5.859  16.832  0.00  0.00    +0.000 C 
ATOM     10  N   UNL     1       7.268   6.553  17.839  0.00  0.00    +0.000 N 
ATOM     11  C   UNL     1       6.979   6.457  19.264  0.00  0.00    +0.000 C 
ATOM     12  N   UNL     1       5.273   5.437  17.022  0.00  0.00    +0.000 N 
ENDROOT
BRANCH  12  13
ATOM     13  C   UNL     1       4.280   6.168  17.742  0.00  0.00    +0.000 A 
ATOM     14  C   UNL     1       3.803   7.392  17.270  0.00  0.00    +0.000 A 
ATOM     15  C   UNL     1       2.906   8.164  18.007  0.00  0.00    +0.000 A 
ATOM     16  C   UNL     1       2.331   7.707  19.197  0.00  0.00    +0.000 A 
ATOM     17  C   UNL     1       2.768   6.457  19.665  0.00  0.00    +0.000 A 
ATOM     18  C   UNL     1       3.732   5.721  18.958  0.00  0.00    +0.000 A 
BRANCH  16  19
ATOM     19  C   UNL     1       1.316   8.510  19.897  0.00  0.00    +0.000 A 
ATOM     20  C   UNL     1       0.953   8.176  21.215  0.00  0.00    +0.000 A 
ATOM     21  C   UNL     1      -0.051   8.859  21.896  0.00  0.00    +0.000 A 
ATOM     22  C   UNL     1      -0.695   9.926  21.282  0.00  0.00    +0.000 A 
ATOM     23  C   UNL     1      -0.329  10.306  19.992  0.00  0.00    +0.000 A 
ATOM     24  C   UNL     1       0.664   9.604  19.303  0.00  0.00    +0.000 A 
ENDBRANCH  16  19
ENDBRANCH  12  13
BRANCH   1  25
ATOM     25  C   UNL     1       4.589   3.041  16.638  0.00  0.00    +0.000 C 
BRANCH  25  26
ATOM     26  C   UNL     1       3.279   2.762  17.315  0.00  0.00    +0.000 C 
ATOM     27  O   UNL     1       2.197   3.096  16.855  0.00  0.00    +0.000 OA
BRANCH  26  29
ATOM     28  C   UNL     1       2.367   2.067  19.393  0.00  0.00    +0.000 C 
ATOM     29  O   UNL     1       3.492   2.186  18.524  0.00  0.00    +0.000 OA
ENDBRANCH  26  29
ENDBRANCH  25  26
ENDBRANCH   1  25
BRANCH  10  30
ATOM     30  C   UNL     1       8.248   7.586  17.460  0.00  0.00    +0.000 C 
BRANCH  30  31
ATOM     31  C   UNL     1       8.525   8.572  18.600  0.00  0.00    +0.000 C 
BRANCH  31  32
ATOM     32  C   UNL     1       8.810   9.998  18.115  0.00  0.00    +0.000 C 
BRANCH  32  33
ATOM     33  C   UNL     1       9.584  10.811  19.156  0.00  0.00    +0.000 C 
BRANCH  33  34
ATOM     34  C   UNL     1      10.707  11.639  18.529  0.00  0.00    +0.000 C 
BRANCH  34  35
ATOM     35  N   UNL     1      10.203  12.620  17.552  0.00  0.00    +0.000 NA
ATOM     36  C   UNL     1       9.415  13.684  18.179  0.00  0.00    +0.000 C 
ATOM     37  C   UNL     1      11.328  13.203  16.817  0.00  0.00    +0.000 C 
ENDBRANCH  34  35
ENDBRANCH  33  34
ENDBRANCH  32  33
ENDBRANCH  31  32
ENDBRANCH  30  31
ENDBRANCH  10  30
TORSDOF 11
ENDMDL
MODEL 4
REMARK VINA RESULT:      -7.8      0.618      1.324
REMARK  Name = 
REMARK  15 active torsions:
REMARK  status: ('A' for Active; 'I' for Inactive)
REMARK    1  A    between atoms: C_1  and  O_2
REMARK    2  A    between atoms: O_2  and  C_3
REMARK    3  A    between atoms: C_3  and  C_5
REMARK    4  A    between atoms: C_5  and  C_6
REMARK    5  A    between atoms: N_15  and  C_16
REMARK    6  A    between atoms: N_15  and  C_17
REMARK    7  A    between atoms: C_17  and  C_18
REMARK    8  A    between atoms: C_18  and  C_19
REMARK    9  A    between atoms: C_19  and  C_20
REMARK   10  A    between atoms: C_20  and  C_21
REMARK   11  A    between atoms: C_21  and  N_22
REMARK   12  A    between atoms: N_22  and  C_23
REMARK   13  A    between atoms: N_22  and  C_24
REMARK   14  A    between atoms: N_25  and  C_26
REMARK   15  A    between atoms: C_29  and  C_30
REMARK                            x       y       z     vdW  Elec       q    Type
REMARK                         _______ _______ _______ _____ _____    ______ ____
ROOT
ATOM      1  C   UNL     1       4.781   4.448  16.055  0.00  0.00    +0.000 C 
ATOM      2  C   UNL     1       5.483   4.408  14.718  0.00  0.00    +0.000 A 
ATOM      3  C   UNL     1       4.931   3.718  13.625  0.00  0.00    +0.000 A 
ATOM      4  C   UNL     1       5.666   3.547  12.453  0.00  0.00    +0.000 A 
ATOM      5  C   UNL     1       6.946   4.086  12.358  0.00  0.00    +0.000 A 
ATOM      6  C   UNL     1       7.472   4.812  13.426  0.00  0.00    +0.000 A 
ATOM      7  C   UNL     1       6.746   4.976  14.608  0.00  0.00    +0.000 A 
ATOM      8  N   UNL     1       7.333   5.679  15.654  0.00  0.00    +0.000 NA
ATOM      9  C   UNL     1       6.660   5.914  16.754  0.00  0.00    +0.000 C 
ATOM     10  N   UNL     1       7.336   6.645  17.731  0.00  0.00    +0.000 N 
ATOM     11  C   UNL     1       7.089   6.563  19.165  0.00  0.00    +0.000 C 
ATOM     12  N   UNL     1       5.355   5.456  16.986  0.00  0.00    +0.000 N 
ENDROOT
BRANCH  12  13
ATOM     13  C   UNL     1       4.360   6.168  17.722  0.00  0.00    +0.000 A 
ATOM     14  C   UNL     1       3.790   7.338  17.217  0.00  0.00    +0.000 A 
ATOM     15  C   UNL     1       2.889   8.098  17.962  0.00  0.00    +0.000 A 
ATOM     16  C   UNL     1       2.403   7.673  19.202  0.00  0.00    +0.000 A 
ATOM     17  C   UNL     1       2.935   6.475  19.707  0.00  0.00    +0.000 A 
ATOM     18  C   UNL     1       3.901   5.757  18.987  0.00  0.00    +0.000 A 
BRANCH  16  19
ATOM     19  C   UNL     1       1.381   8.455  19.915  0.00  0.00    +0.000 A 
ATOM     20  C   UNL     1       0.989   8.068  21.211  0.00  0.00    +0.000 A 
ATOM     21  C   UNL     1      -0.023   8.731  21.900  0.00  0.00    +0.000 A 
ATOM     22  C   UNL     1      -0.646   9.830  21.319  0.00  0.00    +0.000 A 
ATOM     23  C   UNL     1      -0.251  10.260  20.053  0.00  0.00    +0.000 A 
ATOM     24  C   UNL     1       0.750   9.579  19.355  0.00  0.00    +0.000 A 
ENDBRANCH  16  19
ENDBRANCH  12  13
BRANCH   1  25
ATOM     25  C   UNL     1       4.735   3.035  16.658  0.00  0.00    +0.000 C 
BRANCH  25  26
ATOM     26  C   UNL     1       3.541   2.793  17.536  0.00  0.00    +0.000 C 
ATOM     27  O   UNL     1       3.598   2.207  18.606  0.00  0.00    +0.000 OA
BRANCH  26  29
ATOM     28  C   UNL     1       1.357   3.695  17.760  0.00  0.00    +0.000 C 
ATOM     29  O   UNL     1       2.414   3.233  16.921  0.00  0.00    +0.000 OA
ENDBRANCH  26  29
ENDBRANCH  25  26
ENDBRANCH   1  25
BRANCH  10  30
ATOM     30  C   UNL     1       8.274   7.700  17.310  0.00  0.00    +0.000 C 
BRANCH  30  31
ATOM     31  C   UNL     1       7.975   9.046  17.979  0.00  0.00    +0.000 C 
BRANCH  31  32
ATOM     32  C   UNL     1       9.228   9.893  18.229  0.00  0.00    +0.000 C 
BRANCH  32  33
ATOM     33  C   UNL     1       9.237  10.496  19.636  0.00  0.00    +0.000 C 
BRANCH  33  34
ATOM     34  C   UNL     1       9.738  11.942  19.646  0.00  0.00    +0.000 C 
BRANCH  34  35
ATOM     35  N   UNL     1      10.995  12.106  18.894  0.00  0.00    +0.000 NA
ATOM     36  C   UNL     1      10.994  13.306  18.052  0.00  0.00    +0.000 C 
ATOM     37  C   UNL     1      12.122  12.155  19.827  0.00  0.00    +0.000 C 
ENDBRANCH  34  35
ENDBRANCH  33  34
ENDBRANCH  32  33
ENDBRANCH  31  32
ENDBRANCH  30  31
ENDBRANCH  10  30
TORSDOF 11
ENDMDL
MODEL 5
REMARK VINA RESULT:      -7.8      0.607      1.322
REMARK  Name = 
REMARK  15 active torsions:
REMARK  status: ('A' for Active; 'I' for Inactive)
REMARK    1  A    between atoms: C_1  and  O_2
REMARK    2  A    between atoms: O_2  and  C_3
REMARK    3  A    between atoms: C_3  and  C_5
REMARK    4  A    between atoms: C_5  and  C_6
REMARK    5  A    between atoms: N_15  and  C_16
REMARK    6  A    between atoms: N_15  and  C_17
REMARK    7  A    between atoms: C_17  and  C_18
REMARK    8  A    between atoms: C_18  and  C_19
REMARK    9  A    between atoms: C_19  and  C_20
REMARK   10  A    between atoms: C_20  and  C_21
REMARK   11  A    between atoms: C_21  and  N_22
REMARK   12  A    between atoms: N_22  and  C_23
REMARK   13  A    between atoms: N_22  and  C_24
REMARK   14  A    between atoms: N_25  and  C_26
REMARK   15  A    between atoms: C_29  and  C_30
REMARK                            x       y       z     vdW  Elec       q    Type
REMARK                         _______ _______ _______ _____ _____    ______ ____
ROOT
ATOM      1  C   UNL     1       4.744   4.481  16.109  0.00  0.00    +0.000 C 
ATOM      2  C   UNL     1       5.493   4.442  14.797  0.00  0.00    +0.000 A 
ATOM      3  C   UNL     1       4.941   3.821  13.662  0.00  0.00    +0.000 A 
ATOM      4  C   UNL     1       5.708   3.643  12.512  0.00  0.00    +0.000 A 
ATOM      5  C   UNL     1       7.020   4.106  12.481  0.00  0.00    +0.000 A 
ATOM      6  C   UNL     1       7.549   4.765  13.591  0.00  0.00    +0.000 A 
ATOM      7  C   UNL     1       6.790   4.934  14.751  0.00  0.00    +0.000 A 
ATOM      8  N   UNL     1       7.378   5.567  15.840  0.00  0.00    +0.000 NA
ATOM      9  C   UNL     1       6.681   5.807  16.923  0.00  0.00    +0.000 C 
ATOM     10  N   UNL     1       7.362   6.464  17.948  0.00  0.00    +0.000 N 
ATOM     11  C   UNL     1       7.057   6.352  19.368  0.00  0.00    +0.000 C 
ATOM     12  N   UNL     1       5.342   5.422  17.093  0.00  0.00    +0.000 N 
ENDROOT
BRANCH  12  13
ATOM     13  C   UNL     1       4.365   6.170  17.818  0.00  0.00    +0.000 A 
ATOM     14  C   UNL     1       3.918   5.746  19.071  0.00  0.00    +0.000 A 
ATOM     15  C   UNL     1       2.897   6.410  19.749  0.00  0.00    +0.000 A 
ATOM     16  C   UNL     1       2.346   7.608  19.282  0.00  0.00    +0.000 A 
ATOM     17  C   UNL     1       2.815   8.071  18.041  0.00  0.00    +0.000 A 
ATOM     18  C   UNL     1       3.787   7.354  17.326  0.00  0.00    +0.000 A 
BRANCH  16  19
ATOM     19  C   UNL     1       1.337   8.328  20.073  0.00  0.00    +0.000 A 
ATOM     20  C   UNL     1       0.729   9.480  19.539  0.00  0.00    +0.000 A 
ATOM     21  C   UNL     1      -0.179  10.238  20.273  0.00  0.00    +0.000 A 
ATOM     22  C   UNL     1      -0.531   9.838  21.557  0.00  0.00    +0.000 A 
ATOM     23  C   UNL     1       0.025   8.679  22.097  0.00  0.00    +0.000 A 
ATOM     24  C   UNL     1       0.953   7.932  21.365  0.00  0.00    +0.000 A 
ENDBRANCH  16  19
ENDBRANCH  12  13
BRANCH   1  25
ATOM     25  C   UNL     1       4.591   3.055  16.662  0.00  0.00    +0.000 C 
BRANCH  25  26
ATOM     26  C   UNL     1       3.362   2.863  17.501  0.00  0.00    +0.000 C 
ATOM     27  O   UNL     1       3.355   2.246  18.556  0.00  0.00    +0.000 OA
BRANCH  26  29
ATOM     28  C   UNL     1       1.269   3.966  17.694  0.00  0.00    +0.000 C 
ATOM     29  O   UNL     1       2.281   3.387  16.872  0.00  0.00    +0.000 OA
ENDBRANCH  26  29
ENDBRANCH  25  26
ENDBRANCH   1  25
BRANCH  10  30
ATOM     30  C   UNL     1       8.376   7.473  17.596  0.00  0.00    +0.000 C 
BRANCH  30  31
ATOM     31  C   UNL     1       7.850   8.904  17.746  0.00  0.00    +0.000 C 
BRANCH  31  32
ATOM     32  C   UNL     1       8.897   9.884  18.288  0.00  0.00    +0.000 C 
BRANCH  32  33
ATOM     33  C   UNL     1       8.558  11.334  17.934  0.00  0.00    +0.000 C 
BRANCH  33  34
ATOM     34  C   UNL     1       9.587  12.323  18.486  0.00  0.00    +0.000 C 
BRANCH  34  35
ATOM     35  N   UNL     1      10.943  12.070  17.969  0.00  0.00    +0.000 NA
ATOM     36  C   UNL     1      11.429  13.152  17.109  0.00  0.00    +0.000 C 
ATOM     37  C   UNL     1      11.867  11.872  19.088  0.00  0.00    +0.000 C 
ENDBRANCH  34  35
ENDBRANCH  33  34
ENDBRANCH  32  33
ENDBRANCH  31  32
ENDBRANCH  30  31
ENDBRANCH  10  30
TORSDOF 11
ENDMDL
MODEL 6
REMARK VINA RESULT:      -7.7      1.000      1.650
REMARK  Name = 
REMARK  15 active torsions:
REMARK  status: ('A' for Active; 'I' for Inactive)
REMARK    1  A    between atoms: C_1  and  O_2
REMARK    2  A    between atoms: O_2  and  C_3
REMARK    3  A    between atoms: C_3  and  C_5
REMARK    4  A    between atoms: C_5  and  C_6
REMARK    5  A    between atoms: N_15  and  C_16
REMARK    6  A    between atoms: N_15  and  C_17
REMARK    7  A    between atoms: C_17  and  C_18
REMARK    8  A    between atoms: C_18  and  C_19
REMARK    9  A    between atoms: C_19  and  C_20
REMARK   10  A    between atoms: C_20  and  C_21
REMARK   11  A    between atoms: C_21  and  N_22
REMARK   12  A    between atoms: N_22  and  C_23
REMARK   13  A    between atoms: N_22  and  C_24
REMARK   14  A    between atoms: N_25  and  C_26
REMARK   15  A    between atoms: C_29  and  C_30
REMARK                            x       y       z     vdW  Elec       q    Type
REMARK                         _______ _______ _______ _____ _____    ______ ____
ROOT
ATOM      1  C   UNL     1       4.750   4.477  16.215  0.00  0.00    +0.000 C 
ATOM      2  C   UNL     1       5.477   4.428  14.892  0.00  0.00    +0.000 A 
ATOM      3  C   UNL     1       4.925   3.765  13.782  0.00  0.00    +0.000 A 
ATOM      4  C   UNL     1       5.678   3.583  12.622  0.00  0.00    +0.000 A 
ATOM      5  C   UNL     1       6.975   4.084  12.558  0.00  0.00    +0.000 A 
ATOM      6  C   UNL     1       7.502   4.783  13.643  0.00  0.00    +0.000 A 
ATOM      7  C   UNL     1       6.758   4.958  14.812  0.00  0.00    +0.000 A 
ATOM      8  N   UNL     1       7.345   5.633  15.876  0.00  0.00    +0.000 NA
ATOM      9  C   UNL     1       6.659   5.879  16.965  0.00  0.00    +0.000 C 
ATOM     10  N   UNL     1       7.338   6.579  17.962  0.00  0.00    +0.000 N 
ATOM     11  C   UNL     1       7.060   6.492  19.390  0.00  0.00    +0.000 C 
ATOM     12  N   UNL     1       5.336   5.458  17.167  0.00  0.00    +0.000 N 
ENDROOT
BRANCH  12  13
ATOM     13  C   UNL     1       4.349   6.193  17.891  0.00  0.00    +0.000 A 
ATOM     14  C   UNL     1       3.923   5.777  19.154  0.00  0.00    +0.000 A 
ATOM     15  C   UNL     1       2.893   6.427  19.833  0.00  0.00    +0.000 A 
ATOM     16  C   UNL     1       2.312   7.606  19.355  0.00  0.00    +0.000 A 
ATOM     17  C   UNL     1       2.759   8.062  18.104  0.00  0.00    +0.000 A 
ATOM     18  C   UNL     1       3.740   7.359  17.389  0.00  0.00    +0.000 A 
BRANCH  16  19
ATOM     19  C   UNL     1       1.294   8.314  20.146  0.00  0.00    +0.000 A 
ATOM     20  C   UNL     1       0.730   9.503  19.647  0.00  0.00    +0.000 A 
ATOM     21  C   UNL     1      -0.184  10.249  20.386  0.00  0.00    +0.000 A 
ATOM     22  C   UNL     1      -0.586   9.800  21.638  0.00  0.00    +0.000 A 
ATOM     23  C   UNL     1      -0.075   8.605  22.142  0.00  0.00    +0.000 A 
ATOM     24  C   UNL     1       0.859   7.869  21.406  0.00  0.00    +0.000 A 
ENDBRANCH  16  19
ENDBRANCH  12  13
BRANCH   1  25
ATOM     25  C   UNL     1       4.649   3.060  16.804  0.00  0.00    +0.000 C 
BRANCH  25  26
ATOM     26  C   UNL     1       3.296   2.737  17.367  0.00  0.00    +0.000 C 
ATOM     27  O   UNL     1       3.099   1.848  18.182  0.00  0.00    +0.000 OA
BRANCH  26  29
ATOM     28  C   UNL     1       1.318   4.026  17.610  0.00  0.00    +0.000 C 
ATOM     29  O   UNL     1       2.348   3.504  16.773  0.00  0.00    +0.000 OA
ENDBRANCH  26  29
ENDBRANCH  25  26
ENDBRANCH   1  25
BRANCH  10  30
ATOM     30  C   UNL     1       8.315   7.609  17.570  0.00  0.00    +0.000 C 
BRANCH  30  31
ATOM     31  C   UNL     1       7.764   9.029  17.739  0.00  0.00    +0.000 C 
BRANCH  31  32
ATOM     32  C   UNL     1       8.855  10.083  17.961  0.00  0.00    +0.000 C 
BRANCH  32  33
ATOM     33  C   UNL     1       9.310  10.134  19.422  0.00  0.00    +0.000 C 
BRANCH  33  34
ATOM     34  C   UNL     1      10.314  11.258  19.679  0.00  0.00    +0.000 C 
BRANCH  34  35
ATOM     35  N   UNL     1       9.779  12.295  20.580  0.00  0.00    +0.000 NA
ATOM     36  C   UNL     1       9.083  13.363  19.857  0.00  0.00    +0.000 C 
ATOM     37  C   UNL     1       8.873  11.681  21.553  0.00  0.00    +0.000 C 
ENDBRANCH  34  35
ENDBRANCH  33  34
ENDBRANCH  32  33
ENDBRANCH  31  32
ENDBRANCH  30  31
ENDBRANCH  10  30
TORSDOF 11
ENDMDL
MODEL 7
REMARK VINA RESULT:      -7.7      0.705      1.061
REMARK  Name = 
REMARK  15 active torsions:
REMARK  status: ('A' for Active; 'I' for Inactive)
REMARK    1  A    between atoms: C_1  and  O_2
REMARK    2  A    between atoms: O_2  and  C_3
REMARK    3  A    between atoms: C_3  and  C_5
REMARK    4  A    between atoms: C_5  and  C_6
REMARK    5  A    between atoms: N_15  and  C_16
REMARK    6  A    between atoms: N_15  and  C_17
REMARK    7  A    between atoms: C_17  and  C_18
REMARK    8  A    between atoms: C_18  and  C_19
REMARK    9  A    between atoms: C_19  and  C_20
REMARK   10  A    between atoms: C_20  and  C_21
REMARK   11  A    between atoms: C_21  and  N_22
REMARK   12  A    between atoms: N_22  and  C_23
REMARK   13  A    between atoms: N_22  and  C_24
REMARK   14  A    between atoms: N_25  and  C_26
REMARK   15  A    between atoms: C_29  and  C_30
REMARK                            x       y       z     vdW  Elec       q    Type
REMARK                         _______ _______ _______ _____ _____    ______ ____
ROOT
ATOM      1  C   UNL     1       4.550   4.513  16.135  0.00  0.00    +0.000 C 
ATOM      2  C   UNL     1       5.376   4.447  14.872  0.00  0.00    +0.000 A 
ATOM      3  C   UNL     1       4.846   3.918  13.682  0.00  0.00    +0.000 A 
ATOM      4  C   UNL     1       5.668   3.708  12.576  0.00  0.00    +0.000 A 
ATOM      5  C   UNL     1       7.016   4.048  12.644  0.00  0.00    +0.000 A 
ATOM      6  C   UNL     1       7.528   4.618  13.810  0.00  0.00    +0.000 A 
ATOM      7  C   UNL     1       6.713   4.819  14.926  0.00  0.00    +0.000 A 
ATOM      8  N   UNL     1       7.283   5.359  16.073  0.00  0.00    +0.000 NA
ATOM      9  C   UNL     1       6.540   5.627  17.119  0.00  0.00    +0.000 C 
ATOM     10  N   UNL     1       7.210   6.184  18.209  0.00  0.00    +0.000 N 
ATOM     11  C   UNL     1       6.803   6.054  19.602  0.00  0.00    +0.000 C 
ATOM     12  N   UNL     1       5.164   5.362  17.191  0.00  0.00    +0.000 N 
ENDROOT
BRANCH  12  13
ATOM     13  C   UNL     1       4.213   6.173  17.881  0.00  0.00    +0.000 A 
ATOM     14  C   UNL     1       3.694   5.780  19.116  0.00  0.00    +0.000 A 
ATOM     15  C   UNL     1       2.694   6.510  19.758  0.00  0.00    +0.000 A 
ATOM     16  C   UNL     1       2.242   7.741  19.274  0.00  0.00    +0.000 A 
ATOM     17  C   UNL     1       2.786   8.172  18.053  0.00  0.00    +0.000 A 
ATOM     18  C   UNL     1       3.734   7.393  17.372  0.00  0.00    +0.000 A 
BRANCH  16  19
ATOM     19  C   UNL     1       1.255   8.527  20.030  0.00  0.00    +0.000 A 
ATOM     20  C   UNL     1       0.608   9.612  19.408  0.00  0.00    +0.000 A 
ATOM     21  C   UNL     1      -0.281  10.431  20.100  0.00  0.00    +0.000 A 
ATOM     22  C   UNL     1      -0.575  10.158  21.430  0.00  0.00    +0.000 A 
ATOM     23  C   UNL     1       0.020   9.067  22.061  0.00  0.00    +0.000 A 
ATOM     24  C   UNL     1       0.929   8.259  21.370  0.00  0.00    +0.000 A 
ENDBRANCH  16  19
ENDBRANCH  12  13
BRANCH   1  25
ATOM     25  C   UNL     1       4.233   3.090  16.622  0.00  0.00    +0.000 C 
BRANCH  25  26
ATOM     26  C   UNL     1       2.941   2.986  17.379  0.00  0.00    +0.000 C 
ATOM     27  O   UNL     1       1.873   3.396  16.949  0.00  0.00    +0.000 OA
BRANCH  26  29
ATOM     28  C   UNL     1       3.763   1.175  18.674  0.00  0.00    +0.000 C 
ATOM     29  O   UNL     1       3.163   2.467  18.612  0.00  0.00    +0.000 OA
ENDBRANCH  26  29
ENDBRANCH  25  26
ENDBRANCH   1  25
BRANCH  10  30
ATOM     30  C   UNL     1       8.332   7.106  17.961  0.00  0.00    +0.000 C 
BRANCH  30  31
ATOM     31  C   UNL     1       7.866   8.556  17.789  0.00  0.00    +0.000 C 
BRANCH  31  32
ATOM     32  C   UNL     1       8.650   9.553  18.651  0.00  0.00    +0.000 C 
BRANCH  32  33
ATOM     33  C   UNL     1       9.253  10.681  17.811  0.00  0.00    +0.000 C 
BRANCH  33  34
ATOM     34  C   UNL     1       9.342  11.998  18.586  0.00  0.00    +0.000 C 
BRANCH  34  35
ATOM     35  N   UNL     1       9.748  13.127  17.730  0.00  0.00    +0.000 NA
ATOM     36  C   UNL     1       9.557  14.425  18.382  0.00  0.00    +0.000 C 
ATOM     37  C   UNL     1      11.151  12.969  17.340  0.00  0.00    +0.000 C 
ENDBRANCH  34  35
ENDBRANCH  33  34
ENDBRANCH  32  33
ENDBRANCH  31  32
ENDBRANCH  30  31
ENDBRANCH  10  30
TORSDOF 11
ENDMDL
MODEL 8
REMARK VINA RESULT:      -7.6      0.916      1.111
REMARK  Name = 
REMARK  15 active torsions:
REMARK  status: ('A' for Active; 'I' for Inactive)
REMARK    1  A    between atoms: C_1  and  O_2
REMARK    2  A    between atoms: O_2  and  C_3
REMARK    3  A    between atoms: C_3  and  C_5
REMARK    4  A    between atoms: C_5  and  C_6
REMARK    5  A    between atoms: N_15  and  C_16
REMARK    6  A    between atoms: N_15  and  C_17
REMARK    7  A    between atoms: C_17  and  C_18
REMARK    8  A    between atoms: C_18  and  C_19
REMARK    9  A    between atoms: C_19  and  C_20
REMARK   10  A    between atoms: C_20  and  C_21
REMARK   11  A    between atoms: C_21  and  N_22
REMARK   12  A    between atoms: N_22  and  C_23
REMARK   13  A    between atoms: N_22  and  C_24
REMARK   14  A    between atoms: N_25  and  C_26
REMARK   15  A    between atoms: C_29  and  C_30
REMARK                            x       y       z     vdW  Elec       q    Type
REMARK                         _______ _______ _______ _____ _____    ______ ____
ROOT
ATOM      1  C   UNL     1       4.737   4.449  16.108  0.00  0.00    +0.000 C 
ATOM      2  C   UNL     1       5.451   4.402  14.777  0.00  0.00    +0.000 A 
ATOM      3  C   UNL     1       4.906   3.708  13.683  0.00  0.00    +0.000 A 
ATOM      4  C   UNL     1       5.651   3.530  12.518  0.00  0.00    +0.000 A 
ATOM      5  C   UNL     1       6.933   4.066  12.432  0.00  0.00    +0.000 A 
ATOM      6  C   UNL     1       7.451   4.796  13.501  0.00  0.00    +0.000 A 
ATOM      7  C   UNL     1       6.716   4.967  14.676  0.00  0.00    +0.000 A 
ATOM      8  N   UNL     1       7.295   5.674  15.723  0.00  0.00    +0.000 NA
ATOM      9  C   UNL     1       6.613   5.915  16.816  0.00  0.00    +0.000 C 
ATOM     10  N   UNL     1       7.282   6.649  17.796  0.00  0.00    +0.000 N 
ATOM     11  C   UNL     1       7.023   6.574  19.228  0.00  0.00    +0.000 C 
ATOM     12  N   UNL     1       5.305   5.461  17.039  0.00  0.00    +0.000 N 
ENDROOT
BRANCH  12  13
ATOM     13  C   UNL     1       4.305   6.178  17.763  0.00  0.00    +0.000 A 
ATOM     14  C   UNL     1       3.802   7.390  17.288  0.00  0.00    +0.000 A 
ATOM     15  C   UNL     1       2.897   8.151  18.027  0.00  0.00    +0.000 A 
ATOM     16  C   UNL     1       2.341   7.692  19.225  0.00  0.00    +0.000 A 
ATOM     17  C   UNL     1       2.805   6.453  19.697  0.00  0.00    +0.000 A 
ATOM     18  C   UNL     1       3.776   5.730  18.987  0.00  0.00    +0.000 A 
BRANCH  16  19
ATOM     19  C   UNL     1       1.318   8.481  19.928  0.00  0.00    +0.000 A 
ATOM     20  C   UNL     1       0.773   9.621  19.308  0.00  0.00    +0.000 A 
ATOM     21  C   UNL     1      -0.145  10.442  19.958  0.00  0.00    +0.000 A 
ATOM     22  C   UNL     1      -0.571  10.118  21.240  0.00  0.00    +0.000 A 
ATOM     23  C   UNL     1      -0.079   8.973  21.865  0.00  0.00    +0.000 A 
ATOM     24  C   UNL     1       0.859   8.163  21.218  0.00  0.00    +0.000 A 
ENDBRANCH  16  19
ENDBRANCH  12  13
BRANCH   1  25
ATOM     25  C   UNL     1       4.683   3.039  16.717  0.00  0.00    +0.000 C 
BRANCH  25  26
ATOM     26  C   UNL     1       3.331   2.667  17.254  0.00  0.00    +0.000 C 
ATOM     27  O   UNL     1       2.289   3.175  16.869  0.00  0.00    +0.000 OA
BRANCH  26  29
ATOM     28  C   UNL     1       4.177   2.207  19.423  0.00  0.00    +0.000 C 
ATOM     29  O   UNL     1       3.461   1.775  18.268  0.00  0.00    +0.000 OA
ENDBRANCH  26  29
ENDBRANCH  25  26
ENDBRANCH   1  25
BRANCH  10  30
ATOM     30  C   UNL     1       8.226   7.700  17.378  0.00  0.00    +0.000 C 
BRANCH  30  31
ATOM     31  C   UNL     1       8.185   8.920  18.305  0.00  0.00    +0.000 C 
BRANCH  31  32
ATOM     32  C   UNL     1       9.215   9.997  17.939  0.00  0.00    +0.000 C 
BRANCH  32  33
ATOM     33  C   UNL     1       9.012  11.279  18.749  0.00  0.00    +0.000 C 
BRANCH  33  34
ATOM     34  C   UNL     1       9.140  12.537  17.888  0.00  0.00    +0.000 C 
BRANCH  34  35
ATOM     35  N   UNL     1       8.894  13.770  18.656  0.00  0.00    +0.000 NA
ATOM     36  C   UNL     1       7.674  14.463  18.233  0.00  0.00    +0.000 C 
ATOM     37  C   UNL     1       8.815  13.453  20.084  0.00  0.00    +0.000 C 
ENDBRANCH  34  35
ENDBRANCH  33  34
ENDBRANCH  32  33
ENDBRANCH  31  32
ENDBRANCH  30  31
ENDBRANCH  10  30
TORSDOF 11
ENDMDL
MODEL 9
REMARK VINA RESULT:      -7.6      0.856      1.550
REMARK  Name = 
REMARK  15 active torsions:
REMARK  status: ('A' for Active; 'I' for Inactive)
REMARK    1  A    between atoms: C_1  and  O_2
REMARK    2  A    between atoms: O_2  and  C_3
REMARK    3  A    between atoms: C_3  and  C_5
REMARK    4  A    between atoms: C_5  and  C_6
REMARK    5  A    between atoms: N_15  and  C_16
REMARK    6  A    between atoms: N_15  and  C_17
REMARK    7  A    between atoms: C_17  and  C_18
REMARK    8  A    between atoms: C_18  and  C_19
REMARK    9  A    between atoms: C_19  and  C_20
REMARK   10  A    between atoms: C_20  and  C_21
REMARK   11  A    between atoms: C_21  and  N_22
REMARK   12  A    between atoms: N_22  and  C_23
REMARK   13  A    between atoms: N_22  and  C_24
REMARK   14  A    between atoms: N_25  and  C_26
REMARK   15  A    between atoms: C_29  and  C_30
REMARK                            x       y       z     vdW  Elec       q    Type
REMARK                         _______ _______ _______ _____ _____    ______ ____
ROOT
ATOM      1  C   UNL     1       4.708   4.537  16.121  0.00  0.00    +0.000 C 
ATOM      2  C   UNL     1       5.427   4.452  14.794  0.00  0.00    +0.000 A 
ATOM      3  C   UNL     1       4.865   3.763  13.705  0.00  0.00    +0.000 A 
ATOM      4  C   UNL     1       5.610   3.549  12.546  0.00  0.00    +0.000 A 
ATOM      5  C   UNL     1       6.908   4.042  12.460  0.00  0.00    +0.000 A 
ATOM      6  C   UNL     1       7.445   4.767  13.524  0.00  0.00    +0.000 A 
ATOM      7  C   UNL     1       6.710   4.974  14.693  0.00  0.00    +0.000 A 
ATOM      8  N   UNL     1       7.306   5.674  15.736  0.00  0.00    +0.000 NA
ATOM      9  C   UNL     1       6.628   5.949  16.822  0.00  0.00    +0.000 C 
ATOM     10  N   UNL     1       7.316   6.672  17.798  0.00  0.00    +0.000 N 
ATOM     11  C   UNL     1       7.047   6.622  19.229  0.00  0.00    +0.000 C 
ATOM     12  N   UNL     1       5.304   5.540  17.044  0.00  0.00    +0.000 N 
ENDROOT
BRANCH  12  13
ATOM     13  C   UNL     1       4.325   6.297  17.755  0.00  0.00    +0.000 A 
ATOM     14  C   UNL     1       3.845   5.870  18.994  0.00  0.00    +0.000 A 
ATOM     15  C   UNL     1       2.821   6.545  19.657  0.00  0.00    +0.000 A 
ATOM     16  C   UNL     1       2.301   7.756  19.190  0.00  0.00    +0.000 A 
ATOM     17  C   UNL     1       2.803   8.223  17.964  0.00  0.00    +0.000 A 
ATOM     18  C   UNL     1       3.777   7.496  17.262  0.00  0.00    +0.000 A 
BRANCH  16  19
ATOM     19  C   UNL     1       1.287   8.487  19.967  0.00  0.00    +0.000 A 
ATOM     20  C   UNL     1       0.862   7.976  21.208  0.00  0.00    +0.000 A 
ATOM     21  C   UNL     1      -0.144   8.591  21.949  0.00  0.00    +0.000 A 
ATOM     22  C   UNL     1      -0.728   9.761  21.478  0.00  0.00    +0.000 A 
ATOM     23  C   UNL     1      -0.300  10.312  20.271  0.00  0.00    +0.000 A 
ATOM     24  C   UNL     1       0.696   9.680  19.520  0.00  0.00    +0.000 A 
ENDBRANCH  16  19
ENDBRANCH  12  13
BRANCH   1  25
ATOM     25  C   UNL     1       4.606   3.136  16.745  0.00  0.00    +0.000 C 
BRANCH  25  26
ATOM     26  C   UNL     1       3.238   2.811  17.272  0.00  0.00    +0.000 C 
ATOM     27  O   UNL     1       2.213   3.328  16.853  0.00  0.00    +0.000 OA
BRANCH  26  29
ATOM     28  C   UNL     1       2.709   2.342  19.537  0.00  0.00    +0.000 C 
ATOM     29  O   UNL     1       3.333   1.950  18.316  0.00  0.00    +0.000 OA
ENDBRANCH  26  29
ENDBRANCH  25  26
ENDBRANCH   1  25
BRANCH  10  30
ATOM     30  C   UNL     1       8.294   7.688  17.373  0.00  0.00    +0.000 C 
BRANCH  30  31
ATOM     31  C   UNL     1       8.450   8.812  18.402  0.00  0.00    +0.000 C 
BRANCH  31  32
ATOM     32  C   UNL     1       8.853  10.155  17.780  0.00  0.00    +0.000 C 
BRANCH  32  33
ATOM     33  C   UNL     1       8.971  11.259  18.833  0.00  0.00    +0.000 C 
BRANCH  33  34
ATOM     34  C   UNL     1       9.499  10.734  20.169  0.00  0.00    +0.000 C 
BRANCH  34  35
ATOM     35  N   UNL     1      10.464  11.655  20.794  0.00  0.00    +0.000 NA
ATOM     36  C   UNL     1      11.584  11.983  19.907  0.00  0.00    +0.000 C 
ATOM     37  C   UNL     1       9.778  12.883  21.203  0.00  0.00    +0.000 C 
ENDBRANCH  34  35
ENDBRANCH  33  34
ENDBRANCH  32  33
ENDBRANCH  31  32
ENDBRANCH  30  31
ENDBRANCH  10  30
TORSDOF 11
ENDMDL
