MODEL 1
REMARK VINA RESULT:      -8.1      0.000      0.000
REMARK  Name = 
REMARK  9 active torsions:
REMARK  status: ('A' for Active; 'I' for Inactive)
REMARK    1  A    between atoms: C_1  and  O_2
REMARK    2  A    between atoms: O_2  and  C_3
REMARK    3  A    between atoms: C_6  and  C_7
REMARK    4  A    between atoms: C_7  and  N_8
REMARK    5  A    between atoms: C_9  and  C_11
REMARK    6  A    between atoms: C_11  and  N_12
REMARK    7  A    between atoms: C_14  and  C_15
REMARK    8  A    between atoms: N_20  and  C_21
REMARK    9  A    between atoms: C_25  and  C_26
REMARK                            x       y       z     vdW  Elec       q    Type
REMARK                         _______ _______ _______ _____ _____    ______ ____
ROOT
ATOM      1  N   UNL     1       6.283   6.494  16.756  0.00  0.00    +0.000 N 
ATOM      2  N   UNL     1       5.255   6.806  17.569  0.00  0.00    +0.000 NA
ATOM      3  C   UNL     1       4.381   5.792  17.423  0.00  0.00    +0.000 A 
ATOM      4  C   UNL     1       4.930   4.785  16.586  0.00  0.00    +0.000 A 
ATOM      5  C   UNL     1       6.134   5.283  16.133  0.00  0.00    +0.000 A 
ATOM      6  C   UNL     1       7.121   4.718  15.182  0.00  0.00    +0.000 C 
ENDROOT
BRANCH   3   7
ATOM      7  C   UNL     1       3.071   5.754  18.100  0.00  0.00    +0.000 C 
ATOM      8  O   UNL     1       2.333   6.738  18.089  0.00  0.00    +0.000 OA
ATOM      9  N   UNL     1       2.706   4.563  18.758  0.00  0.00    +0.000 N 
ATOM     10  C   UNL     1       1.374   4.537  19.358  0.00  0.00    +0.000 C 
ATOM     11  C   UNL     1       0.913   3.114  19.725  0.00  0.00    +0.000 C 
ATOM     12  N   UNL     1       1.883   2.327  20.513  0.00  0.00    +0.000 NA
ATOM     13  C   UNL     1       1.995   2.818  21.885  0.00  0.00    +0.000 C 
ATOM     14  C   UNL     1       3.185   2.338  19.819  0.00  0.00    +0.000 C 
ATOM     15  C   UNL     1       3.709   3.735  19.440  0.00  0.00    +0.000 C 
ENDBRANCH   3   7
BRANCH   1  16
ATOM     16  C   UNL     1       7.361   7.453  16.620  0.00  0.00    +0.000 C 
BRANCH  16  18
ATOM     17  N   UNL     1       8.364   9.108  18.106  0.00  0.00    +0.000 N 
ATOM     18  C   UNL     1       7.974   7.794  17.958  0.00  0.00    +0.000 C 
ATOM     19  O   UNL     1       8.168   6.934  18.813  0.00  0.00    +0.000 OA
ATOM     20  H   UNL     1       7.927   9.789  17.489  0.00  0.00    +0.000 HD
BRANCH  17  21
ATOM     21  C   UNL     1       8.943   9.583  19.345  0.00  0.00    +0.000 C 
BRANCH  21  25
ATOM     22  C   UNL     1      11.419  13.083  18.750  0.00  0.00    +0.000 A 
ATOM     23  C   UNL     1      10.836  12.434  17.660  0.00  0.00    +0.000 A 
ATOM     24  C   UNL     1      10.030  11.308  17.847  0.00  0.00    +0.000 A 
ATOM     25  C   UNL     1       9.816  10.794  19.133  0.00  0.00    +0.000 A 
ATOM     26  C   UNL     1      10.418  11.442  20.222  0.00  0.00    +0.000 A 
ATOM     27  C   UNL     1      11.214  12.578  20.033  0.00  0.00    +0.000 A 
BRANCH  22  29
ATOM     28  C   UNL     1      11.511  15.251  17.811  0.00  0.00    +0.000 C 
ATOM     29  O   UNL     1      12.190  14.168  18.437  0.00  0.00    +0.000 OA
ENDBRANCH  22  29
ENDBRANCH  21  25
ENDBRANCH  17  21
ENDBRANCH  16  18
ENDBRANCH   1  16
TORSDOF 6
ENDMDL
MODEL 2
REMARK VINA RESULT:      -7.7      2.534      3.566
REMARK  Name = 
REMARK  9 active torsions:
REMARK  status: ('A' for Active; 'I' for Inactive)
REMARK    1  A    between atoms: C_1  and  O_2
REMARK    2  A    between atoms: O_2  and  C_3
REMARK    3  A    between atoms: C_6  and  C_7
REMARK    4  A    between atoms: C_7  and  N_8
REMARK    5  A    between atoms: C_9  and  C_11
REMARK    6  A    between atoms: C_11  and  N_12
REMARK    7  A    between atoms: C_14  and  C_15
REMARK    8  A    between atoms: N_20  and  C_21
REMARK    9  A    between atoms: C_25  and  C_26
REMARK                            x       y       z     vdW  Elec       q    Type
REMARK                         _______ _______ _______ _____ _____    ______ ____
ROOT
ATOM      1  N   UNL     1       5.554   6.166  17.157  0.00  0.00    +0.000 N 
ATOM      2  N   UNL     1       4.924   6.825  18.149  0.00  0.00    +0.000 NA
ATOM      3  C   UNL     1       3.749   6.183  18.296  0.00  0.00    +0.000 A 
ATOM      4  C   UNL     1       3.701   5.043  17.451  0.00  0.00    +0.000 A 
ATOM      5  C   UNL     1       4.855   5.083  16.695  0.00  0.00    +0.000 A 
ATOM      6  C   UNL     1       5.327   4.201  15.601  0.00  0.00    +0.000 C 
ENDROOT
BRANCH   3   7
ATOM      7  C   UNL     1       2.710   6.613  19.251  0.00  0.00    +0.000 C 
ATOM      8  O   UNL     1       2.284   5.833  20.102  0.00  0.00    +0.000 OA
ATOM      9  N   UNL     1       2.227   7.932  19.149  0.00  0.00    +0.000 N 
ATOM     10  C   UNL     1       1.251   8.344  20.154  0.00  0.00    +0.000 C 
ATOM     11  C   UNL     1       1.053   9.870  20.204  0.00  0.00    +0.000 C 
ATOM     12  N   UNL     1       0.796  10.509  18.897  0.00  0.00    +0.000 NA
ATOM     13  C   UNL     1      -0.538  10.191  18.390  0.00  0.00    +0.000 C 
ATOM     14  C   UNL     1       1.852  10.106  17.949  0.00  0.00    +0.000 C 
ATOM     15  C   UNL     1       2.087   8.588  17.842  0.00  0.00    +0.000 C 
ENDBRANCH   3   7
BRANCH   1  16
ATOM     16  C   UNL     1       6.827   6.683  16.696  0.00  0.00    +0.000 C 
BRANCH  16  18
ATOM     17  N   UNL     1       7.929   8.570  17.782  0.00  0.00    +0.000 N 
ATOM     18  C   UNL     1       7.656   7.220  17.839  0.00  0.00    +0.000 C 
ATOM     19  O   UNL     1       8.105   6.479  18.709  0.00  0.00    +0.000 OA
ATOM     20  H   UNL     1       7.309   9.140  17.210  0.00  0.00    +0.000 HD
BRANCH  17  21
ATOM     21  C   UNL     1       8.691   9.225  18.824  0.00  0.00    +0.000 C 
BRANCH  21  25
ATOM     22  C   UNL     1      10.085  13.147  17.636  0.00  0.00    +0.000 A 
ATOM     23  C   UNL     1       8.737  12.808  17.513  0.00  0.00    +0.000 A 
ATOM     24  C   UNL     1       8.281  11.546  17.902  0.00  0.00    +0.000 A 
ATOM     25  C   UNL     1       9.175  10.588  18.396  0.00  0.00    +0.000 A 
ATOM     26  C   UNL     1      10.532  10.931  18.503  0.00  0.00    +0.000 A 
ATOM     27  C   UNL     1      10.985  12.201  18.125  0.00  0.00    +0.000 A 
BRANCH  22  29
ATOM     28  C   UNL     1      10.361  15.424  18.213  0.00  0.00    +0.000 C 
ATOM     29  O   UNL     1      10.409  14.408  17.217  0.00  0.00    +0.000 OA
ENDBRANCH  22  29
ENDBRANCH  21  25
ENDBRANCH  17  21
ENDBRANCH  16  18
ENDBRANCH   1  16
TORSDOF 6
ENDMDL
MODEL 3
REMARK VINA RESULT:      -7.7      2.703      3.869
REMARK  Name = 
REMARK  9 active torsions:
REMARK  status: ('A' for Active; 'I' for Inactive)
REMARK    1  A    between atoms: C_1  and  O_2
REMARK    2  A    between atoms: O_2  and  C_3
REMARK    3  A    between atoms: C_6  and  C_7
REMARK    4  A    between atoms: C_7  and  N_8
REMARK    5  A    between atoms: C_9  and  C_11
REMARK    6  A    between atoms: C_11  and  N_12
REMARK    7  A    between atoms: C_14  and  C_15
REMARK    8  A    between atoms: N_20  and  C_21
REMARK    9  A    between atoms: C_25  and  C_26
REMARK                            x       y       z     vdW  Elec       q    Type
REMARK                         _______ _______ _______ _____ _____    ______ ____
ROOT
ATOM      1  N   UNL     1       5.581   5.415  18.371  0.00  0.00    +0.000 N 
ATOM      2  N   UNL     1       4.901   6.088  19.319  0.00  0.00    +0.000 NA
ATOM      3  C   UNL     1       3.604   5.858  19.041  0.00  0.00    +0.000 A 
ATOM      4  C   UNL     1       3.486   4.939  17.965  0.00  0.00    +0.000 A 
ATOM      5  C   UNL     1       4.772   4.707  17.522  0.00  0.00    +0.000 A 
ATOM      6  C   UNL     1       5.275   3.894  16.389  0.00  0.00    +0.000 C 
ENDROOT
BRANCH   3   7
ATOM      7  C   UNL     1       2.496   6.458  19.808  0.00  0.00    +0.000 C 
ATOM      8  O   UNL     1       1.927   5.815  20.690  0.00  0.00    +0.000 OA
ATOM      9  N   UNL     1       2.116   7.777  19.493  0.00  0.00    +0.000 N 
ATOM     10  C   UNL     1       1.064   8.363  20.318  0.00  0.00    +0.000 C 
ATOM     11  C   UNL     1       0.963   9.892  20.161  0.00  0.00    +0.000 C 
ATOM     12  N   UNL     1       0.895  10.373  18.766  0.00  0.00    +0.000 NA
ATOM     13  C   UNL     1      -0.392  10.063  18.146  0.00  0.00    +0.000 C 
ATOM     14  C   UNL     1       2.022   9.798  18.005  0.00  0.00    +0.000 C 
ATOM     15  C   UNL     1       2.166   8.269  18.109  0.00  0.00    +0.000 C 
ENDBRANCH   3   7
BRANCH   1  16
ATOM     16  C   UNL     1       7.024   5.544  18.345  0.00  0.00    +0.000 C 
BRANCH  16  18
ATOM     17  N   UNL     1       7.737   7.866  18.118  0.00  0.00    +0.000 N 
ATOM     18  C   UNL     1       7.464   6.687  17.460  0.00  0.00    +0.000 C 
ATOM     19  O   UNL     1       7.500   6.575  16.237  0.00  0.00    +0.000 OA
ATOM     20  H   UNL     1       7.951   7.799  19.111  0.00  0.00    +0.000 HD
BRANCH  17  21
ATOM     21  C   UNL     1       8.194   9.038  17.400  0.00  0.00    +0.000 C 
BRANCH  21  25
ATOM     22  C   UNL     1       9.751  12.085  20.050  0.00  0.00    +0.000 A 
ATOM     23  C   UNL     1       9.601  10.771  20.494  0.00  0.00    +0.000 A 
ATOM     24  C   UNL     1       9.106   9.781  19.640  0.00  0.00    +0.000 A 
ATOM     25  C   UNL     1       8.724  10.099  18.330  0.00  0.00    +0.000 A 
ATOM     26  C   UNL     1       8.864  11.427  17.895  0.00  0.00    +0.000 A 
ATOM     27  C   UNL     1       9.373  12.413  18.749  0.00  0.00    +0.000 A 
BRANCH  22  29
ATOM     28  C   UNL     1      10.187  14.338  20.622  0.00  0.00    +0.000 C 
ATOM     29  O   UNL     1      10.240  12.961  20.979  0.00  0.00    +0.000 OA
ENDBRANCH  22  29
ENDBRANCH  21  25
ENDBRANCH  17  21
ENDBRANCH  16  18
ENDBRANCH   1  16
TORSDOF 6
ENDMDL
MODEL 4
REMARK VINA RESULT:      -7.3      6.082      9.594
REMARK  Name = 
REMARK  9 active torsions:
REMARK  status: ('A' for Active; 'I' for Inactive)
REMARK    1  A    between atoms: C_1  and  O_2
REMARK    2  A    between atoms: O_2  and  C_3
REMARK    3  A    between atoms: C_6  and  C_7
REMARK    4  A    between atoms: C_7  and  N_8
REMARK    5  A    between atoms: C_9  and  C_11
REMARK    6  A    between atoms: C_11  and  N_12
REMARK    7  A    between atoms: C_14  and  C_15
REMARK    8  A    between atoms: N_20  and  C_21
REMARK    9  A    between atoms: C_25  and  C_26
REMARK                            x       y       z     vdW  Elec       q    Type
REMARK                         _______ _______ _______ _____ _____    ______ ____
ROOT
ATOM      1  N   UNL     1       1.884   8.834  19.010  0.00  0.00    +0.000 N 
ATOM      2  N   UNL     1       2.277   7.967  18.057  0.00  0.00    +0.000 NA
ATOM      3  C   UNL     1       2.405   6.789  18.697  0.00  0.00    +0.000 A 
ATOM      4  C   UNL     1       1.979   6.911  20.045  0.00  0.00    +0.000 A 
ATOM      5  C   UNL     1       1.695   8.248  20.233  0.00  0.00    +0.000 A 
ATOM      6  C   UNL     1       1.273   8.989  21.446  0.00  0.00    +0.000 C 
ENDROOT
BRANCH   3   7
ATOM      7  C   UNL     1       2.876   5.559  18.032  0.00  0.00    +0.000 C 
ATOM      8  O   UNL     1       2.184   4.541  18.041  0.00  0.00    +0.000 OA
ATOM      9  N   UNL     1       4.134   5.592  17.401  0.00  0.00    +0.000 N 
ATOM     10  C   UNL     1       4.537   4.379  16.694  0.00  0.00    +0.000 C 
ATOM     11  C   UNL     1       5.724   4.610  15.741  0.00  0.00    +0.000 C 
ATOM     12  N   UNL     1       6.882   5.303  16.342  0.00  0.00    +0.000 NA
ATOM     13  C   UNL     1       7.598   4.447  17.286  0.00  0.00    +0.000 C 
ATOM     14  C   UNL     1       6.417   6.550  16.979  0.00  0.00    +0.000 C 
ATOM     15  C   UNL     1       5.240   6.382  17.957  0.00  0.00    +0.000 C 
ENDBRANCH   3   7
BRANCH   1  16
ATOM     16  C   UNL     1       1.748  10.231  18.647  0.00  0.00    +0.000 C 
BRANCH  16  18
ATOM     17  N   UNL     1      -0.068  11.720  19.307  0.00  0.00    +0.000 N 
ATOM     18  C   UNL     1       0.298  10.638  18.536  0.00  0.00    +0.000 C 
ATOM     19  O   UNL     1      -0.500   9.995  17.858  0.00  0.00    +0.000 OA
ATOM     20  H   UNL     1       0.678  12.344  19.606  0.00  0.00    +0.000 HD
BRANCH  17  21
ATOM     21  C   UNL     1      -1.420  12.236  19.281  0.00  0.00    +0.000 C 
BRANCH  21  25
ATOM     22  C   UNL     1      -3.212  12.262  23.221  0.00  0.00    +0.000 A 
ATOM     23  C   UNL     1      -3.915  12.755  22.121  0.00  0.00    +0.000 A 
ATOM     24  C   UNL     1      -3.344  12.742  20.846  0.00  0.00    +0.000 A 
ATOM     25  C   UNL     1      -2.043  12.259  20.655  0.00  0.00    +0.000 A 
ATOM     26  C   UNL     1      -1.336  11.779  21.768  0.00  0.00    +0.000 A 
ATOM     27  C   UNL     1      -1.916  11.780  23.043  0.00  0.00    +0.000 A 
BRANCH  22  29
ATOM     28  C   UNL     1      -5.210  12.825  24.355  0.00  0.00    +0.000 C 
ATOM     29  O   UNL     1      -3.875  12.334  24.415  0.00  0.00    +0.000 OA
ENDBRANCH  22  29
ENDBRANCH  21  25
ENDBRANCH  17  21
ENDBRANCH  16  18
ENDBRANCH   1  16
TORSDOF 6
ENDMDL
MODEL 5
REMARK VINA RESULT:      -7.3      3.796      6.386
REMARK  Name = 
REMARK  9 active torsions:
REMARK  status: ('A' for Active; 'I' for Inactive)
REMARK    1  A    between atoms: C_1  and  O_2
REMARK    2  A    between atoms: O_2  and  C_3
REMARK    3  A    between atoms: C_6  and  C_7
REMARK    4  A    between atoms: C_7  and  N_8
REMARK    5  A    between atoms: C_9  and  C_11
REMARK    6  A    between atoms: C_11  and  N_12
REMARK    7  A    between atoms: C_14  and  C_15
REMARK    8  A    between atoms: N_20  and  C_21
REMARK    9  A    between atoms: C_25  and  C_26
REMARK                            x       y       z     vdW  Elec       q    Type
REMARK                         _______ _______ _______ _____ _____    ______ ____
ROOT
ATOM      1  N   UNL     1       2.244   5.369  18.827  0.00  0.00    +0.000 N 
ATOM      2  N   UNL     1       2.197   6.472  18.055  0.00  0.00    +0.000 NA
ATOM      3  C   UNL     1       1.901   7.473  18.905  0.00  0.00    +0.000 A 
ATOM      4  C   UNL     1       1.871   6.994  20.241  0.00  0.00    +0.000 A 
ATOM      5  C   UNL     1       2.048   5.628  20.157  0.00  0.00    +0.000 A 
ATOM      6  C   UNL     1       2.042   4.584  21.210  0.00  0.00    +0.000 C 
ENDROOT
BRANCH   3   7
ATOM      7  C   UNL     1       1.698   8.868  18.467  0.00  0.00    +0.000 C 
ATOM      8  O   UNL     1       2.285   9.303  17.477  0.00  0.00    +0.000 OA
ATOM      9  N   UNL     1       0.821   9.672  19.220  0.00  0.00    +0.000 N 
ATOM     10  C   UNL     1       0.590  11.024  18.719  0.00  0.00    +0.000 C 
ATOM     11  C   UNL     1      -0.633  11.701  19.367  0.00  0.00    +0.000 C 
ATOM     12  N   UNL     1      -0.664  11.652  20.843  0.00  0.00    +0.000 NA
ATOM     13  C   UNL     1       0.340  12.533  21.437  0.00  0.00    +0.000 C 
ATOM     14  C   UNL     1      -0.493  10.253  21.280  0.00  0.00    +0.000 C 
ATOM     15  C   UNL     1       0.724   9.527  20.679  0.00  0.00    +0.000 C 
ENDBRANCH   3   7
BRANCH   1  16
ATOM     16  C   UNL     1       2.454   4.090  18.178  0.00  0.00    +0.000 C 
BRANCH  16  18
ATOM     17  N   UNL     1       4.528   4.596  16.996  0.00  0.00    +0.000 N 
ATOM     18  C   UNL     1       3.923   3.814  17.957  0.00  0.00    +0.000 C 
ATOM     19  O   UNL     1       4.502   2.906  18.548  0.00  0.00    +0.000 OA
ATOM     20  H   UNL     1       4.073   5.477  16.767  0.00  0.00    +0.000 HD
BRANCH  17  21
ATOM     21  C   UNL     1       5.938   4.459  16.697  0.00  0.00    +0.000 C 
BRANCH  21  25
ATOM     22  C   UNL     1       8.258   7.636  18.502  0.00  0.00    +0.000 A 
ATOM     23  C   UNL     1       7.572   7.852  17.306  0.00  0.00    +0.000 A 
ATOM     24  C   UNL     1       6.815   6.832  16.723  0.00  0.00    +0.000 A 
ATOM     25  C   UNL     1       6.756   5.564  17.316  0.00  0.00    +0.000 A 
ATOM     26  C   UNL     1       7.461   5.349  18.510  0.00  0.00    +0.000 A 
ATOM     27  C   UNL     1       8.207   6.377  19.100  0.00  0.00    +0.000 A 
BRANCH  22  29
ATOM     28  C   UNL     1       8.694   9.954  18.336  0.00  0.00    +0.000 C 
ATOM     29  O   UNL     1       8.966   8.708  18.969  0.00  0.00    +0.000 OA
ENDBRANCH  22  29
ENDBRANCH  21  25
ENDBRANCH  17  21
ENDBRANCH  16  18
ENDBRANCH   1  16
TORSDOF 6
ENDMDL
MODEL 6
REMARK VINA RESULT:      -7.2      5.123      7.908
REMARK  Name = 
REMARK  9 active torsions:
REMARK  status: ('A' for Active; 'I' for Inactive)
REMARK    1  A    between atoms: C_1  and  O_2
REMARK    2  A    between atoms: O_2  and  C_3
REMARK    3  A    between atoms: C_6  and  C_7
REMARK    4  A    between atoms: C_7  and  N_8
REMARK    5  A    between atoms: C_9  and  C_11
REMARK    6  A    between atoms: C_11  and  N_12
REMARK    7  A    between atoms: C_14  and  C_15
REMARK    8  A    between atoms: N_20  and  C_21
REMARK    9  A    between atoms: C_25  and  C_26
REMARK                            x       y       z     vdW  Elec       q    Type
REMARK                         _______ _______ _______ _____ _____    ______ ____
ROOT
ATOM      1  N   UNL     1       4.788   4.928  18.784  0.00  0.00    +0.000 N 
ATOM      2  N   UNL     1       4.289   5.884  19.590  0.00  0.00    +0.000 NA
ATOM      3  C   UNL     1       2.954   5.716  19.536  0.00  0.00    +0.000 A 
ATOM      4  C   UNL     1       2.632   4.567  18.766  0.00  0.00    +0.000 A 
ATOM      5  C   UNL     1       3.828   4.107  18.254  0.00  0.00    +0.000 A 
ATOM      6  C   UNL     1       4.119   2.985  17.329  0.00  0.00    +0.000 C 
ENDROOT
BRANCH   3   7
ATOM      7  C   UNL     1       2.002   6.597  20.239  0.00  0.00    +0.000 C 
ATOM      8  O   UNL     1       1.384   6.190  21.222  0.00  0.00    +0.000 OA
ATOM      9  N   UNL     1       1.825   7.903  19.743  0.00  0.00    +0.000 N 
ATOM     10  C   UNL     1       0.928   8.769  20.503  0.00  0.00    +0.000 C 
ATOM     11  C   UNL     1       1.070  10.255  20.125  0.00  0.00    +0.000 C 
ATOM     12  N   UNL     1       1.006  10.539  18.676  0.00  0.00    +0.000 NA
ATOM     13  C   UNL     1      -0.346  10.367  18.148  0.00  0.00    +0.000 C 
ATOM     14  C   UNL     1       1.982   9.681  17.976  0.00  0.00    +0.000 C 
ATOM     15  C   UNL     1       1.880   8.180  18.301  0.00  0.00    +0.000 C 
ENDBRANCH   3   7
BRANCH   1  16
ATOM     16  C   UNL     1       6.220   4.906  18.557  0.00  0.00    +0.000 C 
BRANCH  16  18
ATOM     17  N   UNL     1       7.257   4.728  16.355  0.00  0.00    +0.000 N 
ATOM     18  C   UNL     1       6.582   5.545  17.236  0.00  0.00    +0.000 C 
ATOM     19  O   UNL     1       6.348   6.730  17.010  0.00  0.00    +0.000 OA
ATOM     20  H   UNL     1       7.163   3.724  16.496  0.00  0.00    +0.000 HD
BRANCH  17  21
ATOM     21  C   UNL     1       7.644   5.199  15.042  0.00  0.00    +0.000 C 
BRANCH  21  25
ATOM     22  C   UNL     1       5.423   3.258  11.874  0.00  0.00    +0.000 A 
ATOM     23  C   UNL     1       4.833   3.480  13.119  0.00  0.00    +0.000 A 
ATOM     24  C   UNL     1       5.543   4.113  14.143  0.00  0.00    +0.000 A 
ATOM     25  C   UNL     1       6.871   4.510  13.945  0.00  0.00    +0.000 A 
ATOM     26  C   UNL     1       7.464   4.270  12.695  0.00  0.00    +0.000 A 
ATOM     27  C   UNL     1       6.746   3.648  11.667  0.00  0.00    +0.000 A 
BRANCH  22  29
ATOM     28  C   UNL     1       3.382   3.253  10.680  0.00  0.00    +0.000 C 
ATOM     29  O   UNL     1       4.629   2.626  10.958  0.00  0.00    +0.000 OA
ENDBRANCH  22  29
ENDBRANCH  21  25
ENDBRANCH  17  21
ENDBRANCH  16  18
ENDBRANCH   1  16
TORSDOF 6
ENDMDL
MODEL 7
REMARK VINA RESULT:      -7.1      7.141     10.440
REMARK  Name = 
REMARK  9 active torsions:
REMARK  status: ('A' for Active; 'I' for Inactive)
REMARK    1  A    between atoms: C_1  and  O_2
REMARK    2  A    between atoms: O_2  and  C_3
REMARK    3  A    between atoms: C_6  and  C_7
REMARK    4  A    between atoms: C_7  and  N_8
REMARK    5  A    between atoms: C_9  and  C_11
REMARK    6  A    between atoms: C_11  and  N_12
REMARK    7  A    between atoms: C_14  and  C_15
REMARK    8  A    between atoms: N_20  and  C_21
REMARK    9  A    between atoms: C_25  and  C_26
REMARK                            x       y       z     vdW  Elec       q    Type
REMARK                         _______ _______ _______ _____ _____    ______ ____
ROOT
ATOM      1  N   UNL     1      -0.308  10.876  19.240  0.00  0.00    +0.000 N 
ATOM      2  N   UNL     1      -1.390  10.437  18.568  0.00  0.00    +0.000 NA
ATOM      3  C   UNL     1      -2.124  11.543  18.340  0.00  0.00    +0.000 A 
ATOM      4  C   UNL     1      -1.428  12.697  18.786  0.00  0.00    +0.000 A 
ATOM      5  C   UNL     1      -0.284  12.235  19.404  0.00  0.00    +0.000 A 
ATOM      6  C   UNL     1       0.793  12.962  20.118  0.00  0.00    +0.000 C 
ENDROOT
BRANCH   3   7
ATOM      7  C   UNL     1      -3.437  11.514  17.669  0.00  0.00    +0.000 C 
ATOM      8  O   UNL     1      -3.511  11.430  16.444  0.00  0.00    +0.000 OA
ATOM      9  N   UNL     1      -4.590  11.590  18.475  0.00  0.00    +0.000 N 
ATOM     10  C   UNL     1      -5.872  11.488  17.784  0.00  0.00    +0.000 C 
ATOM     11  C   UNL     1      -7.046  11.213  18.742  0.00  0.00    +0.000 C 
ATOM     12  N   UNL     1      -7.124  12.114  19.910  0.00  0.00    +0.000 NA
ATOM     13  C   UNL     1      -7.541  13.462  19.529  0.00  0.00    +0.000 C 
ATOM     14  C   UNL     1      -5.820  12.119  20.600  0.00  0.00    +0.000 C 
ATOM     15  C   UNL     1      -4.606  12.405  19.697  0.00  0.00    +0.000 C 
ENDBRANCH   3   7
BRANCH   1  16
ATOM     16  C   UNL     1       0.644   9.892  19.718  0.00  0.00    +0.000 C 
BRANCH  16  18
ATOM     17  N   UNL     1       2.159   8.201  18.825  0.00  0.00    +0.000 N 
ATOM     18  C   UNL     1       1.562   9.425  18.613  0.00  0.00    +0.000 C 
ATOM     19  O   UNL     1       1.804  10.131  17.637  0.00  0.00    +0.000 OA
ATOM     20  H   UNL     1       1.706   7.579  19.491  0.00  0.00    +0.000 HD
BRANCH  17  21
ATOM     21  C   UNL     1       3.043   7.617  17.838  0.00  0.00    +0.000 C 
BRANCH  21  25
ATOM     22  C   UNL     1       4.074   3.524  18.797  0.00  0.00    +0.000 A 
ATOM     23  C   UNL     1       3.332   4.295  19.693  0.00  0.00    +0.000 A 
ATOM     24  C   UNL     1       2.991   5.615  19.385  0.00  0.00    +0.000 A 
ATOM     25  C   UNL     1       3.412   6.196  18.182  0.00  0.00    +0.000 A 
ATOM     26  C   UNL     1       4.170   5.418  17.292  0.00  0.00    +0.000 A 
ATOM     27  C   UNL     1       4.500   4.092  17.597  0.00  0.00    +0.000 A 
BRANCH  22  29
ATOM     28  C   UNL     1       3.597   1.217  18.590  0.00  0.00    +0.000 C 
ATOM     29  O   UNL     1       4.349   2.251  19.215  0.00  0.00    +0.000 OA
ENDBRANCH  22  29
ENDBRANCH  21  25
ENDBRANCH  17  21
ENDBRANCH  16  18
ENDBRANCH   1  16
TORSDOF 6
ENDMDL
MODEL 8
REMARK VINA RESULT:      -7.1      6.383      7.313
REMARK  Name = 
REMARK  9 active torsions:
REMARK  status: ('A' for Active; 'I' for Inactive)
REMARK    1  A    between atoms: C_1  and  O_2
REMARK    2  A    between atoms: O_2  and  C_3
REMARK    3  A    between atoms: C_6  and  C_7
REMARK    4  A    between atoms: C_7  and  N_8
REMARK    5  A    between atoms: C_9  and  C_11
REMARK    6  A    between atoms: C_11  and  N_12
REMARK    7  A    between atoms: C_14  and  C_15
REMARK    8  A    between atoms: N_20  and  C_21
REMARK    9  A    between atoms: C_25  and  C_26
REMARK                            x       y       z     vdW  Elec       q    Type
REMARK                         _______ _______ _______ _____ _____    ______ ____
ROOT
ATOM      1  N   UNL     1       0.978   9.635  19.668  0.00  0.00    +0.000 N 
ATOM      2  N   UNL     1       1.667   9.142  18.621  0.00  0.00    +0.000 NA
ATOM      3  C   UNL     1       2.181   7.979  19.065  0.00  0.00    +0.000 A 
ATOM      4  C   UNL     1       1.711   7.701  20.375  0.00  0.00    +0.000 A 
ATOM      5  C   UNL     1       0.978   8.805  20.758  0.00  0.00    +0.000 A 
ATOM      6  C   UNL     1       0.301   9.124  22.038  0.00  0.00    +0.000 C 
ENDROOT
BRANCH   3   7
ATOM      7  C   UNL     1       3.062   7.123  18.247  0.00  0.00    +0.000 C 
ATOM      8  O   UNL     1       3.664   7.589  17.281  0.00  0.00    +0.000 OA
ATOM      9  N   UNL     1       3.180   5.767  18.608  0.00  0.00    +0.000 N 
ATOM     10  C   UNL     1       4.114   4.965  17.820  0.00  0.00    +0.000 C 
ATOM     11  C   UNL     1       4.460   3.623  18.489  0.00  0.00    +0.000 C 
ATOM     12  N   UNL     1       3.297   2.828  18.934  0.00  0.00    +0.000 NA
ATOM     13  C   UNL     1       2.564   2.259  17.804  0.00  0.00    +0.000 C 
ATOM     14  C   UNL     1       2.432   3.674  19.778  0.00  0.00    +0.000 C 
ATOM     15  C   UNL     1       2.036   5.026  19.156  0.00  0.00    +0.000 C 
ENDBRANCH   3   7
BRANCH   1  16
ATOM     16  C   UNL     1       0.376  10.946  19.531  0.00  0.00    +0.000 C 
BRANCH  16  18
ATOM     17  N   UNL     1       2.122  12.592  19.091  0.00  0.00    +0.000 N 
ATOM     18  C   UNL     1       1.292  12.034  20.040  0.00  0.00    +0.000 C 
ATOM     19  O   UNL     1       1.331  12.337  21.229  0.00  0.00    +0.000 OA
ATOM     20  H   UNL     1       1.840  12.492  18.118  0.00  0.00    +0.000 HD
BRANCH  17  21
ATOM     21  C   UNL     1       3.035  13.664  19.430  0.00  0.00    +0.000 C 
BRANCH  21  25
ATOM     22  C   UNL     1       1.887  17.441  17.656  0.00  0.00    +0.000 A 
ATOM     23  C   UNL     1       1.143  16.896  18.704  0.00  0.00    +0.000 A 
ATOM     24  C   UNL     1       1.514  15.681  19.285  0.00  0.00    +0.000 A 
ATOM     25  C   UNL     1       2.624  14.973  18.806  0.00  0.00    +0.000 A 
ATOM     26  C   UNL     1       3.358  15.520  17.742  0.00  0.00    +0.000 A 
ATOM     27  C   UNL     1       2.993  16.745  17.170  0.00  0.00    +0.000 A 
BRANCH  22  29
ATOM     28  C   UNL     1       0.326  18.544  16.263  0.00  0.00    +0.000 C 
ATOM     29  O   UNL     1       1.421  18.631  17.169  0.00  0.00    +0.000 OA
ENDBRANCH  22  29
ENDBRANCH  21  25
ENDBRANCH  17  21
ENDBRANCH  16  18
ENDBRANCH   1  16
TORSDOF 6
ENDMDL
MODEL 9
REMARK VINA RESULT:      -7.0      7.896     10.816
REMARK  Name = 
REMARK  9 active torsions:
REMARK  status: ('A' for Active; 'I' for Inactive)
REMARK    1  A    between atoms: C_1  and  O_2
REMARK    2  A    between atoms: O_2  and  C_3
REMARK    3  A    between atoms: C_6  and  C_7
REMARK    4  A    between atoms: C_7  and  N_8
REMARK    5  A    between atoms: C_9  and  C_11
REMARK    6  A    between atoms: C_11  and  N_12
REMARK    7  A    between atoms: C_14  and  C_15
REMARK    8  A    between atoms: N_20  and  C_21
REMARK    9  A    between atoms: C_25  and  C_26
REMARK                            x       y       z     vdW  Elec       q    Type
REMARK                         _______ _______ _______ _____ _____    ______ ____
ROOT
ATOM      1  N   UNL     1      -0.741  10.866  20.592  0.00  0.00    +0.000 N 
ATOM      2  N   UNL     1      -1.081  12.137  20.879  0.00  0.00    +0.000 NA
ATOM      3  C   UNL     1      -1.151  12.178  22.224  0.00  0.00    +0.000 A 
ATOM      4  C   UNL     1      -0.741  10.936  22.776  0.00  0.00    +0.000 A 
ATOM      5  C   UNL     1      -0.529  10.095  21.704  0.00  0.00    +0.000 A 
ATOM      6  C   UNL     1      -0.155   8.661  21.655  0.00  0.00    +0.000 C 
ENDROOT
BRANCH   3   7
ATOM      7  C   UNL     1      -1.551  13.384  22.973  0.00  0.00    +0.000 C 
ATOM      8  O   UNL     1      -0.804  13.867  23.823  0.00  0.00    +0.000 OA
ATOM      9  N   UNL     1      -2.808  13.950  22.686  0.00  0.00    +0.000 N 
ATOM     10  C   UNL     1      -3.142  15.182  23.396  0.00  0.00    +0.000 C 
ATOM     11  C   UNL     1      -4.339  15.924  22.774  0.00  0.00    +0.000 C 
ATOM     12  N   UNL     1      -5.535  15.090  22.533  0.00  0.00    +0.000 NA
ATOM     13  C   UNL     1      -6.203  14.726  23.780  0.00  0.00    +0.000 C 
ATOM     14  C   UNL     1      -5.140  13.900  21.755  0.00  0.00    +0.000 C 
ATOM     15  C   UNL     1      -3.958  13.104  22.337  0.00  0.00    +0.000 C 
ENDBRANCH   3   7
BRANCH   1  16
ATOM     16  C   UNL     1      -0.677  10.476  19.197  0.00  0.00    +0.000 C 
BRANCH  16  18
ATOM     17  N   UNL     1       1.091   9.118  18.205  0.00  0.00    +0.000 N 
ATOM     18  C   UNL     1       0.751  10.350  18.720  0.00  0.00    +0.000 C 
ATOM     19  O   UNL     1       1.557  11.268  18.856  0.00  0.00    +0.000 OA
ATOM     20  H   UNL     1       0.327   8.531  17.878  0.00  0.00    +0.000 HD
BRANCH  17  21
ATOM     21  C   UNL     1       2.418   8.862  17.687  0.00  0.00    +0.000 C 
BRANCH  21  25
ATOM     22  C   UNL     1       3.968   5.047  19.022  0.00  0.00    +0.000 A 
ATOM     23  C   UNL     1       2.946   5.682  19.729  0.00  0.00    +0.000 A 
ATOM     24  C   UNL     1       2.437   6.911  19.298  0.00  0.00    +0.000 A 
ATOM     25  C   UNL     1       2.965   7.539  18.163  0.00  0.00    +0.000 A 
ATOM     26  C   UNL     1       4.002   6.901  17.465  0.00  0.00    +0.000 A 
ATOM     27  C   UNL     1       4.502   5.664  17.892  0.00  0.00    +0.000 A 
BRANCH  22  29
ATOM     28  C   UNL     1       3.906   2.687  18.887  0.00  0.00    +0.000 C 
ATOM     29  O   UNL     1       4.383   3.855  19.546  0.00  0.00    +0.000 OA
ENDBRANCH  22  29
ENDBRANCH  21  25
ENDBRANCH  17  21
ENDBRANCH  16  18
ENDBRANCH   1  16
TORSDOF 6
ENDMDL
