MODEL 1
REMARK VINA RESULT:      -6.9      0.000      0.000
REMARK  Name = 
REMARK  6 active torsions:
REMARK  status: ('A' for Active; 'I' for Inactive)
REMARK    1  A    between atoms: C_1  and  O_2
REMARK    2  A    between atoms: O_2  and  C_3
REMARK    3  A    between atoms: C_8  and  N_9
REMARK    4  A    between atoms: N_9  and  C_10
REMARK    5  A    between atoms: C_10  and  C_11
REMARK    6  A    between atoms: C_13  and  C_14
REMARK                            x       y       z     vdW  Elec       q    Type
REMARK                         _______ _______ _______ _____ _____    ______ ____
ROOT
ATOM      1  C   UNL     1       4.191   3.588  16.799  0.00  0.00    +0.000 C 
ENDROOT
BRANCH   1   2
ATOM      2  C   UNL     1       3.323   3.699  18.025  0.00  0.00    +0.000 A 
ATOM      3  C   UNL     1       3.431   3.012  19.219  0.00  0.00    +0.000 A 
ATOM      4  C   UNL     1       2.375   3.309  20.153  0.00  0.00    +0.000 A 
ATOM      5  C   UNL     1       1.520   4.253  19.610  0.00  0.00    +0.000 A 
ATOM      6  S   UNL     1       1.979   4.756  18.041  0.00  0.00    +0.000 S 
BRANCH   4   7
ATOM      7  C   UNL     1       2.249   2.680  21.466  0.00  0.00    +0.000 C 
ATOM      8  N   UNL     1       1.008   2.663  22.035  0.00  0.00    +0.000 N 
ATOM      9  O   UNL     1       3.197   2.172  22.055  0.00  0.00    +0.000 OA
ATOM     10  H   UNL     1       0.183   3.059  21.615  0.00  0.00    +0.000 HD
ATOM     11  H   UNL     1       0.927   2.226  22.943  0.00  0.00    +0.000 HD
ENDBRANCH   4   7
ENDBRANCH   1   2
BRANCH   1  12
ATOM     12  N   UNL     1       5.605   3.615  17.065  0.00  0.00    +0.000 N 
ATOM     13  H   UNL     1       6.142   2.760  17.003  0.00  0.00    +0.000 HD
BRANCH  12  19
ATOM     14  C   UNL     1       6.702   5.786  16.606  0.00  0.00    +0.000 A 
ATOM     15  C   UNL     1       7.460   6.829  17.154  0.00  0.00    +0.000 A 
ATOM     16  C   UNL     1       7.856   6.774  18.484  0.00  0.00    +0.000 A 
ATOM     17  C   UNL     1       7.469   5.679  19.227  0.00  0.00    +0.000 A 
ATOM     18  N   UNL     1       6.728   4.662  18.738  0.00  0.00    +0.000 NA
ATOM     19  C   UNL     1       6.341   4.708  17.440  0.00  0.00    +0.000 A 
BRANCH  14  21
ATOM     20  C   UNL     1       6.986   5.011  14.373  0.00  0.00    +0.000 C 
ATOM     21  O   UNL     1       6.258   5.796  15.308  0.00  0.00    +0.000 OA
ENDBRANCH  14  21
ENDBRANCH  12  19
ENDBRANCH   1  12
TORSDOF 5
ENDMDL
MODEL 2
REMARK VINA RESULT:      -6.7      2.473      6.219
REMARK  Name = 
REMARK  6 active torsions:
REMARK  status: ('A' for Active; 'I' for Inactive)
REMARK    1  A    between atoms: C_1  and  O_2
REMARK    2  A    between atoms: O_2  and  C_3
REMARK    3  A    between atoms: C_8  and  N_9
REMARK    4  A    between atoms: N_9  and  C_10
REMARK    5  A    between atoms: C_10  and  C_11
REMARK    6  A    between atoms: C_13  and  C_14
REMARK                            x       y       z     vdW  Elec       q    Type
REMARK                         _______ _______ _______ _____ _____    ______ ____
ROOT
ATOM      1  C   UNL     1       3.259   6.503  18.075  0.00  0.00    +0.000 C 
ENDROOT
BRANCH   1   2
ATOM      2  C   UNL     1       4.546   5.909  17.565  0.00  0.00    +0.000 A 
ATOM      3  C   UNL     1       4.967   5.766  16.256  0.00  0.00    +0.000 A 
ATOM      4  C   UNL     1       6.225   5.075  16.127  0.00  0.00    +0.000 A 
ATOM      5  C   UNL     1       6.714   4.751  17.381  0.00  0.00    +0.000 A 
ATOM      6  S   UNL     1       5.693   5.263  18.655  0.00  0.00    +0.000 S 
BRANCH   4   7
ATOM      7  C   UNL     1       6.857   4.769  14.845  0.00  0.00    +0.000 C 
ATOM      8  N   UNL     1       6.396   3.678  14.165  0.00  0.00    +0.000 N 
ATOM      9  O   UNL     1       7.760   5.448  14.368  0.00  0.00    +0.000 OA
ATOM     10  H   UNL     1       5.660   3.073  14.491  0.00  0.00    +0.000 HD
ATOM     11  H   UNL     1       6.836   3.472  13.278  0.00  0.00    +0.000 HD
ENDBRANCH   4   7
ENDBRANCH   1   2
BRANCH   1  12
ATOM     12  N   UNL     1       2.187   5.555  18.234  0.00  0.00    +0.000 N 
ATOM     13  H   UNL     1       1.424   5.549  17.572  0.00  0.00    +0.000 HD
BRANCH  12  19
ATOM     14  C   UNL     1       1.770   3.265  19.074  0.00  0.00    +0.000 A 
ATOM     15  C   UNL     1       1.675   2.460  20.217  0.00  0.00    +0.000 A 
ATOM     16  C   UNL     1       1.842   3.020  21.477  0.00  0.00    +0.000 A 
ATOM     17  C   UNL     1       2.113   4.371  21.550  0.00  0.00    +0.000 A 
ATOM     18  N   UNL     1       2.225   5.175  20.472  0.00  0.00    +0.000 NA
ATOM     19  C   UNL     1       2.059   4.634  19.240  0.00  0.00    +0.000 A 
BRANCH  14  21
ATOM     20  C   UNL     1       2.772   2.099  17.257  0.00  0.00    +0.000 C 
ATOM     21  O   UNL     1       1.641   2.764  17.803  0.00  0.00    +0.000 OA
ENDBRANCH  14  21
ENDBRANCH  12  19
ENDBRANCH   1  12
TORSDOF 5
ENDMDL
MODEL 3
REMARK VINA RESULT:      -6.7      2.252      6.389
REMARK  Name = 
REMARK  6 active torsions:
REMARK  status: ('A' for Active; 'I' for Inactive)
REMARK    1  A    between atoms: C_1  and  O_2
REMARK    2  A    between atoms: O_2  and  C_3
REMARK    3  A    between atoms: C_8  and  N_9
REMARK    4  A    between atoms: N_9  and  C_10
REMARK    5  A    between atoms: C_10  and  C_11
REMARK    6  A    between atoms: C_13  and  C_14
REMARK                            x       y       z     vdW  Elec       q    Type
REMARK                         _______ _______ _______ _____ _____    ______ ____
ROOT
ATOM      1  C   UNL     1       5.700   4.626  19.154  0.00  0.00    +0.000 C 
ENDROOT
BRANCH   1   2
ATOM      2  C   UNL     1       5.656   5.008  17.697  0.00  0.00    +0.000 A 
ATOM      3  C   UNL     1       6.332   4.435  16.638  0.00  0.00    +0.000 A 
ATOM      4  C   UNL     1       6.117   5.110  15.383  0.00  0.00    +0.000 A 
ATOM      5  C   UNL     1       5.242   6.167  15.562  0.00  0.00    +0.000 A 
ATOM      6  S   UNL     1       4.706   6.332  17.179  0.00  0.00    +0.000 S 
BRANCH   4   7
ATOM      7  C   UNL     1       6.753   4.715  14.127  0.00  0.00    +0.000 C 
ATOM      8  N   UNL     1       6.345   3.542  13.561  0.00  0.00    +0.000 N 
ATOM      9  O   UNL     1       7.615   5.392  13.575  0.00  0.00    +0.000 OA
ATOM     10  H   UNL     1       5.645   2.933  13.953  0.00  0.00    +0.000 HD
ATOM     11  H   UNL     1       6.788   3.275  12.692  0.00  0.00    +0.000 HD
ENDBRANCH   4   7
ENDBRANCH   1   2
BRANCH   1  12
ATOM     12  N   UNL     1       4.997   3.412  19.473  0.00  0.00    +0.000 N 
ATOM     13  H   UNL     1       5.500   2.635  19.880  0.00  0.00    +0.000 HD
BRANCH  12  19
ATOM     14  C   UNL     1       2.589   3.882  19.801  0.00  0.00    +0.000 A 
ATOM     15  C   UNL     1       1.286   3.490  19.468  0.00  0.00    +0.000 A 
ATOM     16  C   UNL     1       1.081   2.398  18.635  0.00  0.00    +0.000 A 
ATOM     17  C   UNL     1       2.192   1.740  18.150  0.00  0.00    +0.000 A 
ATOM     18  N   UNL     1       3.462   2.097  18.437  0.00  0.00    +0.000 NA
ATOM     19  C   UNL     1       3.668   3.160  19.252  0.00  0.00    +0.000 A 
BRANCH  14  21
ATOM     20  C   UNL     1       1.953   6.063  20.511  0.00  0.00    +0.000 C 
ATOM     21  O   UNL     1       2.855   4.968  20.597  0.00  0.00    +0.000 OA
ENDBRANCH  14  21
ENDBRANCH  12  19
ENDBRANCH   1  12
TORSDOF 5
ENDMDL
MODEL 4
REMARK VINA RESULT:      -6.5      2.225      6.189
REMARK  Name = 
REMARK  6 active torsions:
REMARK  status: ('A' for Active; 'I' for Inactive)
REMARK    1  A    between atoms: C_1  and  O_2
REMARK    2  A    between atoms: O_2  and  C_3
REMARK    3  A    between atoms: C_8  and  N_9
REMARK    4  A    between atoms: N_9  and  C_10
REMARK    5  A    between atoms: C_10  and  C_11
REMARK    6  A    between atoms: C_13  and  C_14
REMARK                            x       y       z     vdW  Elec       q    Type
REMARK                         _______ _______ _______ _____ _____    ______ ____
ROOT
ATOM      1  C   UNL     1       5.764   4.185  19.275  0.00  0.00    +0.000 C 
ENDROOT
BRANCH   1   2
ATOM      2  C   UNL     1       5.727   4.715  17.866  0.00  0.00    +0.000 A 
ATOM      3  C   UNL     1       6.385   4.234  16.750  0.00  0.00    +0.000 A 
ATOM      4  C   UNL     1       6.186   5.040  15.572  0.00  0.00    +0.000 A 
ATOM      5  C   UNL     1       5.343   6.097  15.863  0.00  0.00    +0.000 A 
ATOM      6  S   UNL     1       4.815   6.111  17.490  0.00  0.00    +0.000 S 
BRANCH   4   7
ATOM      7  C   UNL     1       6.809   4.758  14.279  0.00  0.00    +0.000 C 
ATOM      8  N   UNL     1       6.344   3.678  13.584  0.00  0.00    +0.000 N 
ATOM      9  O   UNL     1       7.706   5.448  13.807  0.00  0.00    +0.000 OA
ATOM     10  H   UNL     1       5.613   3.065  13.905  0.00  0.00    +0.000 HD
ATOM     11  H   UNL     1       6.777   3.489  12.690  0.00  0.00    +0.000 HD
ENDBRANCH   4   7
ENDBRANCH   1   2
BRANCH   1  12
ATOM     12  N   UNL     1       5.032   2.961  19.471  0.00  0.00    +0.000 N 
ATOM     13  H   UNL     1       5.489   2.074  19.308  0.00  0.00    +0.000 HD
BRANCH  12  19
ATOM     14  C   UNL     1       2.631   2.628  18.972  0.00  0.00    +0.000 A 
ATOM     15  C   UNL     1       1.345   2.539  19.521  0.00  0.00    +0.000 A 
ATOM     16  C   UNL     1       1.162   2.691  20.890  0.00  0.00    +0.000 A 
ATOM     17  C   UNL     1       2.279   2.915  21.668  0.00  0.00    +0.000 A 
ATOM     18  N   UNL     1       3.534   2.994  21.176  0.00  0.00    +0.000 NA
ATOM     19  C   UNL     1       3.718   2.850  19.841  0.00  0.00    +0.000 A 
BRANCH  14  21
ATOM     20  C   UNL     1       2.422   3.487  16.762  0.00  0.00    +0.000 C 
ATOM     21  O   UNL     1       2.877   2.460  17.633  0.00  0.00    +0.000 OA
ENDBRANCH  14  21
ENDBRANCH  12  19
ENDBRANCH   1  12
TORSDOF 5
ENDMDL
MODEL 5
REMARK VINA RESULT:      -6.5      2.692      6.415
REMARK  Name = 
REMARK  6 active torsions:
REMARK  status: ('A' for Active; 'I' for Inactive)
REMARK    1  A    between atoms: C_1  and  O_2
REMARK    2  A    between atoms: O_2  and  C_3
REMARK    3  A    between atoms: C_8  and  N_9
REMARK    4  A    between atoms: N_9  and  C_10
REMARK    5  A    between atoms: C_10  and  C_11
REMARK    6  A    between atoms: C_13  and  C_14
REMARK                            x       y       z     vdW  Elec       q    Type
REMARK                         _______ _______ _______ _____ _____    ______ ____
ROOT
ATOM      1  C   UNL     1       3.980   6.558  17.791  0.00  0.00    +0.000 C 
ENDROOT
BRANCH   1   2
ATOM      2  C   UNL     1       5.121   5.871  17.088  0.00  0.00    +0.000 A 
ATOM      3  C   UNL     1       5.401   5.839  15.735  0.00  0.00    +0.000 A 
ATOM      4  C   UNL     1       6.534   5.013  15.400  0.00  0.00    +0.000 A 
ATOM      5  C   UNL     1       7.081   4.477  16.552  0.00  0.00    +0.000 A 
ATOM      6  S   UNL     1       6.258   4.953  17.975  0.00  0.00    +0.000 S 
BRANCH   4   7
ATOM      7  C   UNL     1       7.002   4.790  14.033  0.00  0.00    +0.000 C 
ATOM      8  N   UNL     1       8.014   5.588  13.580  0.00  0.00    +0.000 N 
ATOM      9  O   UNL     1       6.533   3.925  13.301  0.00  0.00    +0.000 OA
ATOM     10  H   UNL     1       8.448   6.318  14.120  0.00  0.00    +0.000 HD
ATOM     11  H   UNL     1       8.334   5.428  12.635  0.00  0.00    +0.000 HD
ENDBRANCH   4   7
ENDBRANCH   1   2
BRANCH   1  12
ATOM     12  N   UNL     1       2.773   5.778  17.869  0.00  0.00    +0.000 N 
ATOM     13  H   UNL     1       2.091   5.836  17.125  0.00  0.00    +0.000 HD
BRANCH  12  19
ATOM     14  C   UNL     1       2.349   3.540  18.839  0.00  0.00    +0.000 A 
ATOM     15  C   UNL     1       1.954   2.842  19.988  0.00  0.00    +0.000 A 
ATOM     16  C   UNL     1       1.609   3.537  21.139  0.00  0.00    +0.000 A 
ATOM     17  C   UNL     1       1.683   4.914  21.106  0.00  0.00    +0.000 A 
ATOM     18  N   UNL     1       2.072   5.620  20.023  0.00  0.00    +0.000 NA
ATOM     19  C   UNL     1       2.407   4.947  18.896  0.00  0.00    +0.000 A 
BRANCH  14  21
ATOM     20  C   UNL     1       3.453   1.693  17.821  0.00  0.00    +0.000 C 
ATOM     21  O   UNL     1       2.728   2.908  17.682  0.00  0.00    +0.000 OA
ENDBRANCH  14  21
ENDBRANCH  12  19
ENDBRANCH   1  12
TORSDOF 5
ENDMDL
MODEL 6
REMARK VINA RESULT:      -6.5      2.652      5.870
REMARK  Name = 
REMARK  6 active torsions:
REMARK  status: ('A' for Active; 'I' for Inactive)
REMARK    1  A    between atoms: C_1  and  O_2
REMARK    2  A    between atoms: O_2  and  C_3
REMARK    3  A    between atoms: C_8  and  N_9
REMARK    4  A    between atoms: N_9  and  C_10
REMARK    5  A    between atoms: C_10  and  C_11
REMARK    6  A    between atoms: C_13  and  C_14
REMARK                            x       y       z     vdW  Elec       q    Type
REMARK                         _______ _______ _______ _____ _____    ______ ____
ROOT
ATOM      1  C   UNL     1       3.617   3.992  16.736  0.00  0.00    +0.000 C 
ENDROOT
BRANCH   1   2
ATOM      2  C   UNL     1       5.048   4.330  17.064  0.00  0.00    +0.000 A 
ATOM      3  C   UNL     1       5.555   4.887  18.223  0.00  0.00    +0.000 A 
ATOM      4  C   UNL     1       6.970   5.152  18.163  0.00  0.00    +0.000 A 
ATOM      5  C   UNL     1       7.474   4.743  16.941  0.00  0.00    +0.000 A 
ATOM      6  S   UNL     1       6.285   4.067  15.914  0.00  0.00    +0.000 S 
BRANCH   4   7
ATOM      7  C   UNL     1       7.728   5.774  19.249  0.00  0.00    +0.000 C 
ATOM      8  N   UNL     1       8.351   6.958  18.978  0.00  0.00    +0.000 N 
ATOM      9  O   UNL     1       7.811   5.282  20.369  0.00  0.00    +0.000 OA
ATOM     10  H   UNL     1       8.329   7.422  18.085  0.00  0.00    +0.000 HD
ATOM     11  H   UNL     1       8.873   7.383  19.732  0.00  0.00    +0.000 HD
ENDBRANCH   4   7
ENDBRANCH   1   2
BRANCH   1  12
ATOM     12  N   UNL     1       2.646   4.614  17.597  0.00  0.00    +0.000 N 
ATOM     13  H   UNL     1       2.174   5.454  17.293  0.00  0.00    +0.000 HD
BRANCH  12  19
ATOM     14  C   UNL     1       2.325   4.980  20.024  0.00  0.00    +0.000 A 
ATOM     15  C   UNL     1       1.920   4.394  21.231  0.00  0.00    +0.000 A 
ATOM     16  C   UNL     1       1.517   3.065  21.256  0.00  0.00    +0.000 A 
ATOM     17  C   UNL     1       1.520   2.367  20.066  0.00  0.00    +0.000 A 
ATOM     18  N   UNL     1       1.890   2.902  18.883  0.00  0.00    +0.000 NA
ATOM     19  C   UNL     1       2.288   4.197  18.853  0.00  0.00    +0.000 A 
BRANCH  14  21
ATOM     20  C   UNL     1       1.797   7.265  20.430  0.00  0.00    +0.000 C 
ATOM     21  O   UNL     1       2.707   6.294  19.931  0.00  0.00    +0.000 OA
ENDBRANCH  14  21
ENDBRANCH  12  19
ENDBRANCH   1  12
TORSDOF 5
ENDMDL
MODEL 7
REMARK VINA RESULT:      -6.5      2.411      5.740
REMARK  Name = 
REMARK  6 active torsions:
REMARK  status: ('A' for Active; 'I' for Inactive)
REMARK    1  A    between atoms: C_1  and  O_2
REMARK    2  A    between atoms: O_2  and  C_3
REMARK    3  A    between atoms: C_8  and  N_9
REMARK    4  A    between atoms: N_9  and  C_10
REMARK    5  A    between atoms: C_10  and  C_11
REMARK    6  A    between atoms: C_13  and  C_14
REMARK                            x       y       z     vdW  Elec       q    Type
REMARK                         _______ _______ _______ _____ _____    ______ ____
ROOT
ATOM      1  C   UNL     1       3.838   3.167  17.536  0.00  0.00    +0.000 C 
ENDROOT
BRANCH   1   2
ATOM      2  C   UNL     1       5.096   3.989  17.444  0.00  0.00    +0.000 A 
ATOM      3  C   UNL     1       5.827   4.558  18.469  0.00  0.00    +0.000 A 
ATOM      4  C   UNL     1       6.939   5.353  18.013  0.00  0.00    +0.000 A 
ATOM      5  C   UNL     1       7.007   5.315  16.631  0.00  0.00    +0.000 A 
ATOM      6  S   UNL     1       5.779   4.358  15.921  0.00  0.00    +0.000 S 
BRANCH   4   7
ATOM      7  C   UNL     1       7.836   6.086  18.905  0.00  0.00    +0.000 C 
ATOM      8  N   UNL     1       8.164   5.491  20.089  0.00  0.00    +0.000 N 
ATOM      9  O   UNL     1       8.298   7.187  18.626  0.00  0.00    +0.000 OA
ATOM     10  H   UNL     1       7.824   4.591  20.388  0.00  0.00    +0.000 HD
ATOM     11  H   UNL     1       8.785   6.002  20.701  0.00  0.00    +0.000 HD
ENDBRANCH   4   7
ENDBRANCH   1   2
BRANCH   1  12
ATOM     12  N   UNL     1       2.628   3.939  17.648  0.00  0.00    +0.000 N 
ATOM     13  H   UNL     1       1.873   3.784  16.995  0.00  0.00    +0.000 HD
BRANCH  12  19
ATOM     14  C   UNL     1       1.860   4.742  19.860  0.00  0.00    +0.000 A 
ATOM     15  C   UNL     1       1.666   5.868  20.670  0.00  0.00    +0.000 A 
ATOM     16  C   UNL     1       1.962   7.134  20.181  0.00  0.00    +0.000 A 
ATOM     17  C   UNL     1       2.457   7.229  18.897  0.00  0.00    +0.000 A 
ATOM     18  N   UNL     1       2.669   6.166  18.092  0.00  0.00    +0.000 NA
ATOM     19  C   UNL     1       2.378   4.929  18.563  0.00  0.00    +0.000 A 
BRANCH  14  21
ATOM     20  C   UNL     1       2.540   2.908  21.218  0.00  0.00    +0.000 C 
ATOM     21  O   UNL     1       1.611   3.465  20.297  0.00  0.00    +0.000 OA
ENDBRANCH  14  21
ENDBRANCH  12  19
ENDBRANCH   1  12
TORSDOF 5
ENDMDL
MODEL 8
REMARK VINA RESULT:      -6.4      2.343      6.086
REMARK  Name = 
REMARK  6 active torsions:
REMARK  status: ('A' for Active; 'I' for Inactive)
REMARK    1  A    between atoms: C_1  and  O_2
REMARK    2  A    between atoms: O_2  and  C_3
REMARK    3  A    between atoms: C_8  and  N_9
REMARK    4  A    between atoms: N_9  and  C_10
REMARK    5  A    between atoms: C_10  and  C_11
REMARK    6  A    between atoms: C_13  and  C_14
REMARK                            x       y       z     vdW  Elec       q    Type
REMARK                         _______ _______ _______ _____ _____    ______ ____
ROOT
ATOM      1  C   UNL     1       4.131   3.256  17.114  0.00  0.00    +0.000 C 
ENDROOT
BRANCH   1   2
ATOM      2  C   UNL     1       5.303   4.162  16.840  0.00  0.00    +0.000 A 
ATOM      3  C   UNL     1       5.847   5.134  17.659  0.00  0.00    +0.000 A 
ATOM      4  C   UNL     1       6.919   5.874  17.042  0.00  0.00    +0.000 A 
ATOM      5  C   UNL     1       7.152   5.388  15.767  0.00  0.00    +0.000 A 
ATOM      6  S   UNL     1       6.118   4.093  15.340  0.00  0.00    +0.000 S 
BRANCH   4   7
ATOM      7  C   UNL     1       7.626   6.976  17.693  0.00  0.00    +0.000 C 
ATOM      8  N   UNL     1       8.184   6.727  18.913  0.00  0.00    +0.000 N 
ATOM      9  O   UNL     1       7.738   8.087  17.185  0.00  0.00    +0.000 OA
ATOM     10  H   UNL     1       8.134   5.843  19.393  0.00  0.00    +0.000 HD
ATOM     11  H   UNL     1       8.673   7.492  19.358  0.00  0.00    +0.000 HD
ENDBRANCH   4   7
ENDBRANCH   1   2
BRANCH   1  12
ATOM     12  N   UNL     1       2.992   3.914  17.697  0.00  0.00    +0.000 N 
ATOM     13  H   UNL     1       2.450   4.561  17.141  0.00  0.00    +0.000 HD
BRANCH  12  19
ATOM     14  C   UNL     1       2.696   4.742  20.011  0.00  0.00    +0.000 A 
ATOM     15  C   UNL     1       2.182   4.446  21.280  0.00  0.00    +0.000 A 
ATOM     16  C   UNL     1       1.567   3.222  21.512  0.00  0.00    +0.000 A 
ATOM     17  C   UNL     1       1.476   2.337  20.458  0.00  0.00    +0.000 A 
ATOM     18  N   UNL     1       1.947   2.592  19.219  0.00  0.00    +0.000 NA
ATOM     19  C   UNL     1       2.551   3.783  18.988  0.00  0.00    +0.000 A 
BRANCH  14  21
ATOM     20  C   UNL     1       2.423   7.026  19.400  0.00  0.00    +0.000 C 
ATOM     21  O   UNL     1       3.288   5.943  19.714  0.00  0.00    +0.000 OA
ENDBRANCH  14  21
ENDBRANCH  12  19
ENDBRANCH   1  12
TORSDOF 5
ENDMDL
MODEL 9
REMARK VINA RESULT:      -6.4      2.410      6.369
REMARK  Name = 
REMARK  6 active torsions:
REMARK  status: ('A' for Active; 'I' for Inactive)
REMARK    1  A    between atoms: C_1  and  O_2
REMARK    2  A    between atoms: O_2  and  C_3
REMARK    3  A    between atoms: C_8  and  N_9
REMARK    4  A    between atoms: N_9  and  C_10
REMARK    5  A    between atoms: C_10  and  C_11
REMARK    6  A    between atoms: C_13  and  C_14
REMARK                            x       y       z     vdW  Elec       q    Type
REMARK                         _______ _______ _______ _____ _____    ______ ____
ROOT
ATOM      1  C   UNL     1       4.206   6.296  18.283  0.00  0.00    +0.000 C 
ENDROOT
BRANCH   1   2
ATOM      2  C   UNL     1       5.328   5.737  17.448  0.00  0.00    +0.000 A 
ATOM      3  C   UNL     1       5.397   5.616  16.073  0.00  0.00    +0.000 A 
ATOM      4  C   UNL     1       6.592   4.957  15.611  0.00  0.00    +0.000 A 
ATOM      5  C   UNL     1       7.397   4.634  16.690  0.00  0.00    +0.000 A 
ATOM      6  S   UNL     1       6.733   5.110  18.193  0.00  0.00    +0.000 S 
BRANCH   4   7
ATOM      7  C   UNL     1       6.876   4.676  14.204  0.00  0.00    +0.000 C 
ATOM      8  N   UNL     1       6.295   3.568  13.658  0.00  0.00    +0.000 N 
ATOM      9  O   UNL     1       7.593   5.392  13.514  0.00  0.00    +0.000 OA
ATOM     10  H   UNL     1       5.695   2.933  14.160  0.00  0.00    +0.000 HD
ATOM     11  H   UNL     1       6.493   3.380  12.685  0.00  0.00    +0.000 HD
ENDBRANCH   4   7
ENDBRANCH   1   2
BRANCH   1  12
ATOM     12  N   UNL     1       4.009   5.624  19.541  0.00  0.00    +0.000 N 
ATOM     13  H   UNL     1       4.639   5.806  20.309  0.00  0.00    +0.000 HD
BRANCH  12  19
ATOM     14  C   UNL     1       3.105   3.319  19.548  0.00  0.00    +0.000 A 
ATOM     15  C   UNL     1       2.017   2.513  19.908  0.00  0.00    +0.000 A 
ATOM     16  C   UNL     1       0.897   3.082  20.501  0.00  0.00    +0.000 A 
ATOM     17  C   UNL     1       0.909   4.442  20.726  0.00  0.00    +0.000 A 
ATOM     18  N   UNL     1       1.943   5.249  20.406  0.00  0.00    +0.000 NA
ATOM     19  C   UNL     1       3.037   4.699  19.824  0.00  0.00    +0.000 A 
BRANCH  14  21
ATOM     20  C   UNL     1       4.135   2.274  17.674  0.00  0.00    +0.000 C 
ATOM     21  O   UNL     1       4.248   2.811  18.985  0.00  0.00    +0.000 OA
ENDBRANCH  14  21
ENDBRANCH  12  19
ENDBRANCH   1  12
TORSDOF 5
ENDMDL
