MODEL 1
REMARK VINA RESULT:      -8.5      0.000      0.000
REMARK  Name = 
REMARK  6 active torsions:
REMARK  status: ('A' for Active; 'I' for Inactive)
REMARK    1  A    between atoms: C_6  and  N_7
REMARK    2  A    between atoms: C_9  and  C_10
REMARK    3  A    between atoms: C_10  and  N_11
REMARK    4  A    between atoms: C_16  and  C_17
REMARK    5  A    between atoms: C_17  and  C_18
REMARK    6  A    between atoms: C_18  and  N_19
REMARK                            x       y       z     vdW  Elec       q    Type
REMARK                         _______ _______ _______ _____ _____    ______ ____
ROOT
ATOM      1  C   UNL     1       4.879   4.195  19.069  0.00  0.00    +0.000 C 
ENDROOT
BRANCH   1   2
ATOM      2  N   UNL     1       3.585   3.599  18.702  0.00  0.00    +0.000 NA
ATOM      3  C   UNL     1       3.187   2.513  19.615  0.00  0.00    +0.000 C 
ATOM      4  C   UNL     1       1.909   1.799  19.167  0.00  0.00    +0.000 C 
ATOM      5  C   UNL     1       0.776   2.780  18.911  0.00  0.00    +0.000 C 
ATOM      6  C   UNL     1       1.253   3.864  17.950  0.00  0.00    +0.000 C 
ATOM      7  C   UNL     1       2.515   4.599  18.476  0.00  0.00    +0.000 C 
BRANCH   7   8
ATOM      8  C   UNL     1       2.090   5.526  19.650  0.00  0.00    +0.000 C 
BRANCH   8   9
ATOM      9  C   UNL     1       2.864   6.830  19.819  0.00  0.00    +0.000 C 
BRANCH   9  10
ATOM     10  N   UNL     1       2.250   7.926  19.097  0.00  0.00    +0.000 N 
ATOM     11  C   UNL     1       1.365   8.828  19.623  0.00  0.00    +0.000 A 
ATOM     12  C   UNL     1       1.117   9.712  18.601  0.00  0.00    +0.000 A 
ATOM     13  N   UNL     1       1.833   9.370  17.482  0.00  0.00    +0.000 NA
ATOM     14  C   UNL     1       2.515   8.299  17.814  0.00  0.00    +0.000 A 
ENDBRANCH   9  10
ENDBRANCH   8   9
ENDBRANCH   7   8
ENDBRANCH   1   2
BRANCH   1  17
ATOM     15  N   UNL     1       6.510   4.826  15.855  0.00  0.00    +0.000 N 
ATOM     16  C   UNL     1       5.349   4.785  16.591  0.00  0.00    +0.000 A 
ATOM     17  C   UNL     1       5.715   4.558  17.898  0.00  0.00    +0.000 A 
ATOM     18  C   UNL     1       7.116   4.729  17.885  0.00  0.00    +0.000 A 
ATOM     19  N   UNL     1       7.597   4.944  16.661  0.00  0.00    +0.000 NA
BRANCH  15  25
ATOM     20  F   UNL     1       5.408   2.460  11.840  0.00  0.00    +0.000 F 
ATOM     21  C   UNL     1       6.115   3.418  12.454  0.00  0.00    +0.000 A 
ATOM     22  C   UNL     1       7.083   4.119  11.747  0.00  0.00    +0.000 A 
ATOM     23  C   UNL     1       7.829   5.104  12.392  0.00  0.00    +0.000 A 
ATOM     24  C   UNL     1       7.613   5.368  13.746  0.00  0.00    +0.000 A 
ATOM     25  C   UNL     1       6.644   4.642  14.457  0.00  0.00    +0.000 A 
ATOM     26  C   UNL     1       5.880   3.671  13.798  0.00  0.00    +0.000 A 
ENDBRANCH  15  25
ENDBRANCH   1  17
TORSDOF 6
ENDMDL
MODEL 2
REMARK VINA RESULT:      -8.5      3.480      8.039
REMARK  Name = 
REMARK  6 active torsions:
REMARK  status: ('A' for Active; 'I' for Inactive)
REMARK    1  A    between atoms: C_6  and  N_7
REMARK    2  A    between atoms: C_9  and  C_10
REMARK    3  A    between atoms: C_10  and  N_11
REMARK    4  A    between atoms: C_16  and  C_17
REMARK    5  A    between atoms: C_17  and  C_18
REMARK    6  A    between atoms: C_18  and  N_19
REMARK                            x       y       z     vdW  Elec       q    Type
REMARK                         _______ _______ _______ _____ _____    ______ ____
ROOT
ATOM      1  C   UNL     1       2.747   6.066  17.938  0.00  0.00    +0.000 C 
ENDROOT
BRANCH   1   2
ATOM      2  N   UNL     1       2.251   4.933  18.735  0.00  0.00    +0.000 NA
ATOM      3  C   UNL     1       1.526   3.945  17.917  0.00  0.00    +0.000 C 
ATOM      4  C   UNL     1       0.893   2.830  18.755  0.00  0.00    +0.000 C 
ATOM      5  C   UNL     1       1.905   2.178  19.682  0.00  0.00    +0.000 C 
ATOM      6  C   UNL     1       2.606   3.254  20.505  0.00  0.00    +0.000 C 
ATOM      7  C   UNL     1       3.282   4.328  19.611  0.00  0.00    +0.000 C 
BRANCH   7   8
ATOM      8  C   UNL     1       4.548   3.699  18.961  0.00  0.00    +0.000 C 
BRANCH   8   9
ATOM      9  C   UNL     1       5.826   4.533  18.985  0.00  0.00    +0.000 C 
BRANCH   9  10
ATOM     10  N   UNL     1       6.306   4.833  17.652  0.00  0.00    +0.000 N 
ATOM     11  C   UNL     1       5.867   4.245  16.497  0.00  0.00    +0.000 A 
ATOM     12  C   UNL     1       6.547   4.892  15.493  0.00  0.00    +0.000 A 
ATOM     13  N   UNL     1       7.376   5.854  16.014  0.00  0.00    +0.000 NA
ATOM     14  C   UNL     1       7.200   5.804  17.314  0.00  0.00    +0.000 A 
ENDBRANCH   9  10
ENDBRANCH   8   9
ENDBRANCH   7   8
ENDBRANCH   1   2
BRANCH   1  17
ATOM     15  N   UNL     1       1.510   9.014  19.716  0.00  0.00    +0.000 N 
ATOM     16  C   UNL     1       2.142   7.794  19.770  0.00  0.00    +0.000 A 
ATOM     17  C   UNL     1       2.330   7.388  18.469  0.00  0.00    +0.000 A 
ATOM     18  C   UNL     1       2.011   8.536  17.712  0.00  0.00    +0.000 A 
ATOM     19  N   UNL     1       1.564   9.540  18.465  0.00  0.00    +0.000 NA
BRANCH  15  25
ATOM     20  F   UNL     1       0.036   9.193  24.270  0.00  0.00    +0.000 F 
ATOM     21  C   UNL     1      -0.001   9.693  23.027  0.00  0.00    +0.000 A 
ATOM     22  C   UNL     1      -0.883  10.723  22.727  0.00  0.00    +0.000 A 
ATOM     23  C   UNL     1      -0.932  11.232  21.429  0.00  0.00    +0.000 A 
ATOM     24  C   UNL     1      -0.110  10.693  20.437  0.00  0.00    +0.000 A 
ATOM     25  C   UNL     1       0.766   9.640  20.747  0.00  0.00    +0.000 A 
ATOM     26  C   UNL     1       0.829   9.150  22.057  0.00  0.00    +0.000 A 
ENDBRANCH  15  25
ENDBRANCH   1  17
TORSDOF 6
ENDMDL
MODEL 3
REMARK VINA RESULT:      -8.3      3.629      8.250
REMARK  Name = 
REMARK  6 active torsions:
REMARK  status: ('A' for Active; 'I' for Inactive)
REMARK    1  A    between atoms: C_6  and  N_7
REMARK    2  A    between atoms: C_9  and  C_10
REMARK    3  A    between atoms: C_10  and  N_11
REMARK    4  A    between atoms: C_16  and  C_17
REMARK    5  A    between atoms: C_17  and  C_18
REMARK    6  A    between atoms: C_18  and  N_19
REMARK                            x       y       z     vdW  Elec       q    Type
REMARK                         _______ _______ _______ _____ _____    ______ ____
ROOT
ATOM      1  C   UNL     1       2.660   6.191  18.106  0.00  0.00    +0.000 C 
ENDROOT
BRANCH   1   2
ATOM      2  N   UNL     1       2.169   5.044  18.886  0.00  0.00    +0.000 NA
ATOM      3  C   UNL     1       1.603   3.985  18.033  0.00  0.00    +0.000 C 
ATOM      4  C   UNL     1       0.972   2.847  18.839  0.00  0.00    +0.000 C 
ATOM      5  C   UNL     1       1.930   2.295  19.882  0.00  0.00    +0.000 C 
ATOM      6  C   UNL     1       2.464   3.441  20.735  0.00  0.00    +0.000 C 
ATOM      7  C   UNL     1       3.148   4.540  19.878  0.00  0.00    +0.000 C 
BRANCH   7   8
ATOM      8  C   UNL     1       4.515   3.993  19.377  0.00  0.00    +0.000 C 
BRANCH   8   9
ATOM      9  C   UNL     1       5.618   5.014  19.120  0.00  0.00    +0.000 C 
BRANCH   9  10
ATOM     10  N   UNL     1       6.228   4.843  17.817  0.00  0.00    +0.000 N 
ATOM     11  C   UNL     1       5.589   4.985  16.615  0.00  0.00    +0.000 A 
ATOM     12  C   UNL     1       6.571   4.802  15.672  0.00  0.00    +0.000 A 
ATOM     13  N   UNL     1       7.780   4.561  16.275  0.00  0.00    +0.000 NA
ATOM     14  C   UNL     1       7.545   4.604  17.565  0.00  0.00    +0.000 A 
ENDBRANCH   9  10
ENDBRANCH   8   9
ENDBRANCH   7   8
ENDBRANCH   1   2
BRANCH   1  17
ATOM     15  N   UNL     1       1.282   9.100  19.845  0.00  0.00    +0.000 N 
ATOM     16  C   UNL     1       1.901   7.875  19.923  0.00  0.00    +0.000 A 
ATOM     17  C   UNL     1       2.203   7.501  18.633  0.00  0.00    +0.000 A 
ATOM     18  C   UNL     1       1.958   8.671  17.882  0.00  0.00    +0.000 A 
ATOM     19  N   UNL     1       1.450   9.658  18.619  0.00  0.00    +0.000 NA
BRANCH  15  25
ATOM     20  F   UNL     1      -1.099  12.905  21.517  0.00  0.00    +0.000 F 
ATOM     21  C   UNL     1      -0.705  11.634  21.672  0.00  0.00    +0.000 A 
ATOM     22  C   UNL     1      -0.985  10.968  22.859  0.00  0.00    +0.000 A 
ATOM     23  C   UNL     1      -0.561   9.651  23.026  0.00  0.00    +0.000 A 
ATOM     24  C   UNL     1       0.158   9.015  22.011  0.00  0.00    +0.000 A 
ATOM     25  C   UNL     1       0.452   9.703  20.822  0.00  0.00    +0.000 A 
ATOM     26  C   UNL     1       0.001  11.017  20.650  0.00  0.00    +0.000 A 
ENDBRANCH  15  25
ENDBRANCH   1  17
TORSDOF 6
ENDMDL
MODEL 4
REMARK VINA RESULT:      -8.3      1.153      1.467
REMARK  Name = 
REMARK  6 active torsions:
REMARK  status: ('A' for Active; 'I' for Inactive)
REMARK    1  A    between atoms: C_6  and  N_7
REMARK    2  A    between atoms: C_9  and  C_10
REMARK    3  A    between atoms: C_10  and  N_11
REMARK    4  A    between atoms: C_16  and  C_17
REMARK    5  A    between atoms: C_17  and  C_18
REMARK    6  A    between atoms: C_18  and  N_19
REMARK                            x       y       z     vdW  Elec       q    Type
REMARK                         _______ _______ _______ _____ _____    ______ ____
ROOT
ATOM      1  C   UNL     1       5.161   5.063  19.182  0.00  0.00    +0.000 C 
ENDROOT
BRANCH   1   2
ATOM      2  N   UNL     1       3.880   4.371  18.967  0.00  0.00    +0.000 NA
ATOM      3  C   UNL     1       3.583   3.397  20.032  0.00  0.00    +0.000 C 
ATOM      4  C   UNL     1       2.320   2.578  19.751  0.00  0.00    +0.000 C 
ATOM      5  C   UNL     1       1.129   3.468  19.437  0.00  0.00    +0.000 C 
ATOM      6  C   UNL     1       1.502   4.438  18.321  0.00  0.00    +0.000 C 
ATOM      7  C   UNL     1       2.752   5.287  18.677  0.00  0.00    +0.000 C 
BRANCH   7   8
ATOM      8  C   UNL     1       2.342   6.340  19.746  0.00  0.00    +0.000 C 
BRANCH   8   9
ATOM      9  C   UNL     1       2.302   7.799  19.302  0.00  0.00    +0.000 C 
BRANCH   9  10
ATOM     10  N   UNL     1       1.369   8.582  20.086  0.00  0.00    +0.000 N 
ATOM     11  C   UNL     1       0.599   9.610  19.613  0.00  0.00    +0.000 A 
ATOM     12  C   UNL     1      -0.169   9.994  20.686  0.00  0.00    +0.000 A 
ATOM     13  N   UNL     1       0.115   9.223  21.784  0.00  0.00    +0.000 NA
ATOM     14  C   UNL     1       1.034   8.374  21.390  0.00  0.00    +0.000 A 
ENDBRANCH   9  10
ENDBRANCH   8   9
ENDBRANCH   7   8
ENDBRANCH   1   2
BRANCH   1  17
ATOM     15  N   UNL     1       6.867   4.949  15.947  0.00  0.00    +0.000 N 
ATOM     16  C   UNL     1       5.835   5.444  16.709  0.00  0.00    +0.000 A 
ATOM     17  C   UNL     1       6.058   5.022  18.000  0.00  0.00    +0.000 A 
ATOM     18  C   UNL     1       7.370   4.502  17.958  0.00  0.00    +0.000 A 
ATOM     19  N   UNL     1       7.884   4.503  16.729  0.00  0.00    +0.000 NA
BRANCH  15  25
ATOM     20  F   UNL     1       5.468   2.577  12.028  0.00  0.00    +0.000 F 
ATOM     21  C   UNL     1       6.208   3.545  12.585  0.00  0.00    +0.000 A 
ATOM     22  C   UNL     1       7.100   4.265  11.801  0.00  0.00    +0.000 A 
ATOM     23  C   UNL     1       7.882   5.262  12.385  0.00  0.00    +0.000 A 
ATOM     24  C   UNL     1       7.777   5.517  13.754  0.00  0.00    +0.000 A 
ATOM     25  C   UNL     1       6.885   4.772  14.541  0.00  0.00    +0.000 A 
ATOM     26  C   UNL     1       6.085   3.790  13.945  0.00  0.00    +0.000 A 
ENDBRANCH  15  25
ENDBRANCH   1  17
TORSDOF 6
ENDMDL
MODEL 5
REMARK VINA RESULT:      -8.2      3.693      8.209
REMARK  Name = 
REMARK  6 active torsions:
REMARK  status: ('A' for Active; 'I' for Inactive)
REMARK    1  A    between atoms: C_6  and  N_7
REMARK    2  A    between atoms: C_9  and  C_10
REMARK    3  A    between atoms: C_10  and  N_11
REMARK    4  A    between atoms: C_16  and  C_17
REMARK    5  A    between atoms: C_17  and  C_18
REMARK    6  A    between atoms: C_18  and  N_19
REMARK                            x       y       z     vdW  Elec       q    Type
REMARK                         _______ _______ _______ _____ _____    ______ ____
ROOT
ATOM      1  C   UNL     1       2.670   5.607  18.032  0.00  0.00    +0.000 C 
ENDROOT
BRANCH   1   2
ATOM      2  N   UNL     1       4.006   5.480  17.429  0.00  0.00    +0.000 NA
ATOM      3  C   UNL     1       5.081   5.869  18.358  0.00  0.00    +0.000 C 
ATOM      4  C   UNL     1       6.464   5.867  17.701  0.00  0.00    +0.000 C 
ATOM      5  C   UNL     1       6.755   4.548  17.005  0.00  0.00    +0.000 C 
ATOM      6  C   UNL     1       5.613   4.215  16.051  0.00  0.00    +0.000 C 
ATOM      7  C   UNL     1       4.240   4.171  16.775  0.00  0.00    +0.000 C 
BRANCH   7   8
ATOM      8  C   UNL     1       4.181   2.877  17.637  0.00  0.00    +0.000 C 
BRANCH   8   9
ATOM      9  C   UNL     1       2.798   2.309  17.941  0.00  0.00    +0.000 C 
BRANCH   9  10
ATOM     10  N   UNL     1       2.434   2.476  19.333  0.00  0.00    +0.000 N 
ATOM     11  C   UNL     1       3.311   2.654  20.369  0.00  0.00    +0.000 A 
ATOM     12  C   UNL     1       2.515   2.838  21.474  0.00  0.00    +0.000 A 
ATOM     13  N   UNL     1       1.188   2.780  21.128  0.00  0.00    +0.000 NA
ATOM     14  C   UNL     1       1.171   2.574  19.832  0.00  0.00    +0.000 A 
ENDBRANCH   9  10
ENDBRANCH   8   9
ENDBRANCH   7   8
ENDBRANCH   1   2
BRANCH   1  17
ATOM     15  N   UNL     1       1.657   8.704  19.695  0.00  0.00    +0.000 N 
ATOM     16  C   UNL     1       2.135   7.419  19.804  0.00  0.00    +0.000 A 
ATOM     17  C   UNL     1       2.373   6.975  18.523  0.00  0.00    +0.000 A 
ATOM     18  C   UNL     1       2.250   8.142  17.738  0.00  0.00    +0.000 A 
ATOM     19  N   UNL     1       1.868   9.202  18.450  0.00  0.00    +0.000 NA
BRANCH  15  25
ATOM     20  F   UNL     1       0.085   9.247  24.187  0.00  0.00    +0.000 F 
ATOM     21  C   UNL     1       0.098   9.663  22.913  0.00  0.00    +0.000 A 
ATOM     22  C   UNL     1      -0.734  10.705  22.522  0.00  0.00    +0.000 A 
ATOM     23  C   UNL     1      -0.731  11.126  21.193  0.00  0.00    +0.000 A 
ATOM     24  C   UNL     1       0.091  10.489  20.261  0.00  0.00    +0.000 A 
ATOM     25  C   UNL     1       0.915   9.426  20.663  0.00  0.00    +0.000 A 
ATOM     26  C   UNL     1       0.927   9.024  22.004  0.00  0.00    +0.000 A 
ENDBRANCH  15  25
ENDBRANCH   1  17
TORSDOF 6
ENDMDL
MODEL 6
REMARK VINA RESULT:      -8.1      1.144      1.368
REMARK  Name = 
REMARK  6 active torsions:
REMARK  status: ('A' for Active; 'I' for Inactive)
REMARK    1  A    between atoms: C_6  and  N_7
REMARK    2  A    between atoms: C_9  and  C_10
REMARK    3  A    between atoms: C_10  and  N_11
REMARK    4  A    between atoms: C_16  and  C_17
REMARK    5  A    between atoms: C_17  and  C_18
REMARK    6  A    between atoms: C_18  and  N_19
REMARK                            x       y       z     vdW  Elec       q    Type
REMARK                         _______ _______ _______ _____ _____    ______ ____
ROOT
ATOM      1  C   UNL     1       5.028   3.875  19.069  0.00  0.00    +0.000 C 
ENDROOT
BRANCH   1   2
ATOM      2  N   UNL     1       3.600   3.582  19.268  0.00  0.00    +0.000 NA
ATOM      3  C   UNL     1       3.324   3.005  20.595  0.00  0.00    +0.000 C 
ATOM      4  C   UNL     1       1.864   2.576  20.764  0.00  0.00    +0.000 C 
ATOM      5  C   UNL     1       0.902   3.699  20.413  0.00  0.00    +0.000 C 
ATOM      6  C   UNL     1       1.236   4.237  19.026  0.00  0.00    +0.000 C 
ATOM      7  C   UNL     1       2.709   4.715  18.922  0.00  0.00    +0.000 C 
BRANCH   7   8
ATOM      8  C   UNL     1       2.849   6.050  19.708  0.00  0.00    +0.000 C 
BRANCH   8   9
ATOM      9  C   UNL     1       2.467   7.331  18.973  0.00  0.00    +0.000 C 
BRANCH   9  10
ATOM     10  N   UNL     1       1.637   8.199  19.782  0.00  0.00    +0.000 N 
ATOM     11  C   UNL     1       1.260   7.959  21.075  0.00  0.00    +0.000 A 
ATOM     12  C   UNL     1       0.550   9.076  21.446  0.00  0.00    +0.000 A 
ATOM     13  N   UNL     1       0.497   9.979  20.414  0.00  0.00    +0.000 NA
ATOM     14  C   UNL     1       1.170   9.429  19.431  0.00  0.00    +0.000 A 
ENDBRANCH   9  10
ENDBRANCH   8   9
ENDBRANCH   7   8
ENDBRANCH   1   2
BRANCH   1  17
ATOM     15  N   UNL     1       5.775   4.878  15.631  0.00  0.00    +0.000 N 
ATOM     16  C   UNL     1       5.086   4.049  16.485  0.00  0.00    +0.000 A 
ATOM     17  C   UNL     1       5.323   4.509  17.760  0.00  0.00    +0.000 A 
ATOM     18  C   UNL     1       5.952   5.756  17.553  0.00  0.00    +0.000 A 
ATOM     19  N   UNL     1       6.181   6.008  16.264  0.00  0.00    +0.000 NA
BRANCH  15  25
ATOM     20  F   UNL     1       5.271   2.375  11.578  0.00  0.00    +0.000 F 
ATOM     21  C   UNL     1       5.928   3.306  12.282  0.00  0.00    +0.000 A 
ATOM     22  C   UNL     1       7.078   3.880  11.755  0.00  0.00    +0.000 A 
ATOM     23  C   UNL     1       7.771   4.837  12.495  0.00  0.00    +0.000 A 
ATOM     24  C   UNL     1       7.318   5.199  13.766  0.00  0.00    +0.000 A 
ATOM     25  C   UNL     1       6.165   4.599  14.297  0.00  0.00    +0.000 A 
ATOM     26  C   UNL     1       5.459   3.658  13.539  0.00  0.00    +0.000 A 
ENDBRANCH  15  25
ENDBRANCH   1  17
TORSDOF 6
ENDMDL
MODEL 7
REMARK VINA RESULT:      -8.0      3.680      8.268
REMARK  Name = 
REMARK  6 active torsions:
REMARK  status: ('A' for Active; 'I' for Inactive)
REMARK    1  A    between atoms: C_6  and  N_7
REMARK    2  A    between atoms: C_9  and  C_10
REMARK    3  A    between atoms: C_10  and  N_11
REMARK    4  A    between atoms: C_16  and  C_17
REMARK    5  A    between atoms: C_17  and  C_18
REMARK    6  A    between atoms: C_18  and  N_19
REMARK                            x       y       z     vdW  Elec       q    Type
REMARK                         _______ _______ _______ _____ _____    ______ ____
ROOT
ATOM      1  C   UNL     1       2.687   5.592  18.116  0.00  0.00    +0.000 C 
ENDROOT
BRANCH   1   2
ATOM      2  N   UNL     1       3.999   5.528  17.453  0.00  0.00    +0.000 NA
ATOM      3  C   UNL     1       5.097   5.954  18.337  0.00  0.00    +0.000 C 
ATOM      4  C   UNL     1       6.448   6.016  17.619  0.00  0.00    +0.000 C 
ATOM      5  C   UNL     1       6.762   4.717  16.896  0.00  0.00    +0.000 C 
ATOM      6  C   UNL     1       5.593   4.345  15.991  0.00  0.00    +0.000 C 
ATOM      7  C   UNL     1       4.257   4.235  16.775  0.00  0.00    +0.000 C 
BRANCH   7   8
ATOM      8  C   UNL     1       4.292   2.933  17.624  0.00  0.00    +0.000 C 
BRANCH   8   9
ATOM      9  C   UNL     1       2.956   2.249  17.900  0.00  0.00    +0.000 C 
BRANCH   9  10
ATOM     10  N   UNL     1       2.522   2.432  19.269  0.00  0.00    +0.000 N 
ATOM     11  C   UNL     1       3.344   2.622  20.346  0.00  0.00    +0.000 A 
ATOM     12  C   UNL     1       2.493   2.818  21.407  0.00  0.00    +0.000 A 
ATOM     13  N   UNL     1       1.186   2.758  20.994  0.00  0.00    +0.000 NA
ATOM     14  C   UNL     1       1.235   2.537  19.702  0.00  0.00    +0.000 A 
ENDBRANCH   9  10
ENDBRANCH   8   9
ENDBRANCH   7   8
ENDBRANCH   1   2
BRANCH   1  17
ATOM     15  N   UNL     1       1.550   8.642  19.787  0.00  0.00    +0.000 N 
ATOM     16  C   UNL     1       2.038   7.361  19.895  0.00  0.00    +0.000 A 
ATOM     17  C   UNL     1       2.347   6.947  18.619  0.00  0.00    +0.000 A 
ATOM     18  C   UNL     1       2.249   8.128  17.852  0.00  0.00    +0.000 A 
ATOM     19  N   UNL     1       1.817   9.168  18.564  0.00  0.00    +0.000 NA
BRANCH  15  25
ATOM     20  F   UNL     1      -1.192  12.386  20.973  0.00  0.00    +0.000 F 
ATOM     21  C   UNL     1      -0.591  11.242  21.326  0.00  0.00    +0.000 A 
ATOM     22  C   UNL     1      -0.630  10.825  22.650  0.00  0.00    +0.000 A 
ATOM     23  C   UNL     1       0.010   9.642  23.019  0.00  0.00    +0.000 A 
ATOM     24  C   UNL     1       0.701   8.895  22.062  0.00  0.00    +0.000 A 
ATOM     25  C   UNL     1       0.750   9.335  20.730  0.00  0.00    +0.000 A 
ATOM     26  C   UNL     1       0.084  10.510  20.360  0.00  0.00    +0.000 A 
ENDBRANCH  15  25
ENDBRANCH   1  17
TORSDOF 6
ENDMDL
MODEL 8
REMARK VINA RESULT:      -7.9      3.671      8.076
REMARK  Name = 
REMARK  6 active torsions:
REMARK  status: ('A' for Active; 'I' for Inactive)
REMARK    1  A    between atoms: C_6  and  N_7
REMARK    2  A    between atoms: C_9  and  C_10
REMARK    3  A    between atoms: C_10  and  N_11
REMARK    4  A    between atoms: C_16  and  C_17
REMARK    5  A    between atoms: C_17  and  C_18
REMARK    6  A    between atoms: C_18  and  N_19
REMARK                            x       y       z     vdW  Elec       q    Type
REMARK                         _______ _______ _______ _____ _____    ______ ____
ROOT
ATOM      1  C   UNL     1       3.056   5.831  18.436  0.00  0.00    +0.000 C 
ENDROOT
BRANCH   1   2
ATOM      2  N   UNL     1       4.159   5.577  17.495  0.00  0.00    +0.000 NA
ATOM      3  C   UNL     1       5.479   5.841  18.093  0.00  0.00    +0.000 C 
ATOM      4  C   UNL     1       6.625   5.707  17.086  0.00  0.00    +0.000 C 
ATOM      5  C   UNL     1       6.580   4.375  16.356  0.00  0.00    +0.000 C 
ATOM      6  C   UNL     1       5.194   4.175  15.752  0.00  0.00    +0.000 C 
ATOM      7  C   UNL     1       4.071   4.260  16.821  0.00  0.00    +0.000 C 
BRANCH   7   8
ATOM      8  C   UNL     1       4.116   2.967  17.685  0.00  0.00    +0.000 C 
BRANCH   8   9
ATOM      9  C   UNL     1       2.783   2.295  17.996  0.00  0.00    +0.000 C 
BRANCH   9  10
ATOM     10  N   UNL     1       2.376   2.501  19.371  0.00  0.00    +0.000 N 
ATOM     11  C   UNL     1       3.220   2.620  20.441  0.00  0.00    +0.000 A 
ATOM     12  C   UNL     1       2.396   2.874  21.511  0.00  0.00    +0.000 A 
ATOM     13  N   UNL     1       1.084   2.916  21.111  0.00  0.00    +0.000 NA
ATOM     14  C   UNL     1       1.104   2.701  19.817  0.00  0.00    +0.000 A 
ENDBRANCH   9  10
ENDBRANCH   8   9
ENDBRANCH   7   8
ENDBRANCH   1   2
BRANCH   1  17
ATOM     15  N   UNL     1       1.592   9.149  18.922  0.00  0.00    +0.000 N 
ATOM     16  C   UNL     1       2.038   7.974  19.478  0.00  0.00    +0.000 A 
ATOM     17  C   UNL     1       2.620   7.250  18.463  0.00  0.00    +0.000 A 
ATOM     18  C   UNL     1       2.700   8.175  17.399  0.00  0.00    +0.000 A 
ATOM     19  N   UNL     1       2.126   9.342  17.689  0.00  0.00    +0.000 NA
BRANCH  15  25
ATOM     20  F   UNL     1      -0.381  11.474  22.615  0.00  0.00    +0.000 F 
ATOM     21  C   UNL     1      -0.400  11.152  21.315  0.00  0.00    +0.000 A 
ATOM     22  C   UNL     1      -1.469  11.553  20.523  0.00  0.00    +0.000 A 
ATOM     23  C   UNL     1      -1.496  11.203  19.174  0.00  0.00    +0.000 A 
ATOM     24  C   UNL     1      -0.461  10.438  18.630  0.00  0.00    +0.000 A 
ATOM     25  C   UNL     1       0.606  10.023  19.444  0.00  0.00    +0.000 A 
ATOM     26  C   UNL     1       0.640  10.399  20.792  0.00  0.00    +0.000 A 
ENDBRANCH  15  25
ENDBRANCH   1  17
TORSDOF 6
ENDMDL
MODEL 9
REMARK VINA RESULT:      -7.9      0.959      1.153
REMARK  Name = 
REMARK  6 active torsions:
REMARK  status: ('A' for Active; 'I' for Inactive)
REMARK    1  A    between atoms: C_6  and  N_7
REMARK    2  A    between atoms: C_9  and  C_10
REMARK    3  A    between atoms: C_10  and  N_11
REMARK    4  A    between atoms: C_16  and  C_17
REMARK    5  A    between atoms: C_17  and  C_18
REMARK    6  A    between atoms: C_18  and  N_19
REMARK                            x       y       z     vdW  Elec       q    Type
REMARK                         _______ _______ _______ _____ _____    ______ ____
ROOT
ATOM      1  C   UNL     1       5.072   3.778  19.057  0.00  0.00    +0.000 C 
ENDROOT
BRANCH   1   2
ATOM      2  N   UNL     1       3.635   3.551  19.280  0.00  0.00    +0.000 NA
ATOM      3  C   UNL     1       3.366   2.872  20.560  0.00  0.00    +0.000 C 
ATOM      4  C   UNL     1       1.889   2.514  20.743  0.00  0.00    +0.000 C 
ATOM      5  C   UNL     1       0.986   3.717  20.528  0.00  0.00    +0.000 C 
ATOM      6  C   UNL     1       1.308   4.360  19.183  0.00  0.00    +0.000 C 
ATOM      7  C   UNL     1       2.804   4.760  19.069  0.00  0.00    +0.000 C 
BRANCH   7   8
ATOM      8  C   UNL     1       3.048   6.007  19.965  0.00  0.00    +0.000 C 
BRANCH   8   9
ATOM      9  C   UNL     1       1.835   6.872  20.294  0.00  0.00    +0.000 C 
BRANCH   9  10
ATOM     10  N   UNL     1       1.787   8.075  19.488  0.00  0.00    +0.000 N 
ATOM     11  C   UNL     1       2.306   8.209  18.229  0.00  0.00    +0.000 A 
ATOM     12  C   UNL     1       1.960   9.481  17.842  0.00  0.00    +0.000 A 
ATOM     13  N   UNL     1       1.245  10.109  18.830  0.00  0.00    +0.000 NA
ATOM     14  C   UNL     1       1.146   9.234  19.803  0.00  0.00    +0.000 A 
ENDBRANCH   9  10
ENDBRANCH   8   9
ENDBRANCH   7   8
ENDBRANCH   1   2
BRANCH   1  17
ATOM     15  N   UNL     1       5.820   4.848  15.639  0.00  0.00    +0.000 N 
ATOM     16  C   UNL     1       5.125   4.008  16.477  0.00  0.00    +0.000 A 
ATOM     17  C   UNL     1       5.369   4.438  17.761  0.00  0.00    +0.000 A 
ATOM     18  C   UNL     1       6.008   5.683  17.579  0.00  0.00    +0.000 A 
ATOM     19  N   UNL     1       6.236   5.961  16.296  0.00  0.00    +0.000 NA
BRANCH  15  25
ATOM     20  F   UNL     1       5.388   2.337  11.584  0.00  0.00    +0.000 F 
ATOM     21  C   UNL     1       6.007   3.298  12.282  0.00  0.00    +0.000 A 
ATOM     22  C   UNL     1       7.117   3.934  11.741  0.00  0.00    +0.000 A 
ATOM     23  C   UNL     1       7.770   4.923  12.475  0.00  0.00    +0.000 A 
ATOM     24  C   UNL     1       7.317   5.256  13.754  0.00  0.00    +0.000 A 
ATOM     25  C   UNL     1       6.204   4.595  14.298  0.00  0.00    +0.000 A 
ATOM     26  C   UNL     1       5.538   3.621  13.546  0.00  0.00    +0.000 A 
ENDBRANCH  15  25
ENDBRANCH   1  17
TORSDOF 6
ENDMDL
