MODEL 1
REMARK VINA RESULT:      -6.4      0.000      0.000
REMARK  Name = 
REMARK  8 active torsions:
REMARK  status: ('A' for Active; 'I' for Inactive)
REMARK    1  A    between atoms: C_1  and  C_2
REMARK    2  A    between atoms: C_2  and  C_3
REMARK    3  A    between atoms: C_9  and  O_11
REMARK    4  A    between atoms: O_11  and  C_12
REMARK    5  A    between atoms: C_12  and  C_13
REMARK    6  A    between atoms: C_12  and  C_14
REMARK    7  A    between atoms: C_12  and  C_15
REMARK    8  A    between atoms: C_16  and  C_17
REMARK                            x       y       z     vdW  Elec       q    Type
REMARK                         _______ _______ _______ _____ _____    ______ ____
ROOT
ATOM      1  C   UNL     1       2.101   4.802  20.135  0.00  0.00    +0.000 C 
ATOM      2  O   UNL     1       2.260   5.343  21.229  0.00  0.00    +0.000 OA
ATOM      3  N   UNL     1       3.024   4.934  19.110  0.00  0.00    +0.000 N 
ATOM      4  C   UNL     1       4.284   5.630  19.371  0.00  0.00    +0.000 C 
ATOM      5  C   UNL     1       5.472   4.727  19.030  0.00  0.00    +0.000 C 
ATOM      6  N   UNL     1       5.364   4.179  17.672  0.00  0.00    +0.000 N 
ATOM      7  C   UNL     1       6.502   4.154  16.894  0.00  0.00    +0.000 C 
ATOM      8  O   UNL     1       7.577   4.568  17.309  0.00  0.00    +0.000 OA
ATOM      9  C   UNL     1       4.082   3.535  17.321  0.00  0.00    +0.000 C 
ATOM     10  C   UNL     1       3.967   2.150  17.969  0.00  0.00    +0.000 C 
ATOM     11  C   UNL     1       2.886   4.429  17.735  0.00  0.00    +0.000 C 
ENDROOT
BRANCH   1  13
ATOM     12  C   UNL     1       1.084   2.505  20.367  0.00  0.00    +0.000 C 
ATOM     13  C   UNL     1       0.893   3.924  19.858  0.00  0.00    +0.000 C 
ENDBRANCH   1  13
BRANCH   7  14
ATOM     14  O   UNL     1       6.309   3.682  15.626  0.00  0.00    +0.000 OA
BRANCH  14  15
ATOM     15  C   UNL     1       6.133   4.649  14.547  0.00  0.00    +0.000 C 
ATOM     16  C   UNL     1       7.476   5.027  13.907  0.00  0.00    +0.000 C 
ATOM     17  C   UNL     1       5.272   3.959  13.473  0.00  0.00    +0.000 C 
ATOM     18  C   UNL     1       5.354   5.883  15.031  0.00  0.00    +0.000 C 
ENDBRANCH  14  15
ENDBRANCH   7  14
TORSDOF 3
ENDMDL
MODEL 2
REMARK VINA RESULT:      -6.4      2.186      5.925
REMARK  Name = 
REMARK  8 active torsions:
REMARK  status: ('A' for Active; 'I' for Inactive)
REMARK    1  A    between atoms: C_1  and  C_2
REMARK    2  A    between atoms: C_2  and  C_3
REMARK    3  A    between atoms: C_9  and  O_11
REMARK    4  A    between atoms: O_11  and  C_12
REMARK    5  A    between atoms: C_12  and  C_13
REMARK    6  A    between atoms: C_12  and  C_14
REMARK    7  A    between atoms: C_12  and  C_15
REMARK    8  A    between atoms: C_16  and  C_17
REMARK                            x       y       z     vdW  Elec       q    Type
REMARK                         _______ _______ _______ _____ _____    ______ ____
ROOT
ATOM      1  C   UNL     1       7.041   6.458  16.364  0.00  0.00    +0.000 C 
ATOM      2  O   UNL     1       7.807   5.992  15.521  0.00  0.00    +0.000 OA
ATOM      3  N   UNL     1       5.728   6.028  16.480  0.00  0.00    +0.000 N 
ATOM      4  C   UNL     1       5.273   4.902  15.664  0.00  0.00    +0.000 C 
ATOM      5  C   UNL     1       4.703   3.795  16.554  0.00  0.00    +0.000 C 
ATOM      6  N   UNL     1       3.685   4.312  17.478  0.00  0.00    +0.000 N 
ATOM      7  C   UNL     1       2.539   3.568  17.659  0.00  0.00    +0.000 C 
ATOM      8  O   UNL     1       2.362   2.504  17.078  0.00  0.00    +0.000 OA
ATOM      9  C   UNL     1       4.058   5.501  18.272  0.00  0.00    +0.000 C 
ATOM     10  C   UNL     1       5.008   5.123  19.413  0.00  0.00    +0.000 C 
ATOM     11  C   UNL     1       4.698   6.586  17.369  0.00  0.00    +0.000 C 
ENDROOT
BRANCH   1  13
ATOM     12  C   UNL     1       8.111   6.895  18.607  0.00  0.00    +0.000 C 
ATOM     13  C   UNL     1       7.505   7.510  17.356  0.00  0.00    +0.000 C 
ENDBRANCH   1  13
BRANCH   7  14
ATOM     14  O   UNL     1       1.617   4.141  18.488  0.00  0.00    +0.000 OA
BRANCH  14  15
ATOM     15  C   UNL     1       1.539   3.671  19.867  0.00  0.00    +0.000 C 
ATOM     16  C   UNL     1       1.515   4.843  20.859  0.00  0.00    +0.000 C 
ATOM     17  C   UNL     1       0.207   2.909  19.999  0.00  0.00    +0.000 C 
ATOM     18  C   UNL     1       2.667   2.673  20.177  0.00  0.00    +0.000 C 
ENDBRANCH  14  15
ENDBRANCH   7  14
TORSDOF 3
ENDMDL
MODEL 3
REMARK VINA RESULT:      -6.4      2.367      5.965
REMARK  Name = 
REMARK  8 active torsions:
REMARK  status: ('A' for Active; 'I' for Inactive)
REMARK    1  A    between atoms: C_1  and  C_2
REMARK    2  A    between atoms: C_2  and  C_3
REMARK    3  A    between atoms: C_9  and  O_11
REMARK    4  A    between atoms: O_11  and  C_12
REMARK    5  A    between atoms: C_12  and  C_13
REMARK    6  A    between atoms: C_12  and  C_14
REMARK    7  A    between atoms: C_12  and  C_15
REMARK    8  A    between atoms: C_16  and  C_17
REMARK                            x       y       z     vdW  Elec       q    Type
REMARK                         _______ _______ _______ _____ _____    ______ ____
ROOT
ATOM      1  C   UNL     1       7.259   6.746  16.804  0.00  0.00    +0.000 C 
ATOM      2  O   UNL     1       7.965   6.515  15.823  0.00  0.00    +0.000 OA
ATOM      3  N   UNL     1       5.930   6.355  16.860  0.00  0.00    +0.000 N 
ATOM      4  C   UNL     1       5.383   5.534  15.779  0.00  0.00    +0.000 C 
ATOM      5  C   UNL     1       4.788   4.241  16.342  0.00  0.00    +0.000 C 
ATOM      6  N   UNL     1       3.837   4.508  17.428  0.00  0.00    +0.000 N 
ATOM      7  C   UNL     1       2.660   3.790  17.447  0.00  0.00    +0.000 C 
ATOM      8  O   UNL     1       2.403   2.949  16.595  0.00  0.00    +0.000 OA
ATOM      9  C   UNL     1       4.304   5.399  18.510  0.00  0.00    +0.000 C 
ATOM     10  C   UNL     1       5.277   4.667  19.442  0.00  0.00    +0.000 C 
ATOM     11  C   UNL     1       4.967   6.672  17.926  0.00  0.00    +0.000 C 
ENDROOT
BRANCH   1  13
ATOM     12  C   UNL     1       8.016   8.935  17.803  0.00  0.00    +0.000 C 
ATOM     13  C   UNL     1       7.817   7.445  18.030  0.00  0.00    +0.000 C 
ENDBRANCH   1  13
BRANCH   7  14
ATOM     14  O   UNL     1       1.804   4.135  18.454  0.00  0.00    +0.000 OA
BRANCH  14  15
ATOM     15  C   UNL     1       1.508   3.142  19.482  0.00  0.00    +0.000 C 
ATOM     16  C   UNL     1       2.762   2.344  19.867  0.00  0.00    +0.000 C 
ATOM     17  C   UNL     1       1.039   3.920  20.725  0.00  0.00    +0.000 C 
ATOM     18  C   UNL     1       0.349   2.228  19.052  0.00  0.00    +0.000 C 
ENDBRANCH  14  15
ENDBRANCH   7  14
TORSDOF 3
ENDMDL
MODEL 4
REMARK VINA RESULT:      -6.4      0.066      1.019
REMARK  Name = 
REMARK  8 active torsions:
REMARK  status: ('A' for Active; 'I' for Inactive)
REMARK    1  A    between atoms: C_1  and  C_2
REMARK    2  A    between atoms: C_2  and  C_3
REMARK    3  A    between atoms: C_9  and  O_11
REMARK    4  A    between atoms: O_11  and  C_12
REMARK    5  A    between atoms: C_12  and  C_13
REMARK    6  A    between atoms: C_12  and  C_14
REMARK    7  A    between atoms: C_12  and  C_15
REMARK    8  A    between atoms: C_16  and  C_17
REMARK                            x       y       z     vdW  Elec       q    Type
REMARK                         _______ _______ _______ _____ _____    ______ ____
ROOT
ATOM      1  C   UNL     1       2.102   4.853  20.154  0.00  0.00    +0.000 C 
ATOM      2  O   UNL     1       2.261   5.421  21.233  0.00  0.00    +0.000 OA
ATOM      3  N   UNL     1       3.018   4.971  19.121  0.00  0.00    +0.000 N 
ATOM      4  C   UNL     1       4.272   5.687  19.359  0.00  0.00    +0.000 C 
ATOM      5  C   UNL     1       5.468   4.790  19.033  0.00  0.00    +0.000 C 
ATOM      6  N   UNL     1       5.360   4.209  17.689  0.00  0.00    +0.000 N 
ATOM      7  C   UNL     1       6.493   4.178  16.905  0.00  0.00    +0.000 C 
ATOM      8  O   UNL     1       7.566   4.614  17.304  0.00  0.00    +0.000 OA
ATOM      9  C   UNL     1       4.083   3.542  17.359  0.00  0.00    +0.000 C 
ATOM     10  C   UNL     1       3.987   2.172  18.040  0.00  0.00    +0.000 C 
ATOM     11  C   UNL     1       2.879   4.432  17.759  0.00  0.00    +0.000 C 
ENDROOT
BRANCH   1  13
ATOM     12  C   UNL     1       1.092   2.565  20.491  0.00  0.00    +0.000 C 
ATOM     13  C   UNL     1       0.903   3.955  19.904  0.00  0.00    +0.000 C 
ENDBRANCH   1  13
BRANCH   7  14
ATOM     14  O   UNL     1       6.300   3.675  15.649  0.00  0.00    +0.000 OA
BRANCH  14  15
ATOM     15  C   UNL     1       6.042   4.611  14.560  0.00  0.00    +0.000 C 
ATOM     16  C   UNL     1       5.388   5.902  15.073  0.00  0.00    +0.000 C 
ATOM     17  C   UNL     1       7.412   4.978  13.960  0.00  0.00    +0.000 C 
ATOM     18  C   UNL     1       5.219   3.948  13.443  0.00  0.00    +0.000 C 
ENDBRANCH  14  15
ENDBRANCH   7  14
TORSDOF 3
ENDMDL
MODEL 5
REMARK VINA RESULT:      -6.3      0.180      1.042
REMARK  Name = 
REMARK  8 active torsions:
REMARK  status: ('A' for Active; 'I' for Inactive)
REMARK    1  A    between atoms: C_1  and  C_2
REMARK    2  A    between atoms: C_2  and  C_3
REMARK    3  A    between atoms: C_9  and  O_11
REMARK    4  A    between atoms: O_11  and  C_12
REMARK    5  A    between atoms: C_12  and  C_13
REMARK    6  A    between atoms: C_12  and  C_14
REMARK    7  A    between atoms: C_12  and  C_15
REMARK    8  A    between atoms: C_16  and  C_17
REMARK                            x       y       z     vdW  Elec       q    Type
REMARK                         _______ _______ _______ _____ _____    ______ ____
ROOT
ATOM      1  C   UNL     1       2.111   4.845  20.148  0.00  0.00    +0.000 C 
ATOM      2  O   UNL     1       2.262   5.480  21.191  0.00  0.00    +0.000 OA
ATOM      3  N   UNL     1       2.998   4.952  19.088  0.00  0.00    +0.000 N 
ATOM      4  C   UNL     1       4.218   5.743  19.258  0.00  0.00    +0.000 C 
ATOM      5  C   UNL     1       5.452   4.891  18.953  0.00  0.00    +0.000 C 
ATOM      6  N   UNL     1       5.347   4.231  17.646  0.00  0.00    +0.000 N 
ATOM      7  C   UNL     1       6.464   4.215  16.838  0.00  0.00    +0.000 C 
ATOM      8  O   UNL     1       7.520   4.727  17.188  0.00  0.00    +0.000 OA
ATOM      9  C   UNL     1       4.100   3.483  17.383  0.00  0.00    +0.000 C 
ATOM     10  C   UNL     1       4.090   2.149  18.140  0.00  0.00    +0.000 C 
ATOM     11  C   UNL     1       2.860   4.331  17.762  0.00  0.00    +0.000 C 
ENDROOT
BRANCH   1  13
ATOM     12  C   UNL     1       1.096   2.649  20.864  0.00  0.00    +0.000 C 
ATOM     13  C   UNL     1       0.956   3.874  19.975  0.00  0.00    +0.000 C 
ENDBRANCH   1  13
BRANCH   7  14
ATOM     14  O   UNL     1       6.271   3.633  15.617  0.00  0.00    +0.000 OA
BRANCH  14  15
ATOM     15  C   UNL     1       6.103   4.500  14.455  0.00  0.00    +0.000 C 
ATOM     16  C   UNL     1       5.207   3.848  13.393  0.00  0.00    +0.000 C 
ATOM     17  C   UNL     1       5.398   5.775  14.955  0.00  0.00    +0.000 C 
ATOM     18  C   UNL     1       7.464   4.928  13.883  0.00  0.00    +0.000 C 
ENDBRANCH  14  15
ENDBRANCH   7  14
TORSDOF 3
ENDMDL
MODEL 6
REMARK VINA RESULT:      -6.1      2.287      5.996
REMARK  Name = 
REMARK  8 active torsions:
REMARK  status: ('A' for Active; 'I' for Inactive)
REMARK    1  A    between atoms: C_1  and  C_2
REMARK    2  A    between atoms: C_2  and  C_3
REMARK    3  A    between atoms: C_9  and  O_11
REMARK    4  A    between atoms: O_11  and  C_12
REMARK    5  A    between atoms: C_12  and  C_13
REMARK    6  A    between atoms: C_12  and  C_14
REMARK    7  A    between atoms: C_12  and  C_15
REMARK    8  A    between atoms: C_16  and  C_17
REMARK                            x       y       z     vdW  Elec       q    Type
REMARK                         _______ _______ _______ _____ _____    ______ ____
ROOT
ATOM      1  C   UNL     1       7.215   6.519  16.745  0.00  0.00    +0.000 C 
ATOM      2  O   UNL     1       7.878   6.212  15.755  0.00  0.00    +0.000 OA
ATOM      3  N   UNL     1       5.869   6.207  16.853  0.00  0.00    +0.000 N 
ATOM      4  C   UNL     1       5.246   5.378  15.820  0.00  0.00    +0.000 C 
ATOM      5  C   UNL     1       4.597   4.142  16.449  0.00  0.00    +0.000 C 
ATOM      6  N   UNL     1       3.694   4.503  17.549  0.00  0.00    +0.000 N 
ATOM      7  C   UNL     1       2.481   3.854  17.628  0.00  0.00    +0.000 C 
ATOM      8  O   UNL     1       2.153   2.997  16.817  0.00  0.00    +0.000 OA
ATOM      9  C   UNL     1       4.242   5.407  18.582  0.00  0.00    +0.000 C 
ATOM     10  C   UNL     1       5.199   4.657  19.516  0.00  0.00    +0.000 C 
ATOM     11  C   UNL     1       4.956   6.618  17.930  0.00  0.00    +0.000 C 
ENDROOT
BRANCH   1  13
ATOM     12  C   UNL     1       7.906   8.738  17.728  0.00  0.00    +0.000 C 
ATOM     13  C   UNL     1       7.847   7.232  17.928  0.00  0.00    +0.000 C 
ENDBRANCH   1  13
BRANCH   7  14
ATOM     14  O   UNL     1       1.674   4.285  18.643  0.00  0.00    +0.000 OA
BRANCH  14  15
ATOM     15  C   UNL     1       1.525   3.431  19.818  0.00  0.00    +0.000 C 
ATOM     16  C   UNL     1       0.139   2.772  19.861  0.00  0.00    +0.000 C 
ATOM     17  C   UNL     1       2.578   2.315  19.688  0.00  0.00    +0.000 C 
ATOM     18  C   UNL     1       1.839   4.206  21.108  0.00  0.00    +0.000 C 
ENDBRANCH  14  15
ENDBRANCH   7  14
TORSDOF 3
ENDMDL
MODEL 7
REMARK VINA RESULT:      -6.0      1.363      1.678
REMARK  Name = 
REMARK  8 active torsions:
REMARK  status: ('A' for Active; 'I' for Inactive)
REMARK    1  A    between atoms: C_1  and  C_2
REMARK    2  A    between atoms: C_2  and  C_3
REMARK    3  A    between atoms: C_9  and  O_11
REMARK    4  A    between atoms: O_11  and  C_12
REMARK    5  A    between atoms: C_12  and  C_13
REMARK    6  A    between atoms: C_12  and  C_14
REMARK    7  A    between atoms: C_12  and  C_15
REMARK    8  A    between atoms: C_16  and  C_17
REMARK                            x       y       z     vdW  Elec       q    Type
REMARK                         _______ _______ _______ _____ _____    ______ ____
ROOT
ATOM      1  C   UNL     1       1.722   4.766  20.151  0.00  0.00    +0.000 C 
ATOM      2  O   UNL     1       1.631   5.489  21.143  0.00  0.00    +0.000 OA
ATOM      3  N   UNL     1       2.279   5.215  18.964  0.00  0.00    +0.000 N 
ATOM      4  C   UNL     1       2.893   6.543  18.923  0.00  0.00    +0.000 C 
ATOM      5  C   UNL     1       4.345   6.444  18.450  0.00  0.00    +0.000 C 
ATOM      6  N   UNL     1       4.456   5.697  17.191  0.00  0.00    +0.000 N 
ATOM      7  C   UNL     1       5.301   6.190  16.220  0.00  0.00    +0.000 C 
ATOM      8  O   UNL     1       5.951   7.214  16.389  0.00  0.00    +0.000 OA
ATOM      9  C   UNL     1       3.785   4.381  17.143  0.00  0.00    +0.000 C 
ATOM     10  C   UNL     1       4.582   3.330  17.924  0.00  0.00    +0.000 C 
ATOM     11  C   UNL     1       2.338   4.482  17.690  0.00  0.00    +0.000 C 
ENDROOT
BRANCH   1  13
ATOM     12  C   UNL     1       1.415   2.696  21.561  0.00  0.00    +0.000 C 
ATOM     13  C   UNL     1       1.257   3.321  20.183  0.00  0.00    +0.000 C 
ENDBRANCH   1  13
BRANCH   7  14
ATOM     14  O   UNL     1       5.308   5.471  15.058  0.00  0.00    +0.000 OA
BRANCH  14  15
ATOM     15  C   UNL     1       6.493   4.682  14.738  0.00  0.00    +0.000 C 
ATOM     16  C   UNL     1       7.225   4.229  16.009  0.00  0.00    +0.000 C 
ATOM     17  C   UNL     1       5.999   3.425  13.999  0.00  0.00    +0.000 C 
ATOM     18  C   UNL     1       7.420   5.442  13.775  0.00  0.00    +0.000 C 
ENDBRANCH  14  15
ENDBRANCH   7  14
TORSDOF 3
ENDMDL
MODEL 8
REMARK VINA RESULT:      -5.9      1.306      1.695
REMARK  Name = 
REMARK  8 active torsions:
REMARK  status: ('A' for Active; 'I' for Inactive)
REMARK    1  A    between atoms: C_1  and  C_2
REMARK    2  A    between atoms: C_2  and  C_3
REMARK    3  A    between atoms: C_9  and  O_11
REMARK    4  A    between atoms: O_11  and  C_12
REMARK    5  A    between atoms: C_12  and  C_13
REMARK    6  A    between atoms: C_12  and  C_14
REMARK    7  A    between atoms: C_12  and  C_15
REMARK    8  A    between atoms: C_16  and  C_17
REMARK                            x       y       z     vdW  Elec       q    Type
REMARK                         _______ _______ _______ _____ _____    ______ ____
ROOT
ATOM      1  C   UNL     1       1.655   4.792  20.108  0.00  0.00    +0.000 C 
ATOM      2  O   UNL     1       1.642   5.476  21.130  0.00  0.00    +0.000 OA
ATOM      3  N   UNL     1       2.239   5.238  18.933  0.00  0.00    +0.000 N 
ATOM      4  C   UNL     1       2.972   6.505  18.939  0.00  0.00    +0.000 C 
ATOM      5  C   UNL     1       4.404   6.293  18.441  0.00  0.00    +0.000 C 
ATOM      6  N   UNL     1       4.431   5.594  17.150  0.00  0.00    +0.000 N 
ATOM      7  C   UNL     1       5.308   6.048  16.188  0.00  0.00    +0.000 C 
ATOM      8  O   UNL     1       6.051   7.000  16.390  0.00  0.00    +0.000 OA
ATOM      9  C   UNL     1       3.642   4.349  17.057  0.00  0.00    +0.000 C 
ATOM     10  C   UNL     1       4.347   3.196  17.781  0.00  0.00    +0.000 C 
ATOM     11  C   UNL     1       2.216   4.558  17.629  0.00  0.00    +0.000 C 
ENDROOT
BRANCH   1  13
ATOM     12  C   UNL     1       1.395   2.607  21.343  0.00  0.00    +0.000 C 
ATOM     13  C   UNL     1       1.059   3.395  20.087  0.00  0.00    +0.000 C 
ENDBRANCH   1  13
BRANCH   7  14
ATOM     14  O   UNL     1       5.236   5.383  14.997  0.00  0.00    +0.000 OA
BRANCH  14  15
ATOM     15  C   UNL     1       6.401   4.622  14.557  0.00  0.00    +0.000 C 
ATOM     16  C   UNL     1       7.407   5.514  13.816  0.00  0.00    +0.000 C 
ATOM     17  C   UNL     1       7.085   4.088  15.829  0.00  0.00    +0.000 C 
ATOM     18  C   UNL     1       5.982   3.402  13.719  0.00  0.00    +0.000 C 
ENDBRANCH  14  15
ENDBRANCH   7  14
TORSDOF 3
ENDMDL
MODEL 9
REMARK VINA RESULT:      -5.9      1.336      1.748
REMARK  Name = 
REMARK  8 active torsions:
REMARK  status: ('A' for Active; 'I' for Inactive)
REMARK    1  A    between atoms: C_1  and  C_2
REMARK    2  A    between atoms: C_2  and  C_3
REMARK    3  A    between atoms: C_9  and  O_11
REMARK    4  A    between atoms: O_11  and  C_12
REMARK    5  A    between atoms: C_12  and  C_13
REMARK    6  A    between atoms: C_12  and  C_14
REMARK    7  A    between atoms: C_12  and  C_15
REMARK    8  A    between atoms: C_16  and  C_17
REMARK                            x       y       z     vdW  Elec       q    Type
REMARK                         _______ _______ _______ _____ _____    ______ ____
ROOT
ATOM      1  C   UNL     1       1.570   4.952  20.148  0.00  0.00    +0.000 C 
ATOM      2  O   UNL     1       1.547   5.669  21.148  0.00  0.00    +0.000 OA
ATOM      3  N   UNL     1       2.172   5.358  18.968  0.00  0.00    +0.000 N 
ATOM      4  C   UNL     1       2.912   6.621  18.943  0.00  0.00    +0.000 C 
ATOM      5  C   UNL     1       4.349   6.386  18.472  0.00  0.00    +0.000 C 
ATOM      6  N   UNL     1       4.390   5.646  17.204  0.00  0.00    +0.000 N 
ATOM      7  C   UNL     1       5.283   6.065  16.241  0.00  0.00    +0.000 C 
ATOM      8  O   UNL     1       6.028   7.020  16.423  0.00  0.00    +0.000 OA
ATOM      9  C   UNL     1       3.594   4.403  17.140  0.00  0.00    +0.000 C 
ATOM     10  C   UNL     1       4.283   3.270  17.909  0.00  0.00    +0.000 C 
ATOM     11  C   UNL     1       2.163   4.638  17.685  0.00  0.00    +0.000 C 
ENDROOT
BRANCH   1  13
ATOM     12  C   UNL     1       1.564   2.684  21.252  0.00  0.00    +0.000 C 
ATOM     13  C   UNL     1       0.966   3.559  20.162  0.00  0.00    +0.000 C 
ENDBRANCH   1  13
BRANCH   7  14
ATOM     14  O   UNL     1       5.222   5.363  15.070  0.00  0.00    +0.000 OA
BRANCH  14  15
ATOM     15  C   UNL     1       6.383   4.570  14.678  0.00  0.00    +0.000 C 
ATOM     16  C   UNL     1       5.994   3.454  13.698  0.00  0.00    +0.000 C 
ATOM     17  C   UNL     1       7.346   5.527  13.951  0.00  0.00    +0.000 C 
ATOM     18  C   UNL     1       7.124   4.027  15.910  0.00  0.00    +0.000 C 
ENDBRANCH  14  15
ENDBRANCH   7  14
TORSDOF 3
ENDMDL
