MODEL 1
REMARK VINA RESULT:      -6.5      0.000      0.000
REMARK  Name = 
REMARK  7 active torsions:
REMARK  status: ('A' for Active; 'I' for Inactive)
REMARK    1  A    between atoms: C_1  and  C_2
REMARK    2  A    between atoms: C_9  and  O_10
REMARK    3  A    between atoms: O_10  and  C_11
REMARK    4  A    between atoms: C_11  and  C_12
REMARK    5  A    between atoms: C_12  and  C_13
REMARK    6  A    between atoms: C_12  and  C_14
REMARK    7  A    between atoms: N_22  and  C_23
REMARK                            x       y       z     vdW  Elec       q    Type
REMARK                         _______ _______ _______ _____ _____    ______ ____
ROOT
ATOM      1  C   UNL     1      -3.048   9.638  17.445  0.00  0.00    +0.000 C 
ATOM      2  C   UNL     1      -2.315  10.702  18.210  0.00  0.00    +0.000 A 
ATOM      3  C   UNL     1      -0.941  10.901  18.019  0.00  0.00    +0.000 A 
ATOM      4  C   UNL     1      -0.212  11.642  18.947  0.00  0.00    +0.000 A 
ATOM      5  C   UNL     1      -0.899  12.256  19.988  0.00  0.00    +0.000 A 
ATOM      6  C   UNL     1      -2.295  12.346  19.978  0.00  0.00    +0.000 A 
ATOM      7  C   UNL     1      -2.993  11.452  19.181  0.00  0.00    +0.000 A 
ATOM      8  C   UNL     1      -2.839  13.457  20.849  0.00  0.00    +0.000 C 
ATOM      9  C   UNL     1      -4.335  13.849  20.888  0.00  0.00    +0.000 C 
ATOM     10  C   UNL     1      -4.766  13.252  22.203  0.00  0.00    +0.000 A 
ATOM     11  C   UNL     1      -6.054  13.234  22.727  0.00  0.00    +0.000 A 
ATOM     12  C   UNL     1      -6.264  12.732  24.007  0.00  0.00    +0.000 A 
ATOM     13  C   UNL     1      -5.183  12.310  24.776  0.00  0.00    +0.000 A 
ATOM     14  C   UNL     1      -3.873  12.408  24.287  0.00  0.00    +0.000 A 
ATOM     15  C   UNL     1      -3.664  12.866  22.991  0.00  0.00    +0.000 A 
ATOM     16  C   UNL     1      -2.367  13.252  22.309  0.00  0.00    +0.000 C 
ATOM     17  N   UNL     1      -1.149  12.422  22.398  0.00  0.00    +0.000 N 
ATOM     18  C   UNL     1      -1.230  11.075  22.946  0.00  0.00    +0.000 C 
ATOM     19  C   UNL     1      -0.246  12.526  21.307  0.00  0.00    +0.000 C 
ATOM     20  O   UNL     1       0.972  12.570  21.425  0.00  0.00    +0.000 OA
ENDROOT
BRANCH   9  21
ATOM     21  O   UNL     1      -5.000  13.401  19.715  0.00  0.00    +0.000 OA
BRANCH  21  22
ATOM     22  C   UNL     1      -6.401  13.600  19.688  0.00  0.00    +0.000 C 
BRANCH  22  23
ATOM     23  C   UNL     1      -7.091  12.473  18.913  0.00  0.00    +0.000 C 
ATOM     24  C   UNL     1      -6.317  12.113  17.642  0.00  0.00    +0.000 C 
ATOM     25  C   UNL     1      -7.203  11.247  19.819  0.00  0.00    +0.000 C 
ENDBRANCH  22  23
ENDBRANCH  21  22
ENDBRANCH   9  21
TORSDOF 3
ENDMDL
MODEL 2
REMARK VINA RESULT:      -6.3      1.765      3.443
REMARK  Name = 
REMARK  7 active torsions:
REMARK  status: ('A' for Active; 'I' for Inactive)
REMARK    1  A    between atoms: C_1  and  C_2
REMARK    2  A    between atoms: C_9  and  O_10
REMARK    3  A    between atoms: O_10  and  C_11
REMARK    4  A    between atoms: C_11  and  C_12
REMARK    5  A    between atoms: C_12  and  C_13
REMARK    6  A    between atoms: C_12  and  C_14
REMARK    7  A    between atoms: N_22  and  C_23
REMARK                            x       y       z     vdW  Elec       q    Type
REMARK                         _______ _______ _______ _____ _____    ______ ____
ROOT
ATOM      1  C   UNL     1       0.109   9.473  20.703  0.00  0.00    +0.000 C 
ATOM      2  C   UNL     1      -0.364  10.895  20.770  0.00  0.00    +0.000 A 
ATOM      3  C   UNL     1       0.490  11.913  21.217  0.00  0.00    +0.000 A 
ATOM      4  C   UNL     1      -0.038  13.148  21.587  0.00  0.00    +0.000 A 
ATOM      5  C   UNL     1      -1.398  13.369  21.401  0.00  0.00    +0.000 A 
ATOM      6  C   UNL     1      -2.174  12.489  20.640  0.00  0.00    +0.000 A 
ATOM      7  C   UNL     1      -1.697  11.200  20.458  0.00  0.00    +0.000 A 
ATOM      8  C   UNL     1      -3.442  13.111  20.098  0.00  0.00    +0.000 C 
ATOM      9  C   UNL     1      -4.387  12.386  19.110  0.00  0.00    +0.000 C 
ATOM     10  C   UNL     1      -5.528  12.001  20.017  0.00  0.00    +0.000 A 
ATOM     11  C   UNL     1      -6.647  11.250  19.673  0.00  0.00    +0.000 A 
ATOM     12  C   UNL     1      -7.663  11.072  20.606  0.00  0.00    +0.000 A 
ATOM     13  C   UNL     1      -7.584  11.694  21.849  0.00  0.00    +0.000 A 
ATOM     14  C   UNL     1      -6.502  12.525  22.168  0.00  0.00    +0.000 A 
ATOM     15  C   UNL     1      -5.462  12.668  21.255  0.00  0.00    +0.000 A 
ATOM     16  C   UNL     1      -4.303  13.643  21.269  0.00  0.00    +0.000 C 
ATOM     17  N   UNL     1      -3.504  13.906  22.483  0.00  0.00    +0.000 N 
ATOM     18  C   UNL     1      -3.656  13.047  23.648  0.00  0.00    +0.000 C 
ATOM     19  C   UNL     1      -2.163  14.320  22.266  0.00  0.00    +0.000 C 
ATOM     20  O   UNL     1      -1.603  15.200  22.908  0.00  0.00    +0.000 OA
ENDROOT
BRANCH   9  21
ATOM     21  O   UNL     1      -3.701  11.338  18.439  0.00  0.00    +0.000 OA
BRANCH  21  22
ATOM     22  C   UNL     1      -3.961  11.221  17.052  0.00  0.00    +0.000 C 
BRANCH  22  23
ATOM     23  C   UNL     1      -3.157  10.064  16.449  0.00  0.00    +0.000 C 
ATOM     24  C   UNL     1      -2.930  10.263  14.949  0.00  0.00    +0.000 C 
ATOM     25  C   UNL     1      -1.814   9.966  17.172  0.00  0.00    +0.000 C 
ENDBRANCH  22  23
ENDBRANCH  21  22
ENDBRANCH   9  21
TORSDOF 3
ENDMDL
MODEL 3
REMARK VINA RESULT:      -6.2      2.119      4.411
REMARK  Name = 
REMARK  7 active torsions:
REMARK  status: ('A' for Active; 'I' for Inactive)
REMARK    1  A    between atoms: C_1  and  C_2
REMARK    2  A    between atoms: C_9  and  O_10
REMARK    3  A    between atoms: O_10  and  C_11
REMARK    4  A    between atoms: C_11  and  C_12
REMARK    5  A    between atoms: C_12  and  C_13
REMARK    6  A    between atoms: C_12  and  C_14
REMARK    7  A    between atoms: N_22  and  C_23
REMARK                            x       y       z     vdW  Elec       q    Type
REMARK                         _______ _______ _______ _____ _____    ______ ____
ROOT
ATOM      1  C   UNL     1      -0.151  12.039  20.711  0.00  0.00    +0.000 C 
ATOM      2  C   UNL     1      -1.309  12.993  20.744  0.00  0.00    +0.000 A 
ATOM      3  C   UNL     1      -1.162  14.278  21.283  0.00  0.00    +0.000 A 
ATOM      4  C   UNL     1      -2.290  15.026  21.611  0.00  0.00    +0.000 A 
ATOM      5  C   UNL     1      -3.541  14.510  21.292  0.00  0.00    +0.000 A 
ATOM      6  C   UNL     1      -3.670  13.402  20.449  0.00  0.00    +0.000 A 
ATOM      7  C   UNL     1      -2.571  12.569  20.304  0.00  0.00    +0.000 A 
ATOM      8  C   UNL     1      -5.028  13.295  19.788  0.00  0.00    +0.000 C 
ATOM      9  C   UNL     1      -5.363  12.244  18.704  0.00  0.00    +0.000 C 
ATOM     10  C   UNL     1      -6.196  11.262  19.489  0.00  0.00    +0.000 A 
ATOM     11  C   UNL     1      -6.716  10.056  19.029  0.00  0.00    +0.000 A 
ATOM     12  C   UNL     1      -7.555   9.315  19.854  0.00  0.00    +0.000 A 
ATOM     13  C   UNL     1      -7.916   9.808  21.104  0.00  0.00    +0.000 A 
ATOM     14  C   UNL     1      -7.467  11.063  21.538  0.00  0.00    +0.000 A 
ATOM     15  C   UNL     1      -6.591  11.786  20.735  0.00  0.00    +0.000 A 
ATOM     16  C   UNL     1      -6.130  13.222  20.873  0.00  0.00    +0.000 C 
ATOM     17  N   UNL     1      -5.691  13.792  22.163  0.00  0.00    +0.000 N 
ATOM     18  C   UNL     1      -5.457  12.912  23.299  0.00  0.00    +0.000 C 
ATOM     19  C   UNL     1      -4.760  14.861  22.086  0.00  0.00    +0.000 C 
ATOM     20  O   UNL     1      -4.804  15.864  22.788  0.00  0.00    +0.000 OA
ENDROOT
BRANCH   9  21
ATOM     21  O   UNL     1      -4.176  11.756  18.096  0.00  0.00    +0.000 OA
BRANCH  21  22
ATOM     22  C   UNL     1      -4.302  11.335  16.750  0.00  0.00    +0.000 C 
BRANCH  22  23
ATOM     23  C   UNL     1      -3.337  10.182  16.453  0.00  0.00    +0.000 C 
ATOM     24  C   UNL     1      -2.885  10.193  14.991  0.00  0.00    +0.000 C 
ATOM     25  C   UNL     1      -2.124  10.304  17.375  0.00  0.00    +0.000 C 
ENDBRANCH  22  23
ENDBRANCH  21  22
ENDBRANCH   9  21
TORSDOF 3
ENDMDL
MODEL 4
REMARK VINA RESULT:      -6.2      2.040      5.468
REMARK  Name = 
REMARK  7 active torsions:
REMARK  status: ('A' for Active; 'I' for Inactive)
REMARK    1  A    between atoms: C_1  and  C_2
REMARK    2  A    between atoms: C_9  and  O_10
REMARK    3  A    between atoms: O_10  and  C_11
REMARK    4  A    between atoms: C_11  and  C_12
REMARK    5  A    between atoms: C_12  and  C_13
REMARK    6  A    between atoms: C_12  and  C_14
REMARK    7  A    between atoms: N_22  and  C_23
REMARK                            x       y       z     vdW  Elec       q    Type
REMARK                         _______ _______ _______ _____ _____    ______ ____
ROOT
ATOM      1  C   UNL     1      -7.705  11.432  21.373  0.00  0.00    +0.000 C 
ATOM      2  C   UNL     1      -6.821  11.862  20.240  0.00  0.00    +0.000 A 
ATOM      3  C   UNL     1      -7.349  12.064  18.957  0.00  0.00    +0.000 A 
ATOM      4  C   UNL     1      -6.496  12.136  17.859  0.00  0.00    +0.000 A 
ATOM      5  C   UNL     1      -5.124  12.111  18.084  0.00  0.00    +0.000 A 
ATOM      6  C   UNL     1      -4.602  12.261  19.373  0.00  0.00    +0.000 A 
ATOM      7  C   UNL     1      -5.440  11.988  20.444  0.00  0.00    +0.000 A 
ATOM      8  C   UNL     1      -3.166  12.736  19.396  0.00  0.00    +0.000 C 
ATOM      9  C   UNL     1      -2.419  13.116  20.697  0.00  0.00    +0.000 C 
ATOM     10  C   UNL     1      -1.527  11.916  20.890  0.00  0.00    +0.000 A 
ATOM     11  C   UNL     1      -0.672  11.677  21.962  0.00  0.00    +0.000 A 
ATOM     12  C   UNL     1       0.163  10.566  21.935  0.00  0.00    +0.000 A 
ATOM     13  C   UNL     1       0.185   9.738  20.816  0.00  0.00    +0.000 A 
ATOM     14  C   UNL     1      -0.608  10.023  19.696  0.00  0.00    +0.000 A 
ATOM     15  C   UNL     1      -1.479  11.107  19.738  0.00  0.00    +0.000 A 
ATOM     16  C   UNL     1      -2.276  11.739  18.616  0.00  0.00    +0.000 C 
ATOM     17  N   UNL     1      -3.045  10.937  17.643  0.00  0.00    +0.000 N 
ATOM     18  C   UNL     1      -3.257   9.517  17.884  0.00  0.00    +0.000 C 
ATOM     19  C   UNL     1      -4.171  11.578  17.061  0.00  0.00    +0.000 C 
ATOM     20  O   UNL     1      -4.478  11.490  15.879  0.00  0.00    +0.000 OA
ENDROOT
BRANCH   9  21
ATOM     21  O   UNL     1      -3.342  13.420  21.733  0.00  0.00    +0.000 OA
BRANCH  21  22
ATOM     22  C   UNL     1      -2.912  14.382  22.678  0.00  0.00    +0.000 C 
BRANCH  22  23
ATOM     23  C   UNL     1      -2.893  13.782  24.088  0.00  0.00    +0.000 C 
ATOM     24  C   UNL     1      -3.247  14.830  25.146  0.00  0.00    +0.000 C 
ATOM     25  C   UNL     1      -3.889  12.625  24.145  0.00  0.00    +0.000 C 
ENDBRANCH  22  23
ENDBRANCH  21  22
ENDBRANCH   9  21
TORSDOF 3
ENDMDL
MODEL 5
REMARK VINA RESULT:      -6.1      2.024      5.074
REMARK  Name = 
REMARK  7 active torsions:
REMARK  status: ('A' for Active; 'I' for Inactive)
REMARK    1  A    between atoms: C_1  and  C_2
REMARK    2  A    between atoms: C_9  and  O_10
REMARK    3  A    between atoms: O_10  and  C_11
REMARK    4  A    between atoms: C_11  and  C_12
REMARK    5  A    between atoms: C_12  and  C_13
REMARK    6  A    between atoms: C_12  and  C_14
REMARK    7  A    between atoms: N_22  and  C_23
REMARK                            x       y       z     vdW  Elec       q    Type
REMARK                         _______ _______ _______ _____ _____    ______ ____
ROOT
ATOM      1  C   UNL     1      -7.768  11.276  21.215  0.00  0.00    +0.000 C 
ATOM      2  C   UNL     1      -6.837  11.751  20.138  0.00  0.00    +0.000 A 
ATOM      3  C   UNL     1      -7.305  11.978  18.836  0.00  0.00    +0.000 A 
ATOM      4  C   UNL     1      -6.400  12.094  17.784  0.00  0.00    +0.000 A 
ATOM      5  C   UNL     1      -5.041  12.085  18.077  0.00  0.00    +0.000 A 
ATOM      6  C   UNL     1      -4.586  12.210  19.393  0.00  0.00    +0.000 A 
ATOM      7  C   UNL     1      -5.470  11.894  20.414  0.00  0.00    +0.000 A 
ATOM      8  C   UNL     1      -3.161  12.708  19.500  0.00  0.00    +0.000 C 
ATOM      9  C   UNL     1      -2.486  13.066  20.845  0.00  0.00    +0.000 C 
ATOM     10  C   UNL     1      -1.583  11.876  21.051  0.00  0.00    +0.000 A 
ATOM     11  C   UNL     1      -0.778  11.623  22.157  0.00  0.00    +0.000 A 
ATOM     12  C   UNL     1       0.077  10.527  22.143  0.00  0.00    +0.000 A 
ATOM     13  C   UNL     1       0.169   9.729  21.006  0.00  0.00    +0.000 A 
ATOM     14  C   UNL     1      -0.573  10.031  19.856  0.00  0.00    +0.000 A 
ATOM     15  C   UNL     1      -1.464  11.099  19.883  0.00  0.00    +0.000 A 
ATOM     16  C   UNL     1      -2.216  11.747  18.739  0.00  0.00    +0.000 C 
ATOM     17  N   UNL     1      -2.922  10.958  17.709  0.00  0.00    +0.000 N 
ATOM     18  C   UNL     1      -3.121   9.529  17.902  0.00  0.00    +0.000 C 
ATOM     19  C   UNL     1      -4.029  11.596  17.089  0.00  0.00    +0.000 C 
ATOM     20  O   UNL     1      -4.277  11.534  15.891  0.00  0.00    +0.000 OA
ENDROOT
BRANCH   9  21
ATOM     21  O   UNL     1      -3.464  13.326  21.842  0.00  0.00    +0.000 OA
BRANCH  21  22
ATOM     22  C   UNL     1      -3.493  14.649  22.344  0.00  0.00    +0.000 C 
BRANCH  22  23
ATOM     23  C   UNL     1      -4.938  15.122  22.534  0.00  0.00    +0.000 C 
ATOM     24  C   UNL     1      -5.616  15.405  21.191  0.00  0.00    +0.000 C 
ATOM     25  C   UNL     1      -5.714  14.045  23.294  0.00  0.00    +0.000 C 
ENDBRANCH  22  23
ENDBRANCH  21  22
ENDBRANCH   9  21
TORSDOF 3
ENDMDL
MODEL 6
REMARK VINA RESULT:      -6.1      1.789      3.227
REMARK  Name = 
REMARK  7 active torsions:
REMARK  status: ('A' for Active; 'I' for Inactive)
REMARK    1  A    between atoms: C_1  and  C_2
REMARK    2  A    between atoms: C_9  and  O_10
REMARK    3  A    between atoms: O_10  and  C_11
REMARK    4  A    between atoms: C_11  and  C_12
REMARK    5  A    between atoms: C_12  and  C_13
REMARK    6  A    between atoms: C_12  and  C_14
REMARK    7  A    between atoms: N_22  and  C_23
REMARK                            x       y       z     vdW  Elec       q    Type
REMARK                         _______ _______ _______ _____ _____    ______ ____
ROOT
ATOM      1  C   UNL     1      -0.185   9.932  20.394  0.00  0.00    +0.000 C 
ATOM      2  C   UNL     1      -0.709  11.337  20.448  0.00  0.00    +0.000 A 
ATOM      3  C   UNL     1       0.161  12.417  20.651  0.00  0.00    +0.000 A 
ATOM      4  C   UNL     1      -0.349  13.658  21.027  0.00  0.00    +0.000 A 
ATOM      5  C   UNL     1      -1.730  13.814  21.087  0.00  0.00    +0.000 A 
ATOM      6  C   UNL     1      -2.589  12.849  20.551  0.00  0.00    +0.000 A 
ATOM      7  C   UNL     1      -2.090  11.568  20.375  0.00  0.00    +0.000 A 
ATOM      8  C   UNL     1      -3.966  13.380  20.217  0.00  0.00    +0.000 C 
ATOM      9  C   UNL     1      -5.040  12.545  19.481  0.00  0.00    +0.000 C 
ATOM     10  C   UNL     1      -5.972  12.192  20.613  0.00  0.00    +0.000 A 
ATOM     11  C   UNL     1      -7.096  11.376  20.543  0.00  0.00    +0.000 A 
ATOM     12  C   UNL     1      -7.909  11.236  21.662  0.00  0.00    +0.000 A 
ATOM     13  C   UNL     1      -7.631  11.957  22.820  0.00  0.00    +0.000 A 
ATOM     14  C   UNL     1      -6.551  12.850  22.868  0.00  0.00    +0.000 A 
ATOM     15  C   UNL     1      -5.709  12.957  21.767  0.00  0.00    +0.000 A 
ATOM     16  C   UNL     1      -4.619  13.971  21.490  0.00  0.00    +0.000 C 
ATOM     17  N   UNL     1      -3.622  14.358  22.508  0.00  0.00    +0.000 N 
ATOM     18  C   UNL     1      -3.509  13.590  23.740  0.00  0.00    +0.000 C 
ATOM     19  C   UNL     1      -2.367  14.802  22.012  0.00  0.00    +0.000 C 
ATOM     20  O   UNL     1      -1.742  15.750  22.471  0.00  0.00    +0.000 OA
ENDROOT
BRANCH   9  21
ATOM     21  O   UNL     1      -4.440  11.473  18.768  0.00  0.00    +0.000 OA
BRANCH  21  22
ATOM     22  C   UNL     1      -4.363  11.634  17.364  0.00  0.00    +0.000 C 
BRANCH  22  23
ATOM     23  C   UNL     1      -3.049  11.059  16.826  0.00  0.00    +0.000 C 
ATOM     24  C   UNL     1      -2.731   9.703  17.460  0.00  0.00    +0.000 C 
ATOM     25  C   UNL     1      -3.158  10.913  15.309  0.00  0.00    +0.000 C 
ENDBRANCH  22  23
ENDBRANCH  21  22
ENDBRANCH   9  21
TORSDOF 3
ENDMDL
MODEL 7
REMARK VINA RESULT:      -6.0      8.493     11.671
REMARK  Name = 
REMARK  7 active torsions:
REMARK  status: ('A' for Active; 'I' for Inactive)
REMARK    1  A    between atoms: C_1  and  C_2
REMARK    2  A    between atoms: C_9  and  O_10
REMARK    3  A    between atoms: O_10  and  C_11
REMARK    4  A    between atoms: C_11  and  C_12
REMARK    5  A    between atoms: C_12  and  C_13
REMARK    6  A    between atoms: C_12  and  C_14
REMARK    7  A    between atoms: N_22  and  C_23
REMARK                            x       y       z     vdW  Elec       q    Type
REMARK                         _______ _______ _______ _____ _____    ______ ____
ROOT
ATOM      1  C   UNL     1       8.224   6.178  18.888  0.00  0.00    +0.000 C 
ATOM      2  C   UNL     1       6.953   6.570  18.194  0.00  0.00    +0.000 A 
ATOM      3  C   UNL     1       6.781   7.868  17.695  0.00  0.00    +0.000 A 
ATOM      4  C   UNL     1       5.507   8.319  17.357  0.00  0.00    +0.000 A 
ATOM      5  C   UNL     1       4.448   7.420  17.426  0.00  0.00    +0.000 A 
ATOM      6  C   UNL     1       4.675   6.050  17.585  0.00  0.00    +0.000 A 
ATOM      7  C   UNL     1       5.895   5.654  18.111  0.00  0.00    +0.000 A 
ATOM      8  C   UNL     1       3.523   5.185  17.120  0.00  0.00    +0.000 C 
ATOM      9  C   UNL     1       3.593   3.641  17.056  0.00  0.00    +0.000 C 
ATOM     10  C   UNL     1       2.774   3.256  18.261  0.00  0.00    +0.000 A 
ATOM     11  C   UNL     1       2.556   1.969  18.743  0.00  0.00    +0.000 A 
ATOM     12  C   UNL     1       1.685   1.777  19.810  0.00  0.00    +0.000 A 
ATOM     13  C   UNL     1       0.993   2.859  20.347  0.00  0.00    +0.000 A 
ATOM     14  C   UNL     1       1.140   4.144  19.808  0.00  0.00    +0.000 A 
ATOM     15  C   UNL     1       2.045   4.347  18.772  0.00  0.00    +0.000 A 
ATOM     16  C   UNL     1       2.239   5.567  17.895  0.00  0.00    +0.000 C 
ATOM     17  N   UNL     1       2.299   6.936  18.447  0.00  0.00    +0.000 N 
ATOM     18  C   UNL     1       2.417   7.132  19.885  0.00  0.00    +0.000 C 
ATOM     19  C   UNL     1       3.048   7.878  17.693  0.00  0.00    +0.000 C 
ATOM     20  O   UNL     1       2.702   9.036  17.499  0.00  0.00    +0.000 OA
ENDROOT
BRANCH   9  21
ATOM     21  O   UNL     1       4.944   3.203  17.014  0.00  0.00    +0.000 OA
BRANCH  21  22
ATOM     22  C   UNL     1       5.440   2.857  15.734  0.00  0.00    +0.000 C 
BRANCH  22  23
ATOM     23  C   UNL     1       5.680   4.114  14.892  0.00  0.00    +0.000 C 
ATOM     24  C   UNL     1       7.102   4.649  15.077  0.00  0.00    +0.000 C 
ATOM     25  C   UNL     1       5.437   3.776  13.421  0.00  0.00    +0.000 C 
ENDBRANCH  22  23
ENDBRANCH  21  22
ENDBRANCH   9  21
TORSDOF 3
ENDMDL
MODEL 8
REMARK VINA RESULT:      -6.0      2.614      4.799
REMARK  Name = 
REMARK  7 active torsions:
REMARK  status: ('A' for Active; 'I' for Inactive)
REMARK    1  A    between atoms: C_1  and  C_2
REMARK    2  A    between atoms: C_9  and  O_10
REMARK    3  A    between atoms: O_10  and  C_11
REMARK    4  A    between atoms: C_11  and  C_12
REMARK    5  A    between atoms: C_12  and  C_13
REMARK    6  A    between atoms: C_12  and  C_14
REMARK    7  A    between atoms: N_22  and  C_23
REMARK                            x       y       z     vdW  Elec       q    Type
REMARK                         _______ _______ _______ _____ _____    ______ ____
ROOT
ATOM      1  C   UNL     1       1.022  16.448  18.618  0.00  0.00    +0.000 C 
ATOM      2  C   UNL     1      -0.273  16.064  19.272  0.00  0.00    +0.000 A 
ATOM      3  C   UNL     1      -1.187  17.046  19.679  0.00  0.00    +0.000 A 
ATOM      4  C   UNL     1      -2.211  16.717  20.565  0.00  0.00    +0.000 A 
ATOM      5  C   UNL     1      -2.359  15.386  20.938  0.00  0.00    +0.000 A 
ATOM      6  C   UNL     1      -1.675  14.368  20.266  0.00  0.00    +0.000 A 
ATOM      7  C   UNL     1      -0.540  14.717  19.550  0.00  0.00    +0.000 A 
ATOM      8  C   UNL     1      -2.316  13.005  20.413  0.00  0.00    +0.000 C 
ATOM      9  C   UNL     1      -1.831  11.753  19.645  0.00  0.00    +0.000 C 
ATOM     10  C   UNL     1      -1.103  11.001  20.730  0.00  0.00    +0.000 A 
ATOM     11  C   UNL     1      -0.390   9.815  20.587  0.00  0.00    +0.000 A 
ATOM     12  C   UNL     1       0.138   9.195  21.714  0.00  0.00    +0.000 A 
ATOM     13  C   UNL     1      -0.101   9.727  22.978  0.00  0.00    +0.000 A 
ATOM     14  C   UNL     1      -0.893  10.873  23.137  0.00  0.00    +0.000 A 
ATOM     15  C   UNL     1      -1.383  11.521  22.008  0.00  0.00    +0.000 A 
ATOM     16  C   UNL     1      -2.408  12.632  21.912  0.00  0.00    +0.000 C 
ATOM     17  N   UNL     1      -2.375  13.817  22.792  0.00  0.00    +0.000 N 
ATOM     18  C   UNL     1      -1.204  14.071  23.620  0.00  0.00    +0.000 C 
ATOM     19  C   UNL     1      -2.948  15.003  22.260  0.00  0.00    +0.000 C 
ATOM     20  O   UNL     1      -3.648  15.777  22.900  0.00  0.00    +0.000 OA
ENDROOT
BRANCH   9  21
ATOM     21  O   UNL     1      -1.086  12.128  18.495  0.00  0.00    +0.000 OA
BRANCH  21  22
ATOM     22  C   UNL     1      -1.699  11.854  17.248  0.00  0.00    +0.000 C 
BRANCH  22  23
ATOM     23  C   UNL     1      -2.869  10.881  17.425  0.00  0.00    +0.000 C 
ATOM     24  C   UNL     1      -4.193  11.514  16.989  0.00  0.00    +0.000 C 
ATOM     25  C   UNL     1      -2.595   9.624  16.601  0.00  0.00    +0.000 C 
ENDBRANCH  22  23
ENDBRANCH  21  22
ENDBRANCH   9  21
TORSDOF 3
ENDMDL
MODEL 9
REMARK VINA RESULT:      -5.9      9.910     13.163
REMARK  Name = 
REMARK  7 active torsions:
REMARK  status: ('A' for Active; 'I' for Inactive)
REMARK    1  A    between atoms: C_1  and  C_2
REMARK    2  A    between atoms: C_9  and  O_10
REMARK    3  A    between atoms: O_10  and  C_11
REMARK    4  A    between atoms: C_11  and  C_12
REMARK    5  A    between atoms: C_12  and  C_13
REMARK    6  A    between atoms: C_12  and  C_14
REMARK    7  A    between atoms: N_22  and  C_23
REMARK                            x       y       z     vdW  Elec       q    Type
REMARK                         _______ _______ _______ _____ _____    ______ ____
ROOT
ATOM      1  C   UNL     1       8.517  12.726  23.232  0.00  0.00    +0.000 C 
ATOM      2  C   UNL     1       8.740  12.416  21.781  0.00  0.00    +0.000 A 
ATOM      3  C   UNL     1       9.148  11.137  21.378  0.00  0.00    +0.000 A 
ATOM      4  C   UNL     1       9.665  10.945  20.098  0.00  0.00    +0.000 A 
ATOM      5  C   UNL     1       9.662  12.020  19.216  0.00  0.00    +0.000 A 
ATOM      6  C   UNL     1       8.942  13.185  19.501  0.00  0.00    +0.000 A 
ATOM      7  C   UNL     1       8.615  13.433  20.825  0.00  0.00    +0.000 A 
ATOM      8  C   UNL     1       8.603  14.005  18.275  0.00  0.00    +0.000 C 
ATOM      9  C   UNL     1       7.689  15.253  18.316  0.00  0.00    +0.000 C 
ATOM     10  C   UNL     1       8.700  16.365  18.196  0.00  0.00    +0.000 A 
ATOM     11  C   UNL     1       8.444  17.732  18.252  0.00  0.00    +0.000 A 
ATOM     12  C   UNL     1       9.479  18.630  18.018  0.00  0.00    +0.000 A 
ATOM     13  C   UNL     1      10.743  18.162  17.671  0.00  0.00    +0.000 A 
ATOM     14  C   UNL     1      10.985  16.789  17.526  0.00  0.00    +0.000 A 
ATOM     15  C   UNL     1       9.964  15.886  17.804  0.00  0.00    +0.000 A 
ATOM     16  C   UNL     1       9.904  14.397  17.535  0.00  0.00    +0.000 C 
ATOM     17  N   UNL     1      11.027  13.490  17.847  0.00  0.00    +0.000 N 
ATOM     18  C   UNL     1      12.140  13.969  18.654  0.00  0.00    +0.000 C 
ATOM     19  C   UNL     1      10.678  12.141  18.124  0.00  0.00    +0.000 C 
ATOM     20  O   UNL     1      11.305  11.171  17.718  0.00  0.00    +0.000 OA
ENDROOT
BRANCH   9  21
ATOM     21  O   UNL     1       6.869  15.235  19.476  0.00  0.00    +0.000 OA
BRANCH  21  22
ATOM     22  C   UNL     1       5.689  16.014  19.408  0.00  0.00    +0.000 C 
BRANCH  22  23
ATOM     23  C   UNL     1       4.721  15.436  18.370  0.00  0.00    +0.000 C 
ATOM     24  C   UNL     1       3.914  14.271  18.947  0.00  0.00    +0.000 C 
ATOM     25  C   UNL     1       3.778  16.544  17.904  0.00  0.00    +0.000 C 
ENDBRANCH  22  23
ENDBRANCH  21  22
ENDBRANCH   9  21
TORSDOF 3
ENDMDL
